data_str_m2_o1_o17_pcu_sym.130
_audit_creation_date              2020-01-03
_audit_creation_method            'Materials Studio'
_symmetry_space_group_name_H-M    'P1'
_symmetry_Int_Tables_number       1
_symmetry_cell_setting            triclinic
loop_
_symmetry_equiv_pos_as_xyz
  x,y,z
_cell_length_a                    33.0151
_cell_length_b                    29.1376
_cell_length_c                    29.9886
_cell_angle_alpha                 92.4388
_cell_angle_beta                  92.1413
_cell_angle_gamma                 89.8593
loop_
_atom_site_label
_atom_site_type_symbol
_atom_site_fract_x
_atom_site_fract_y
_atom_site_fract_z
_atom_site_U_iso_or_equiv
_atom_site_adp_type
_atom_site_occupancy
C1     C     0.08748   0.16672   0.24903   0.00000  Uiso   1.00
C2     C     0.24575   0.16660   0.24902   0.00000  Uiso   1.00
C3     C     0.09394   0.15858   0.01931   0.00000  Uiso   1.00
C4     C     0.23486   0.20473   0.48024   0.00000  Uiso   1.00
C5     C     0.02089   0.12515   0.24368   0.00000  Uiso   1.00
C6     C     0.31160   0.20796   0.24276   0.00000  Uiso   1.00
C7     C     0.31226   0.12511   0.24771   0.00000  Uiso   1.00
C8     C     0.02075   0.20847   0.24693   0.00000  Uiso   1.00
C9     C     0.29037   0.16656   0.24685   0.00000  Uiso   1.00
C10    C     0.04262   0.16683   0.24674   0.00000  Uiso   1.00
C11    C     0.15445   0.02216   0.21302   0.00000  Uiso   1.00
C12    C     0.17779   0.31032   0.28798   0.00000  Uiso   1.00
C13    C     0.18111   0.02697   0.28724   0.00000  Uiso   1.00
C14    C     0.14753   0.30702   0.21620   0.00000  Uiso   1.00
C15    C     0.16683   0.16609   0.16452   0.00000  Uiso   1.00
C16    C     0.16699   0.16764   0.33519   0.00000  Uiso   1.00
C17    C     0.20069   0.18883   0.40784   0.00000  Uiso   1.00
C18    C     0.13209   0.15532   0.09036   0.00000  Uiso   1.00
C19    C     0.16694   0.17033   0.38332   0.00000  Uiso   1.00
C20    C     0.16747   0.16616   0.11585   0.00000  Uiso   1.00
C21    C     0.13194   0.15692   0.40433   0.00000  Uiso   1.00
C22    C     0.20236   0.18196   0.09549   0.00000  Uiso   1.00
C23    C     0.12992   0.16372   0.45091   0.00000  Uiso   1.00
C24    C     0.20180   0.18720   0.04880   0.00000  Uiso   1.00
C25    C     0.16553   0.17658   0.47624   0.00000  Uiso   1.00
C26    C     0.16597   0.17591   0.02323   0.00000  Uiso   1.00
C27    C     0.20059   0.19006   0.45467   0.00000  Uiso   1.00
C28    C     0.13053   0.16319   0.04441   0.00000  Uiso   1.00
C29    C     0.09324   0.15899   0.47297   0.00000  Uiso   1.00
C30    C     0.23576   0.20393   0.02691   0.00000  Uiso   1.00
Cu31   Cu    0.16667   0.21355   0.25000   0.00000  Uiso   1.00
Cu32   Cu    0.16667   0.11978   0.25000   0.00000  Uiso   1.00
H33    H     0.06552   0.15381   0.03535   0.00000  Uiso   1.00
H34    H     0.26179   0.21572   0.46417   0.00000  Uiso   1.00
N35    N     0.16667   0.28402   0.25000   0.00000  Uiso   1.00
N36    N     0.16667   0.04931   0.25000   0.00000  Uiso   1.00
O37    O     0.10655   0.20625   0.25000   0.00000  Uiso   1.00
O38    O     0.22679   0.12709   0.25000   0.00000  Uiso   1.00
O39    O     0.22679   0.20625   0.25000   0.00000  Uiso   1.00
O40    O     0.10655   0.12709   0.25000   0.00000  Uiso   1.00
O41    O     0.16666   0.20627   0.18513   0.00000  Uiso   1.00
O42    O     0.16668   0.12707   0.31487   0.00000  Uiso   1.00
O43    O     0.16668   0.20627   0.31487   0.00000  Uiso   1.00
O44    O     0.16666   0.12707   0.18513   0.00000  Uiso   1.00
O45    O     0.23134   0.21045   0.38624   0.00000  Uiso   1.00
C46    C     0.26059   0.17783   0.37305   0.00000  Uiso   1.00
H47    H     0.28588   0.19611   0.35815   0.00000  Uiso   1.00
H48    H     0.24792   0.15319   0.34699   0.00000  Uiso   1.00
H49    H     0.27344   0.15931   0.40201   0.00000  Uiso   1.00
O50    O     0.09872   0.13865   0.11117   0.00000  Uiso   1.00
C51    C     0.08965   0.09338   0.09457   0.00000  Uiso   1.00
H52    H     0.10734   0.08048   0.06563   0.00000  Uiso   1.00
H53    H     0.09554   0.06955   0.12133   0.00000  Uiso   1.00
H54    H     0.05694   0.09122   0.08490   0.00000  Uiso   1.00
O55    O     0.09857   0.14189   0.37836   0.00000  Uiso   1.00
C56    C     0.09731   0.09347   0.37792   0.00000  Uiso   1.00
H57    H     0.12482   0.07799   0.36329   0.00000  Uiso   1.00
H58    H     0.07081   0.08164   0.35671   0.00000  Uiso   1.00
H59    H     0.09358   0.08060   0.41191   0.00000  Uiso   1.00
O60    O     0.23664   0.19332   0.12159   0.00000  Uiso   1.00
C61    C     0.26032   0.15342   0.12732   0.00000  Uiso   1.00
H62    H     0.26052   0.12997   0.09693   0.00000  Uiso   1.00
H63    H     0.24993   0.13498   0.15630   0.00000  Uiso   1.00
H64    H     0.29222   0.16361   0.13483   0.00000  Uiso   1.00
O65    O     0.05655   0.15307   0.44972   0.00000  Uiso   1.00
C66    C     0.03828   0.19654   0.44551   0.00000  Uiso   1.00
H67    H     0.00937   0.19212   0.42581   0.00000  Uiso   1.00
H68    H     0.05771   0.22003   0.42723   0.00000  Uiso   1.00
H69    H     0.03100   0.21230   0.47873   0.00000  Uiso   1.00
O70    O     0.27111   0.21633   0.05059   0.00000  Uiso   1.00
C71    C     0.27546   0.26448   0.05077   0.00000  Uiso   1.00
H72    H     0.30135   0.27454   0.07373   0.00000  Uiso   1.00
H73    H     0.24797   0.28245   0.06315   0.00000  Uiso   1.00
H74    H     0.28250   0.27608   0.01707   0.00000  Uiso   1.00
O75    O     0.04011   0.08318   0.23895   0.00000  Uiso   1.00
C76    C     0.04680   0.07332   0.19328   0.00000  Uiso   1.00
H77    H     0.06983   0.04567   0.19149   0.00000  Uiso   1.00
H78    H     0.05919   0.10352   0.17696   0.00000  Uiso   1.00
C79    C     0.00865   0.05593   0.16756   0.00000  Uiso   1.00
H80    H     0.32070   0.08470   0.16154   0.00000  Uiso   1.00
H81    H     0.01675   0.04030   0.13470   0.00000  Uiso   1.00
H82    H     0.32677   0.02977   0.18665   0.00000  Uiso   1.00
O83    O     0.29070   0.24851   0.23637   0.00000  Uiso   1.00
C84    C     0.29720   0.26354   0.19299   0.00000  Uiso   1.00
H85    H     0.30180   0.23492   0.16794   0.00000  Uiso   1.00
H86    H     0.32429   0.28591   0.19378   0.00000  Uiso   1.00
C87    C     0.26061   0.29082   0.17717   0.00000  Uiso   1.00
H88    H     0.25594   0.32142   0.19960   0.00000  Uiso   1.00
H89    H     0.26536   0.30253   0.14308   0.00000  Uiso   1.00
H90    H     0.23316   0.26888   0.17663   0.00000  Uiso   1.00
O91    O     0.29267   0.08335   0.24785   0.00000  Uiso   1.00
C92    C     0.29725   0.06613   0.29093   0.00000  Uiso   1.00
H93    H     0.27563   0.08407   0.31278   0.00000  Uiso   1.00
H94    H     0.32842   0.07062   0.30615   0.00000  Uiso   1.00
C95    C     0.28825   0.01515   0.28823   0.00000  Uiso   1.00
H96    H     0.30738   0.33147   0.26318   0.00000  Uiso   1.00
H97    H     0.29417   0.00023   0.32127   0.00000  Uiso   1.00
H98    H     0.25665   0.00867   0.27687   0.00000  Uiso   1.00
O99    O     0.04061   0.25013   0.24818   0.00000  Uiso   1.00
C100   C     0.03899   0.27003   0.29177   0.00000  Uiso   1.00
H101   H     0.05664   0.24914   0.31580   0.00000  Uiso   1.00
H102   H     0.00745   0.27256   0.30338   0.00000  Uiso   1.00
C103   C     0.05651   0.31817   0.29186   0.00000  Uiso   1.00
H104   H     0.03990   0.00520   0.26704   0.00000  Uiso   1.00
H105   H     0.05457   0.00191   0.32549   0.00000  Uiso   1.00
H106   H     0.08828   0.31689   0.28171   0.00000  Uiso   1.00
O107   O     0.14751   0.04228   0.17251   0.00000  Uiso   1.00
C108   C     0.17218   0.02164   0.13912   0.00000  Uiso   1.00
H109   H     0.15360   0.01636   0.10772   0.00000  Uiso   1.00
H110   H     0.18520   0.32111   0.14714   0.00000  Uiso   1.00
C111   C     0.20786   0.05197   0.12982   0.00000  Uiso   1.00
H112   H     0.19696   0.08308   0.11344   0.00000  Uiso   1.00
H113   H     0.22505   0.06102   0.16148   0.00000  Uiso   1.00
H114   H     0.22837   0.03349   0.10666   0.00000  Uiso   1.00
O115   O     0.18007   0.28905   0.32830   0.00000  Uiso   1.00
C116   C     0.14191   0.29343   0.34867   0.00000  Uiso   1.00
H117   H     0.12046   0.26798   0.33304   0.00000  Uiso   1.00
H118   H     0.12828   0.32814   0.34513   0.00000  Uiso   1.00
C119   C     0.14602   0.28525   0.39871   0.00000  Uiso   1.00
H120   H     0.13146   0.31371   0.41810   0.00000  Uiso   1.00
H121   H     0.13045   0.25310   0.40645   0.00000  Uiso   1.00
H122   H     0.17832   0.28342   0.41018   0.00000  Uiso   1.00
O123   O     0.20281   0.05408   0.32010   0.00000  Uiso   1.00
C124   C     0.21183   0.03408   0.36159   0.00000  Uiso   1.00
H125   H     0.23124   0.00317   0.35760   0.00000  Uiso   1.00
H126   H     0.18355   0.02768   0.37852   0.00000  Uiso   1.00
C127   C     0.23490   0.06689   0.39400   0.00000  Uiso   1.00
H128   H     0.21769   0.09910   0.39841   0.00000  Uiso   1.00
H129   H     0.23815   0.05126   0.42709   0.00000  Uiso   1.00
H130   H     0.26577   0.07379   0.38291   0.00000  Uiso   1.00
O131   O     0.10962   0.29108   0.20076   0.00000  Uiso   1.00
C132   C     0.10923   0.26949   0.15766   0.00000  Uiso   1.00
H133   H     0.10014   0.23316   0.16072   0.00000  Uiso   1.00
H134   H     0.13853   0.26967   0.14086   0.00000  Uiso   1.00
C135   C     0.07665   0.29072   0.12789   0.00000  Uiso   1.00
H136   H     0.08385   0.32701   0.12271   0.00000  Uiso   1.00
H137   H     0.07490   0.27184   0.09491   0.00000  Uiso   1.00
H138   H     0.04676   0.28875   0.14341   0.00000  Uiso   1.00
C139   C     0.42081   0.16672   0.24903   0.00000  Uiso   1.00
C140   C     0.57908   0.16660   0.24902   0.00000  Uiso   1.00
C141   C     0.42727   0.15858   0.01931   0.00000  Uiso   1.00
C142   C     0.56819   0.20473   0.48024   0.00000  Uiso   1.00
C143   C     0.35422   0.12515   0.24368   0.00000  Uiso   1.00
C144   C     0.64493   0.20796   0.24276   0.00000  Uiso   1.00
C145   C     0.64560   0.12511   0.24771   0.00000  Uiso   1.00
C146   C     0.35409   0.20847   0.24693   0.00000  Uiso   1.00
C147   C     0.62371   0.16656   0.24685   0.00000  Uiso   1.00
C148   C     0.37596   0.16683   0.24674   0.00000  Uiso   1.00
C149   C     0.48778   0.02216   0.21302   0.00000  Uiso   1.00
C150   C     0.51112   0.31032   0.28798   0.00000  Uiso   1.00
C151   C     0.51445   0.02697   0.28724   0.00000  Uiso   1.00
C152   C     0.48086   0.30702   0.21620   0.00000  Uiso   1.00
C153   C     0.50016   0.16609   0.16452   0.00000  Uiso   1.00
C154   C     0.50032   0.16764   0.33519   0.00000  Uiso   1.00
C155   C     0.53402   0.18883   0.40784   0.00000  Uiso   1.00
C156   C     0.46542   0.15532   0.09036   0.00000  Uiso   1.00
C157   C     0.50027   0.17033   0.38332   0.00000  Uiso   1.00
C158   C     0.50081   0.16616   0.11585   0.00000  Uiso   1.00
C159   C     0.46527   0.15692   0.40433   0.00000  Uiso   1.00
C160   C     0.53569   0.18196   0.09549   0.00000  Uiso   1.00
C161   C     0.46325   0.16372   0.45091   0.00000  Uiso   1.00
C162   C     0.53514   0.18720   0.04880   0.00000  Uiso   1.00
C163   C     0.49887   0.17658   0.47624   0.00000  Uiso   1.00
C164   C     0.49931   0.17591   0.02323   0.00000  Uiso   1.00
C165   C     0.53393   0.19006   0.45467   0.00000  Uiso   1.00
C166   C     0.46386   0.16319   0.04441   0.00000  Uiso   1.00
C167   C     0.42657   0.15899   0.47297   0.00000  Uiso   1.00
C168   C     0.56910   0.20393   0.02691   0.00000  Uiso   1.00
Cu169  Cu    0.50000   0.21355   0.25000   0.00000  Uiso   1.00
Cu170  Cu    0.50000   0.11978   0.25000   0.00000  Uiso   1.00
H171   H     0.39885   0.15381   0.03535   0.00000  Uiso   1.00
H172   H     0.59513   0.21572   0.46417   0.00000  Uiso   1.00
N173   N     0.50000   0.28402   0.25000   0.00000  Uiso   1.00
N174   N     0.50000   0.04931   0.25000   0.00000  Uiso   1.00
O175   O     0.43988   0.20625   0.25000   0.00000  Uiso   1.00
O176   O     0.56012   0.12709   0.25000   0.00000  Uiso   1.00
O177   O     0.56012   0.20625   0.25000   0.00000  Uiso   1.00
O178   O     0.43988   0.12709   0.25000   0.00000  Uiso   1.00
O179   O     0.49999   0.20627   0.18513   0.00000  Uiso   1.00
O180   O     0.50001   0.12707   0.31487   0.00000  Uiso   1.00
O181   O     0.50001   0.20627   0.31487   0.00000  Uiso   1.00
O182   O     0.49999   0.12707   0.18513   0.00000  Uiso   1.00
O183   O     0.56467   0.21045   0.38624   0.00000  Uiso   1.00
C184   C     0.59392   0.17783   0.37305   0.00000  Uiso   1.00
H185   H     0.61922   0.19611   0.35815   0.00000  Uiso   1.00
H186   H     0.58126   0.15319   0.34699   0.00000  Uiso   1.00
H187   H     0.60677   0.15931   0.40201   0.00000  Uiso   1.00
O188   O     0.43205   0.13865   0.11117   0.00000  Uiso   1.00
C189   C     0.42298   0.09338   0.09457   0.00000  Uiso   1.00
H190   H     0.44067   0.08048   0.06563   0.00000  Uiso   1.00
H191   H     0.42887   0.06955   0.12133   0.00000  Uiso   1.00
H192   H     0.39027   0.09122   0.08490   0.00000  Uiso   1.00
O193   O     0.43190   0.14189   0.37836   0.00000  Uiso   1.00
C194   C     0.43065   0.09347   0.37792   0.00000  Uiso   1.00
H195   H     0.45815   0.07799   0.36329   0.00000  Uiso   1.00
H196   H     0.40415   0.08164   0.35671   0.00000  Uiso   1.00
H197   H     0.42691   0.08060   0.41191   0.00000  Uiso   1.00
O198   O     0.56998   0.19332   0.12159   0.00000  Uiso   1.00
C199   C     0.59365   0.15342   0.12732   0.00000  Uiso   1.00
H200   H     0.59386   0.12997   0.09693   0.00000  Uiso   1.00
H201   H     0.58327   0.13498   0.15630   0.00000  Uiso   1.00
H202   H     0.62556   0.16361   0.13483   0.00000  Uiso   1.00
O203   O     0.38988   0.15307   0.44972   0.00000  Uiso   1.00
C204   C     0.37161   0.19654   0.44551   0.00000  Uiso   1.00
H205   H     0.34271   0.19212   0.42581   0.00000  Uiso   1.00
H206   H     0.39105   0.22003   0.42723   0.00000  Uiso   1.00
H207   H     0.36433   0.21230   0.47873   0.00000  Uiso   1.00
O208   O     0.60445   0.21633   0.05059   0.00000  Uiso   1.00
C209   C     0.60879   0.26448   0.05077   0.00000  Uiso   1.00
H210   H     0.63469   0.27454   0.07373   0.00000  Uiso   1.00
H211   H     0.58130   0.28245   0.06315   0.00000  Uiso   1.00
H212   H     0.61583   0.27608   0.01707   0.00000  Uiso   1.00
O213   O     0.37344   0.08318   0.23895   0.00000  Uiso   1.00
C214   C     0.38014   0.07332   0.19328   0.00000  Uiso   1.00
H215   H     0.40316   0.04567   0.19149   0.00000  Uiso   1.00
H216   H     0.39253   0.10352   0.17696   0.00000  Uiso   1.00
C217   C     0.34198   0.05593   0.16756   0.00000  Uiso   1.00
H218   H     0.65404   0.08470   0.16154   0.00000  Uiso   1.00
H219   H     0.35008   0.04030   0.13470   0.00000  Uiso   1.00
H220   H     0.66010   0.02977   0.18665   0.00000  Uiso   1.00
O221   O     0.62404   0.24851   0.23637   0.00000  Uiso   1.00
C222   C     0.63053   0.26354   0.19299   0.00000  Uiso   1.00
H223   H     0.63513   0.23492   0.16794   0.00000  Uiso   1.00
H224   H     0.65762   0.28591   0.19378   0.00000  Uiso   1.00
C225   C     0.59395   0.29082   0.17717   0.00000  Uiso   1.00
H226   H     0.58927   0.32142   0.19960   0.00000  Uiso   1.00
H227   H     0.59870   0.30253   0.14308   0.00000  Uiso   1.00
H228   H     0.56650   0.26888   0.17663   0.00000  Uiso   1.00
O229   O     0.62601   0.08335   0.24785   0.00000  Uiso   1.00
C230   C     0.63059   0.06613   0.29093   0.00000  Uiso   1.00
H231   H     0.60896   0.08407   0.31278   0.00000  Uiso   1.00
H232   H     0.66176   0.07062   0.30615   0.00000  Uiso   1.00
C233   C     0.62158   0.01515   0.28823   0.00000  Uiso   1.00
H234   H     0.64072   0.33147   0.26318   0.00000  Uiso   1.00
H235   H     0.62750   0.00023   0.32127   0.00000  Uiso   1.00
H236   H     0.58998   0.00867   0.27687   0.00000  Uiso   1.00
O237   O     0.37394   0.25013   0.24818   0.00000  Uiso   1.00
C238   C     0.37232   0.27003   0.29177   0.00000  Uiso   1.00
H239   H     0.38998   0.24914   0.31580   0.00000  Uiso   1.00
H240   H     0.34078   0.27256   0.30338   0.00000  Uiso   1.00
C241   C     0.38984   0.31817   0.29186   0.00000  Uiso   1.00
H242   H     0.37323   0.00520   0.26704   0.00000  Uiso   1.00
H243   H     0.38790   0.00191   0.32549   0.00000  Uiso   1.00
H244   H     0.42162   0.31689   0.28171   0.00000  Uiso   1.00
O245   O     0.48085   0.04228   0.17251   0.00000  Uiso   1.00
C246   C     0.50552   0.02164   0.13912   0.00000  Uiso   1.00
H247   H     0.48693   0.01636   0.10772   0.00000  Uiso   1.00
H248   H     0.51854   0.32111   0.14714   0.00000  Uiso   1.00
C249   C     0.54119   0.05197   0.12982   0.00000  Uiso   1.00
H250   H     0.53029   0.08308   0.11344   0.00000  Uiso   1.00
H251   H     0.55838   0.06102   0.16148   0.00000  Uiso   1.00
H252   H     0.56171   0.03349   0.10666   0.00000  Uiso   1.00
O253   O     0.51340   0.28905   0.32830   0.00000  Uiso   1.00
C254   C     0.47524   0.29343   0.34867   0.00000  Uiso   1.00
H255   H     0.45379   0.26798   0.33304   0.00000  Uiso   1.00
H256   H     0.46161   0.32814   0.34513   0.00000  Uiso   1.00
C257   C     0.47935   0.28525   0.39871   0.00000  Uiso   1.00
H258   H     0.46479   0.31371   0.41810   0.00000  Uiso   1.00
H259   H     0.46378   0.25310   0.40645   0.00000  Uiso   1.00
H260   H     0.51166   0.28342   0.41018   0.00000  Uiso   1.00
O261   O     0.53614   0.05408   0.32010   0.00000  Uiso   1.00
C262   C     0.54516   0.03408   0.36159   0.00000  Uiso   1.00
H263   H     0.56458   0.00317   0.35760   0.00000  Uiso   1.00
H264   H     0.51688   0.02768   0.37852   0.00000  Uiso   1.00
C265   C     0.56823   0.06689   0.39400   0.00000  Uiso   1.00
H266   H     0.55102   0.09910   0.39841   0.00000  Uiso   1.00
H267   H     0.57149   0.05126   0.42709   0.00000  Uiso   1.00
H268   H     0.59910   0.07379   0.38291   0.00000  Uiso   1.00
O269   O     0.44296   0.29108   0.20076   0.00000  Uiso   1.00
C270   C     0.44257   0.26949   0.15766   0.00000  Uiso   1.00
H271   H     0.43348   0.23316   0.16072   0.00000  Uiso   1.00
H272   H     0.47186   0.26967   0.14086   0.00000  Uiso   1.00
C273   C     0.40998   0.29072   0.12789   0.00000  Uiso   1.00
H274   H     0.41719   0.32701   0.12271   0.00000  Uiso   1.00
H275   H     0.40824   0.27184   0.09491   0.00000  Uiso   1.00
H276   H     0.38009   0.28875   0.14341   0.00000  Uiso   1.00
C277   C     0.75415   0.16672   0.24903   0.00000  Uiso   1.00
C278   C     0.91242   0.16660   0.24902   0.00000  Uiso   1.00
C279   C     0.76061   0.15858   0.01931   0.00000  Uiso   1.00
C280   C     0.90152   0.20473   0.48024   0.00000  Uiso   1.00
C281   C     0.68756   0.12515   0.24368   0.00000  Uiso   1.00
C282   C     0.97826   0.20796   0.24276   0.00000  Uiso   1.00
C283   C     0.97893   0.12511   0.24771   0.00000  Uiso   1.00
C284   C     0.68742   0.20847   0.24693   0.00000  Uiso   1.00
C285   C     0.95704   0.16656   0.24685   0.00000  Uiso   1.00
C286   C     0.70929   0.16683   0.24674   0.00000  Uiso   1.00
C287   C     0.82111   0.02216   0.21302   0.00000  Uiso   1.00
C288   C     0.84445   0.31032   0.28798   0.00000  Uiso   1.00
C289   C     0.84778   0.02697   0.28724   0.00000  Uiso   1.00
C290   C     0.81419   0.30702   0.21620   0.00000  Uiso   1.00
C291   C     0.83349   0.16609   0.16452   0.00000  Uiso   1.00
C292   C     0.83365   0.16764   0.33519   0.00000  Uiso   1.00
C293   C     0.86735   0.18883   0.40784   0.00000  Uiso   1.00
C294   C     0.79876   0.15532   0.09036   0.00000  Uiso   1.00
C295   C     0.83361   0.17033   0.38332   0.00000  Uiso   1.00
C296   C     0.83414   0.16616   0.11585   0.00000  Uiso   1.00
C297   C     0.79861   0.15692   0.40433   0.00000  Uiso   1.00
C298   C     0.86903   0.18196   0.09549   0.00000  Uiso   1.00
C299   C     0.79658   0.16372   0.45091   0.00000  Uiso   1.00
C300   C     0.86847   0.18720   0.04880   0.00000  Uiso   1.00
C301   C     0.83220   0.17658   0.47624   0.00000  Uiso   1.00
C302   C     0.83264   0.17591   0.02323   0.00000  Uiso   1.00
C303   C     0.86726   0.19006   0.45467   0.00000  Uiso   1.00
C304   C     0.79720   0.16319   0.04441   0.00000  Uiso   1.00
C305   C     0.75990   0.15899   0.47297   0.00000  Uiso   1.00
C306   C     0.90243   0.20393   0.02691   0.00000  Uiso   1.00
Cu307  Cu    0.83333   0.21355   0.25000   0.00000  Uiso   1.00
Cu308  Cu    0.83333   0.11978   0.25000   0.00000  Uiso   1.00
H309   H     0.73218   0.15381   0.03535   0.00000  Uiso   1.00
H310   H     0.92846   0.21572   0.46417   0.00000  Uiso   1.00
N311   N     0.83333   0.28402   0.25000   0.00000  Uiso   1.00
N312   N     0.83333   0.04931   0.25000   0.00000  Uiso   1.00
O313   O     0.77321   0.20625   0.25000   0.00000  Uiso   1.00
O314   O     0.89345   0.12709   0.25000   0.00000  Uiso   1.00
O315   O     0.89345   0.20625   0.25000   0.00000  Uiso   1.00
O316   O     0.77321   0.12709   0.25000   0.00000  Uiso   1.00
O317   O     0.83332   0.20627   0.18513   0.00000  Uiso   1.00
O318   O     0.83334   0.12707   0.31487   0.00000  Uiso   1.00
O319   O     0.83334   0.20627   0.31487   0.00000  Uiso   1.00
O320   O     0.83332   0.12707   0.18513   0.00000  Uiso   1.00
O321   O     0.89800   0.21045   0.38624   0.00000  Uiso   1.00
C322   C     0.92725   0.17783   0.37305   0.00000  Uiso   1.00
H323   H     0.95255   0.19611   0.35815   0.00000  Uiso   1.00
H324   H     0.91459   0.15319   0.34699   0.00000  Uiso   1.00
H325   H     0.94010   0.15931   0.40201   0.00000  Uiso   1.00
O326   O     0.76539   0.13865   0.11117   0.00000  Uiso   1.00
C327   C     0.75632   0.09338   0.09457   0.00000  Uiso   1.00
H328   H     0.77401   0.08048   0.06563   0.00000  Uiso   1.00
H329   H     0.76221   0.06955   0.12133   0.00000  Uiso   1.00
H330   H     0.72361   0.09122   0.08490   0.00000  Uiso   1.00
O331   O     0.76524   0.14189   0.37836   0.00000  Uiso   1.00
C332   C     0.76398   0.09347   0.37792   0.00000  Uiso   1.00
H333   H     0.79148   0.07799   0.36329   0.00000  Uiso   1.00
H334   H     0.73748   0.08164   0.35671   0.00000  Uiso   1.00
H335   H     0.76024   0.08060   0.41191   0.00000  Uiso   1.00
O336   O     0.90331   0.19332   0.12159   0.00000  Uiso   1.00
C337   C     0.92699   0.15342   0.12732   0.00000  Uiso   1.00
H338   H     0.92719   0.12997   0.09693   0.00000  Uiso   1.00
H339   H     0.91660   0.13498   0.15630   0.00000  Uiso   1.00
H340   H     0.95889   0.16361   0.13483   0.00000  Uiso   1.00
O341   O     0.72322   0.15307   0.44972   0.00000  Uiso   1.00
C342   C     0.70495   0.19654   0.44551   0.00000  Uiso   1.00
H343   H     0.67604   0.19212   0.42581   0.00000  Uiso   1.00
H344   H     0.72438   0.22003   0.42723   0.00000  Uiso   1.00
H345   H     0.69766   0.21230   0.47873   0.00000  Uiso   1.00
O346   O     0.93778   0.21633   0.05059   0.00000  Uiso   1.00
C347   C     0.94212   0.26448   0.05077   0.00000  Uiso   1.00
H348   H     0.96802   0.27454   0.07373   0.00000  Uiso   1.00
H349   H     0.91463   0.28245   0.06315   0.00000  Uiso   1.00
H350   H     0.94916   0.27608   0.01707   0.00000  Uiso   1.00
O351   O     0.70678   0.08318   0.23895   0.00000  Uiso   1.00
C352   C     0.71347   0.07332   0.19328   0.00000  Uiso   1.00
H353   H     0.73650   0.04567   0.19149   0.00000  Uiso   1.00
H354   H     0.72586   0.10352   0.17696   0.00000  Uiso   1.00
C355   C     0.67531   0.05593   0.16756   0.00000  Uiso   1.00
H356   H     0.98737   0.08470   0.16154   0.00000  Uiso   1.00
H357   H     0.68342   0.04030   0.13470   0.00000  Uiso   1.00
H358   H     0.99344   0.02977   0.18665   0.00000  Uiso   1.00
O359   O     0.95737   0.24851   0.23637   0.00000  Uiso   1.00
C360   C     0.96386   0.26354   0.19299   0.00000  Uiso   1.00
H361   H     0.96847   0.23492   0.16794   0.00000  Uiso   1.00
H362   H     0.99095   0.28591   0.19378   0.00000  Uiso   1.00
C363   C     0.92728   0.29082   0.17717   0.00000  Uiso   1.00
H364   H     0.92261   0.32142   0.19960   0.00000  Uiso   1.00
H365   H     0.93203   0.30253   0.14308   0.00000  Uiso   1.00
H366   H     0.89983   0.26888   0.17663   0.00000  Uiso   1.00
O367   O     0.95934   0.08335   0.24785   0.00000  Uiso   1.00
C368   C     0.96392   0.06613   0.29093   0.00000  Uiso   1.00
H369   H     0.94230   0.08407   0.31278   0.00000  Uiso   1.00
H370   H     0.99509   0.07062   0.30615   0.00000  Uiso   1.00
C371   C     0.95492   0.01515   0.28823   0.00000  Uiso   1.00
H372   H     0.97405   0.33147   0.26318   0.00000  Uiso   1.00
H373   H     0.96083   0.00023   0.32127   0.00000  Uiso   1.00
H374   H     0.92332   0.00867   0.27687   0.00000  Uiso   1.00
O375   O     0.70727   0.25013   0.24818   0.00000  Uiso   1.00
C376   C     0.70565   0.27003   0.29177   0.00000  Uiso   1.00
H377   H     0.72331   0.24914   0.31580   0.00000  Uiso   1.00
H378   H     0.67411   0.27256   0.30338   0.00000  Uiso   1.00
C379   C     0.72318   0.31817   0.29186   0.00000  Uiso   1.00
H380   H     0.70656   0.00520   0.26704   0.00000  Uiso   1.00
H381   H     0.72124   0.00191   0.32549   0.00000  Uiso   1.00
H382   H     0.75495   0.31689   0.28171   0.00000  Uiso   1.00
O383   O     0.81418   0.04228   0.17251   0.00000  Uiso   1.00
C384   C     0.83885   0.02164   0.13912   0.00000  Uiso   1.00
H385   H     0.82027   0.01636   0.10772   0.00000  Uiso   1.00
H386   H     0.85187   0.32111   0.14714   0.00000  Uiso   1.00
C387   C     0.87453   0.05197   0.12982   0.00000  Uiso   1.00
H388   H     0.86362   0.08308   0.11344   0.00000  Uiso   1.00
H389   H     0.89171   0.06102   0.16148   0.00000  Uiso   1.00
H390   H     0.89504   0.03349   0.10666   0.00000  Uiso   1.00
O391   O     0.84673   0.28905   0.32830   0.00000  Uiso   1.00
C392   C     0.80857   0.29343   0.34867   0.00000  Uiso   1.00
H393   H     0.78712   0.26798   0.33304   0.00000  Uiso   1.00
H394   H     0.79494   0.32814   0.34513   0.00000  Uiso   1.00
C395   C     0.81269   0.28525   0.39871   0.00000  Uiso   1.00
H396   H     0.79812   0.31371   0.41810   0.00000  Uiso   1.00
H397   H     0.79711   0.25310   0.40645   0.00000  Uiso   1.00
H398   H     0.84499   0.28342   0.41018   0.00000  Uiso   1.00
O399   O     0.86948   0.05408   0.32010   0.00000  Uiso   1.00
C400   C     0.87850   0.03408   0.36159   0.00000  Uiso   1.00
H401   H     0.89791   0.00317   0.35760   0.00000  Uiso   1.00
H402   H     0.85021   0.02768   0.37852   0.00000  Uiso   1.00
C403   C     0.90157   0.06689   0.39400   0.00000  Uiso   1.00
H404   H     0.88436   0.09910   0.39841   0.00000  Uiso   1.00
H405   H     0.90482   0.05126   0.42709   0.00000  Uiso   1.00
H406   H     0.93243   0.07379   0.38291   0.00000  Uiso   1.00
O407   O     0.77629   0.29108   0.20076   0.00000  Uiso   1.00
C408   C     0.77590   0.26949   0.15766   0.00000  Uiso   1.00
H409   H     0.76681   0.23316   0.16072   0.00000  Uiso   1.00
H410   H     0.80519   0.26967   0.14086   0.00000  Uiso   1.00
C411   C     0.74331   0.29072   0.12789   0.00000  Uiso   1.00
H412   H     0.75052   0.32701   0.12271   0.00000  Uiso   1.00
H413   H     0.74157   0.27184   0.09491   0.00000  Uiso   1.00
H414   H     0.71342   0.28875   0.14341   0.00000  Uiso   1.00
C415   C     0.08748   0.50005   0.24903   0.00000  Uiso   1.00
C416   C     0.24575   0.49993   0.24902   0.00000  Uiso   1.00
C417   C     0.09394   0.49191   0.01931   0.00000  Uiso   1.00
C418   C     0.23486   0.53806   0.48024   0.00000  Uiso   1.00
C419   C     0.02089   0.45848   0.24368   0.00000  Uiso   1.00
C420   C     0.31160   0.54129   0.24276   0.00000  Uiso   1.00
C421   C     0.31226   0.45845   0.24771   0.00000  Uiso   1.00
C422   C     0.02075   0.54181   0.24693   0.00000  Uiso   1.00
C423   C     0.29037   0.49990   0.24685   0.00000  Uiso   1.00
C424   C     0.04262   0.50016   0.24674   0.00000  Uiso   1.00
C425   C     0.15445   0.35550   0.21302   0.00000  Uiso   1.00
C426   C     0.17779   0.64365   0.28798   0.00000  Uiso   1.00
C427   C     0.18111   0.36030   0.28724   0.00000  Uiso   1.00
C428   C     0.14753   0.64035   0.21620   0.00000  Uiso   1.00
C429   C     0.16683   0.49942   0.16452   0.00000  Uiso   1.00
C430   C     0.16699   0.50098   0.33519   0.00000  Uiso   1.00
C431   C     0.20069   0.52216   0.40784   0.00000  Uiso   1.00
C432   C     0.13209   0.48865   0.09036   0.00000  Uiso   1.00
C433   C     0.16694   0.50367   0.38332   0.00000  Uiso   1.00
C434   C     0.16747   0.49950   0.11585   0.00000  Uiso   1.00
C435   C     0.13194   0.49025   0.40433   0.00000  Uiso   1.00
C436   C     0.20236   0.51530   0.09549   0.00000  Uiso   1.00
C437   C     0.12992   0.49705   0.45091   0.00000  Uiso   1.00
C438   C     0.20180   0.52054   0.04880   0.00000  Uiso   1.00
C439   C     0.16553   0.50991   0.47624   0.00000  Uiso   1.00
C440   C     0.16597   0.50925   0.02323   0.00000  Uiso   1.00
C441   C     0.20059   0.52339   0.45467   0.00000  Uiso   1.00
C442   C     0.13053   0.49652   0.04441   0.00000  Uiso   1.00
C443   C     0.09324   0.49233   0.47297   0.00000  Uiso   1.00
C444   C     0.23576   0.53727   0.02691   0.00000  Uiso   1.00
Cu445  Cu    0.16667   0.54689   0.25000   0.00000  Uiso   1.00
Cu446  Cu    0.16667   0.45311   0.25000   0.00000  Uiso   1.00
H447   H     0.06552   0.48714   0.03535   0.00000  Uiso   1.00
H448   H     0.26179   0.54906   0.46417   0.00000  Uiso   1.00
N449   N     0.16667   0.61736   0.25000   0.00000  Uiso   1.00
N450   N     0.16667   0.38264   0.25000   0.00000  Uiso   1.00
O451   O     0.10655   0.53958   0.25000   0.00000  Uiso   1.00
O452   O     0.22679   0.46042   0.25000   0.00000  Uiso   1.00
O453   O     0.22679   0.53958   0.25000   0.00000  Uiso   1.00
O454   O     0.10655   0.46042   0.25000   0.00000  Uiso   1.00
O455   O     0.16666   0.53960   0.18513   0.00000  Uiso   1.00
O456   O     0.16668   0.46040   0.31487   0.00000  Uiso   1.00
O457   O     0.16668   0.53960   0.31487   0.00000  Uiso   1.00
O458   O     0.16666   0.46040   0.18513   0.00000  Uiso   1.00
O459   O     0.23134   0.54378   0.38624   0.00000  Uiso   1.00
C460   C     0.26059   0.51117   0.37305   0.00000  Uiso   1.00
H461   H     0.28588   0.52944   0.35815   0.00000  Uiso   1.00
H462   H     0.24792   0.48653   0.34699   0.00000  Uiso   1.00
H463   H     0.27344   0.49265   0.40201   0.00000  Uiso   1.00
O464   O     0.09872   0.47198   0.11117   0.00000  Uiso   1.00
C465   C     0.08965   0.42671   0.09457   0.00000  Uiso   1.00
H466   H     0.10734   0.41382   0.06563   0.00000  Uiso   1.00
H467   H     0.09554   0.40288   0.12133   0.00000  Uiso   1.00
H468   H     0.05694   0.42456   0.08490   0.00000  Uiso   1.00
O469   O     0.09857   0.47523   0.37836   0.00000  Uiso   1.00
C470   C     0.09731   0.42680   0.37792   0.00000  Uiso   1.00
H471   H     0.12482   0.41133   0.36329   0.00000  Uiso   1.00
H472   H     0.07081   0.41497   0.35671   0.00000  Uiso   1.00
H473   H     0.09358   0.41394   0.41191   0.00000  Uiso   1.00
O474   O     0.23664   0.52666   0.12159   0.00000  Uiso   1.00
C475   C     0.26032   0.48675   0.12732   0.00000  Uiso   1.00
H476   H     0.26052   0.46331   0.09693   0.00000  Uiso   1.00
H477   H     0.24993   0.46831   0.15630   0.00000  Uiso   1.00
H478   H     0.29222   0.49695   0.13483   0.00000  Uiso   1.00
O479   O     0.05655   0.48640   0.44972   0.00000  Uiso   1.00
C480   C     0.03828   0.52987   0.44551   0.00000  Uiso   1.00
H481   H     0.00937   0.52545   0.42581   0.00000  Uiso   1.00
H482   H     0.05771   0.55336   0.42723   0.00000  Uiso   1.00
H483   H     0.03100   0.54563   0.47873   0.00000  Uiso   1.00
O484   O     0.27111   0.54966   0.05059   0.00000  Uiso   1.00
C485   C     0.27546   0.59782   0.05077   0.00000  Uiso   1.00
H486   H     0.30135   0.60787   0.07373   0.00000  Uiso   1.00
H487   H     0.24797   0.61578   0.06315   0.00000  Uiso   1.00
H488   H     0.28250   0.60941   0.01707   0.00000  Uiso   1.00
O489   O     0.04011   0.41651   0.23895   0.00000  Uiso   1.00
C490   C     0.04680   0.40666   0.19328   0.00000  Uiso   1.00
H491   H     0.06983   0.37900   0.19149   0.00000  Uiso   1.00
H492   H     0.05919   0.43685   0.17696   0.00000  Uiso   1.00
C493   C     0.00865   0.38926   0.16756   0.00000  Uiso   1.00
H494   H     0.32070   0.41804   0.16154   0.00000  Uiso   1.00
H495   H     0.01675   0.37363   0.13470   0.00000  Uiso   1.00
H496   H     0.32677   0.36310   0.18665   0.00000  Uiso   1.00
O497   O     0.29070   0.58185   0.23637   0.00000  Uiso   1.00
C498   C     0.29720   0.59688   0.19299   0.00000  Uiso   1.00
H499   H     0.30180   0.56825   0.16794   0.00000  Uiso   1.00
H500   H     0.32429   0.61924   0.19378   0.00000  Uiso   1.00
C501   C     0.26061   0.62416   0.17717   0.00000  Uiso   1.00
H502   H     0.25594   0.65475   0.19960   0.00000  Uiso   1.00
H503   H     0.26536   0.63586   0.14308   0.00000  Uiso   1.00
H504   H     0.23316   0.60222   0.17663   0.00000  Uiso   1.00
O505   O     0.29267   0.41668   0.24785   0.00000  Uiso   1.00
C506   C     0.29725   0.39946   0.29093   0.00000  Uiso   1.00
H507   H     0.27563   0.41740   0.31278   0.00000  Uiso   1.00
H508   H     0.32842   0.40395   0.30615   0.00000  Uiso   1.00
C509   C     0.28825   0.34849   0.28823   0.00000  Uiso   1.00
H510   H     0.30738   0.66481   0.26318   0.00000  Uiso   1.00
H511   H     0.29417   0.33357   0.32127   0.00000  Uiso   1.00
H512   H     0.25665   0.34201   0.27687   0.00000  Uiso   1.00
O513   O     0.04061   0.58347   0.24818   0.00000  Uiso   1.00
C514   C     0.03899   0.60337   0.29177   0.00000  Uiso   1.00
H515   H     0.05664   0.58247   0.31580   0.00000  Uiso   1.00
H516   H     0.00745   0.60589   0.30338   0.00000  Uiso   1.00
C517   C     0.05651   0.65150   0.29186   0.00000  Uiso   1.00
H518   H     0.03990   0.33854   0.26704   0.00000  Uiso   1.00
H519   H     0.05457   0.33525   0.32549   0.00000  Uiso   1.00
H520   H     0.08828   0.65022   0.28171   0.00000  Uiso   1.00
O521   O     0.14751   0.37562   0.17251   0.00000  Uiso   1.00
C522   C     0.17218   0.35497   0.13912   0.00000  Uiso   1.00
H523   H     0.15360   0.34970   0.10772   0.00000  Uiso   1.00
H524   H     0.18520   0.65445   0.14714   0.00000  Uiso   1.00
C525   C     0.20786   0.38531   0.12982   0.00000  Uiso   1.00
H526   H     0.19696   0.41641   0.11344   0.00000  Uiso   1.00
H527   H     0.22505   0.39435   0.16148   0.00000  Uiso   1.00
H528   H     0.22837   0.36682   0.10666   0.00000  Uiso   1.00
O529   O     0.18007   0.62238   0.32830   0.00000  Uiso   1.00
C530   C     0.14191   0.62676   0.34867   0.00000  Uiso   1.00
H531   H     0.12046   0.60131   0.33304   0.00000  Uiso   1.00
H532   H     0.12828   0.66148   0.34513   0.00000  Uiso   1.00
C533   C     0.14602   0.61858   0.39871   0.00000  Uiso   1.00
H534   H     0.13146   0.64704   0.41810   0.00000  Uiso   1.00
H535   H     0.13045   0.58644   0.40645   0.00000  Uiso   1.00
H536   H     0.17832   0.61675   0.41018   0.00000  Uiso   1.00
O537   O     0.20281   0.38741   0.32010   0.00000  Uiso   1.00
C538   C     0.21183   0.36741   0.36159   0.00000  Uiso   1.00
H539   H     0.23124   0.33650   0.35760   0.00000  Uiso   1.00
H540   H     0.18355   0.36101   0.37852   0.00000  Uiso   1.00
C541   C     0.23490   0.40022   0.39400   0.00000  Uiso   1.00
H542   H     0.21769   0.43243   0.39841   0.00000  Uiso   1.00
H543   H     0.23815   0.38459   0.42709   0.00000  Uiso   1.00
H544   H     0.26577   0.40713   0.38291   0.00000  Uiso   1.00
O545   O     0.10962   0.62441   0.20076   0.00000  Uiso   1.00
C546   C     0.10923   0.60283   0.15766   0.00000  Uiso   1.00
H547   H     0.10014   0.56649   0.16072   0.00000  Uiso   1.00
H548   H     0.13853   0.60300   0.14086   0.00000  Uiso   1.00
C549   C     0.07665   0.62405   0.12789   0.00000  Uiso   1.00
H550   H     0.08385   0.66034   0.12271   0.00000  Uiso   1.00
H551   H     0.07490   0.60517   0.09491   0.00000  Uiso   1.00
H552   H     0.04676   0.62208   0.14341   0.00000  Uiso   1.00
C553   C     0.42081   0.50005   0.24903   0.00000  Uiso   1.00
C554   C     0.57908   0.49993   0.24902   0.00000  Uiso   1.00
C555   C     0.42727   0.49191   0.01931   0.00000  Uiso   1.00
C556   C     0.56819   0.53806   0.48024   0.00000  Uiso   1.00
C557   C     0.35422   0.45848   0.24368   0.00000  Uiso   1.00
C558   C     0.64493   0.54129   0.24276   0.00000  Uiso   1.00
C559   C     0.64560   0.45845   0.24771   0.00000  Uiso   1.00
C560   C     0.35409   0.54181   0.24693   0.00000  Uiso   1.00
C561   C     0.62371   0.49990   0.24685   0.00000  Uiso   1.00
C562   C     0.37596   0.50016   0.24674   0.00000  Uiso   1.00
C563   C     0.48778   0.35550   0.21302   0.00000  Uiso   1.00
C564   C     0.51112   0.64365   0.28798   0.00000  Uiso   1.00
C565   C     0.51445   0.36030   0.28724   0.00000  Uiso   1.00
C566   C     0.48086   0.64035   0.21620   0.00000  Uiso   1.00
C567   C     0.50016   0.49942   0.16452   0.00000  Uiso   1.00
C568   C     0.50032   0.50098   0.33519   0.00000  Uiso   1.00
C569   C     0.53402   0.52216   0.40784   0.00000  Uiso   1.00
C570   C     0.46542   0.48865   0.09036   0.00000  Uiso   1.00
C571   C     0.50027   0.50367   0.38332   0.00000  Uiso   1.00
C572   C     0.50081   0.49950   0.11585   0.00000  Uiso   1.00
C573   C     0.46527   0.49025   0.40433   0.00000  Uiso   1.00
C574   C     0.53569   0.51530   0.09549   0.00000  Uiso   1.00
C575   C     0.46325   0.49705   0.45091   0.00000  Uiso   1.00
C576   C     0.53514   0.52054   0.04880   0.00000  Uiso   1.00
C577   C     0.49887   0.50991   0.47624   0.00000  Uiso   1.00
C578   C     0.49931   0.50925   0.02323   0.00000  Uiso   1.00
C579   C     0.53393   0.52339   0.45467   0.00000  Uiso   1.00
C580   C     0.46386   0.49652   0.04441   0.00000  Uiso   1.00
C581   C     0.42657   0.49233   0.47297   0.00000  Uiso   1.00
C582   C     0.56910   0.53727   0.02691   0.00000  Uiso   1.00
Cu583  Cu    0.50000   0.54689   0.25000   0.00000  Uiso   1.00
Cu584  Cu    0.50000   0.45311   0.25000   0.00000  Uiso   1.00
H585   H     0.39885   0.48714   0.03535   0.00000  Uiso   1.00
H586   H     0.59513   0.54906   0.46417   0.00000  Uiso   1.00
N587   N     0.50000   0.61736   0.25000   0.00000  Uiso   1.00
N588   N     0.50000   0.38264   0.25000   0.00000  Uiso   1.00
O589   O     0.43988   0.53958   0.25000   0.00000  Uiso   1.00
O590   O     0.56012   0.46042   0.25000   0.00000  Uiso   1.00
O591   O     0.56012   0.53958   0.25000   0.00000  Uiso   1.00
O592   O     0.43988   0.46042   0.25000   0.00000  Uiso   1.00
O593   O     0.49999   0.53960   0.18513   0.00000  Uiso   1.00
O594   O     0.50001   0.46040   0.31487   0.00000  Uiso   1.00
O595   O     0.50001   0.53960   0.31487   0.00000  Uiso   1.00
O596   O     0.49999   0.46040   0.18513   0.00000  Uiso   1.00
O597   O     0.56467   0.54378   0.38624   0.00000  Uiso   1.00
C598   C     0.59392   0.51117   0.37305   0.00000  Uiso   1.00
H599   H     0.61922   0.52944   0.35815   0.00000  Uiso   1.00
H600   H     0.58126   0.48653   0.34699   0.00000  Uiso   1.00
H601   H     0.60677   0.49265   0.40201   0.00000  Uiso   1.00
O602   O     0.43205   0.47198   0.11117   0.00000  Uiso   1.00
C603   C     0.42298   0.42671   0.09457   0.00000  Uiso   1.00
H604   H     0.44067   0.41382   0.06563   0.00000  Uiso   1.00
H605   H     0.42887   0.40288   0.12133   0.00000  Uiso   1.00
H606   H     0.39027   0.42456   0.08490   0.00000  Uiso   1.00
O607   O     0.43190   0.47523   0.37836   0.00000  Uiso   1.00
C608   C     0.43065   0.42680   0.37792   0.00000  Uiso   1.00
H609   H     0.45815   0.41133   0.36329   0.00000  Uiso   1.00
H610   H     0.40415   0.41497   0.35671   0.00000  Uiso   1.00
H611   H     0.42691   0.41394   0.41191   0.00000  Uiso   1.00
O612   O     0.56998   0.52666   0.12159   0.00000  Uiso   1.00
C613   C     0.59365   0.48675   0.12732   0.00000  Uiso   1.00
H614   H     0.59386   0.46331   0.09693   0.00000  Uiso   1.00
H615   H     0.58327   0.46831   0.15630   0.00000  Uiso   1.00
H616   H     0.62556   0.49695   0.13483   0.00000  Uiso   1.00
O617   O     0.38988   0.48640   0.44972   0.00000  Uiso   1.00
C618   C     0.37161   0.52987   0.44551   0.00000  Uiso   1.00
H619   H     0.34271   0.52545   0.42581   0.00000  Uiso   1.00
H620   H     0.39105   0.55336   0.42723   0.00000  Uiso   1.00
H621   H     0.36433   0.54563   0.47873   0.00000  Uiso   1.00
O622   O     0.60445   0.54966   0.05059   0.00000  Uiso   1.00
C623   C     0.60879   0.59782   0.05077   0.00000  Uiso   1.00
H624   H     0.63469   0.60787   0.07373   0.00000  Uiso   1.00
H625   H     0.58130   0.61578   0.06315   0.00000  Uiso   1.00
H626   H     0.61583   0.60941   0.01707   0.00000  Uiso   1.00
O627   O     0.37344   0.41651   0.23895   0.00000  Uiso   1.00
C628   C     0.38014   0.40666   0.19328   0.00000  Uiso   1.00
H629   H     0.40316   0.37900   0.19149   0.00000  Uiso   1.00
H630   H     0.39253   0.43685   0.17696   0.00000  Uiso   1.00
C631   C     0.34198   0.38926   0.16756   0.00000  Uiso   1.00
H632   H     0.65404   0.41804   0.16154   0.00000  Uiso   1.00
H633   H     0.35008   0.37363   0.13470   0.00000  Uiso   1.00
H634   H     0.66010   0.36310   0.18665   0.00000  Uiso   1.00
O635   O     0.62404   0.58185   0.23637   0.00000  Uiso   1.00
C636   C     0.63053   0.59688   0.19299   0.00000  Uiso   1.00
H637   H     0.63513   0.56825   0.16794   0.00000  Uiso   1.00
H638   H     0.65762   0.61924   0.19378   0.00000  Uiso   1.00
C639   C     0.59395   0.62416   0.17717   0.00000  Uiso   1.00
H640   H     0.58927   0.65475   0.19960   0.00000  Uiso   1.00
H641   H     0.59870   0.63586   0.14308   0.00000  Uiso   1.00
H642   H     0.56650   0.60222   0.17663   0.00000  Uiso   1.00
O643   O     0.62601   0.41668   0.24785   0.00000  Uiso   1.00
C644   C     0.63059   0.39946   0.29093   0.00000  Uiso   1.00
H645   H     0.60896   0.41740   0.31278   0.00000  Uiso   1.00
H646   H     0.66176   0.40395   0.30615   0.00000  Uiso   1.00
C647   C     0.62158   0.34849   0.28823   0.00000  Uiso   1.00
H648   H     0.64072   0.66481   0.26318   0.00000  Uiso   1.00
H649   H     0.62750   0.33357   0.32127   0.00000  Uiso   1.00
H650   H     0.58998   0.34201   0.27687   0.00000  Uiso   1.00
O651   O     0.37394   0.58347   0.24818   0.00000  Uiso   1.00
C652   C     0.37232   0.60337   0.29177   0.00000  Uiso   1.00
H653   H     0.38998   0.58247   0.31580   0.00000  Uiso   1.00
H654   H     0.34078   0.60589   0.30338   0.00000  Uiso   1.00
C655   C     0.38984   0.65150   0.29186   0.00000  Uiso   1.00
H656   H     0.37323   0.33854   0.26704   0.00000  Uiso   1.00
H657   H     0.38790   0.33525   0.32549   0.00000  Uiso   1.00
H658   H     0.42162   0.65022   0.28171   0.00000  Uiso   1.00
O659   O     0.48085   0.37562   0.17251   0.00000  Uiso   1.00
C660   C     0.50552   0.35497   0.13912   0.00000  Uiso   1.00
H661   H     0.48693   0.34970   0.10772   0.00000  Uiso   1.00
H662   H     0.51854   0.65445   0.14714   0.00000  Uiso   1.00
C663   C     0.54119   0.38531   0.12982   0.00000  Uiso   1.00
H664   H     0.53029   0.41641   0.11344   0.00000  Uiso   1.00
H665   H     0.55838   0.39435   0.16148   0.00000  Uiso   1.00
H666   H     0.56171   0.36682   0.10666   0.00000  Uiso   1.00
O667   O     0.51340   0.62238   0.32830   0.00000  Uiso   1.00
C668   C     0.47524   0.62676   0.34867   0.00000  Uiso   1.00
H669   H     0.45379   0.60131   0.33304   0.00000  Uiso   1.00
H670   H     0.46161   0.66148   0.34513   0.00000  Uiso   1.00
C671   C     0.47935   0.61858   0.39871   0.00000  Uiso   1.00
H672   H     0.46479   0.64704   0.41810   0.00000  Uiso   1.00
H673   H     0.46378   0.58644   0.40645   0.00000  Uiso   1.00
H674   H     0.51166   0.61675   0.41018   0.00000  Uiso   1.00
O675   O     0.53614   0.38741   0.32010   0.00000  Uiso   1.00
C676   C     0.54516   0.36741   0.36159   0.00000  Uiso   1.00
H677   H     0.56458   0.33650   0.35760   0.00000  Uiso   1.00
H678   H     0.51688   0.36101   0.37852   0.00000  Uiso   1.00
C679   C     0.56823   0.40022   0.39400   0.00000  Uiso   1.00
H680   H     0.55102   0.43243   0.39841   0.00000  Uiso   1.00
H681   H     0.57149   0.38459   0.42709   0.00000  Uiso   1.00
H682   H     0.59910   0.40713   0.38291   0.00000  Uiso   1.00
O683   O     0.44296   0.62441   0.20076   0.00000  Uiso   1.00
C684   C     0.44257   0.60283   0.15766   0.00000  Uiso   1.00
H685   H     0.43348   0.56649   0.16072   0.00000  Uiso   1.00
H686   H     0.47186   0.60300   0.14086   0.00000  Uiso   1.00
C687   C     0.40998   0.62405   0.12789   0.00000  Uiso   1.00
H688   H     0.41719   0.66034   0.12271   0.00000  Uiso   1.00
H689   H     0.40824   0.60517   0.09491   0.00000  Uiso   1.00
H690   H     0.38009   0.62208   0.14341   0.00000  Uiso   1.00
C691   C     0.75415   0.50005   0.24903   0.00000  Uiso   1.00
C692   C     0.91242   0.49993   0.24902   0.00000  Uiso   1.00
C693   C     0.76061   0.49191   0.01931   0.00000  Uiso   1.00
C694   C     0.90152   0.53806   0.48024   0.00000  Uiso   1.00
C695   C     0.68756   0.45848   0.24368   0.00000  Uiso   1.00
C696   C     0.97826   0.54129   0.24276   0.00000  Uiso   1.00
C697   C     0.97893   0.45845   0.24771   0.00000  Uiso   1.00
C698   C     0.68742   0.54181   0.24693   0.00000  Uiso   1.00
C699   C     0.95704   0.49990   0.24685   0.00000  Uiso   1.00
C700   C     0.70929   0.50016   0.24674   0.00000  Uiso   1.00
C701   C     0.82111   0.35550   0.21302   0.00000  Uiso   1.00
C702   C     0.84445   0.64365   0.28798   0.00000  Uiso   1.00
C703   C     0.84778   0.36030   0.28724   0.00000  Uiso   1.00
C704   C     0.81419   0.64035   0.21620   0.00000  Uiso   1.00
C705   C     0.83349   0.49942   0.16452   0.00000  Uiso   1.00
C706   C     0.83365   0.50098   0.33519   0.00000  Uiso   1.00
C707   C     0.86735   0.52216   0.40784   0.00000  Uiso   1.00
C708   C     0.79876   0.48865   0.09036   0.00000  Uiso   1.00
C709   C     0.83361   0.50367   0.38332   0.00000  Uiso   1.00
C710   C     0.83414   0.49950   0.11585   0.00000  Uiso   1.00
C711   C     0.79861   0.49025   0.40433   0.00000  Uiso   1.00
C712   C     0.86903   0.51530   0.09549   0.00000  Uiso   1.00
C713   C     0.79658   0.49705   0.45091   0.00000  Uiso   1.00
C714   C     0.86847   0.52054   0.04880   0.00000  Uiso   1.00
C715   C     0.83220   0.50991   0.47624   0.00000  Uiso   1.00
C716   C     0.83264   0.50925   0.02323   0.00000  Uiso   1.00
C717   C     0.86726   0.52339   0.45467   0.00000  Uiso   1.00
C718   C     0.79720   0.49652   0.04441   0.00000  Uiso   1.00
C719   C     0.75990   0.49233   0.47297   0.00000  Uiso   1.00
C720   C     0.90243   0.53727   0.02691   0.00000  Uiso   1.00
Cu721  Cu    0.83333   0.54689   0.25000   0.00000  Uiso   1.00
Cu722  Cu    0.83333   0.45311   0.25000   0.00000  Uiso   1.00
H723   H     0.73218   0.48714   0.03535   0.00000  Uiso   1.00
H724   H     0.92846   0.54906   0.46417   0.00000  Uiso   1.00
N725   N     0.83333   0.61736   0.25000   0.00000  Uiso   1.00
N726   N     0.83333   0.38264   0.25000   0.00000  Uiso   1.00
O727   O     0.77321   0.53958   0.25000   0.00000  Uiso   1.00
O728   O     0.89345   0.46042   0.25000   0.00000  Uiso   1.00
O729   O     0.89345   0.53958   0.25000   0.00000  Uiso   1.00
O730   O     0.77321   0.46042   0.25000   0.00000  Uiso   1.00
O731   O     0.83332   0.53960   0.18513   0.00000  Uiso   1.00
O732   O     0.83334   0.46040   0.31487   0.00000  Uiso   1.00
O733   O     0.83334   0.53960   0.31487   0.00000  Uiso   1.00
O734   O     0.83332   0.46040   0.18513   0.00000  Uiso   1.00
O735   O     0.89800   0.54378   0.38624   0.00000  Uiso   1.00
C736   C     0.92725   0.51117   0.37305   0.00000  Uiso   1.00
H737   H     0.95255   0.52944   0.35815   0.00000  Uiso   1.00
H738   H     0.91459   0.48653   0.34699   0.00000  Uiso   1.00
H739   H     0.94010   0.49265   0.40201   0.00000  Uiso   1.00
O740   O     0.76539   0.47198   0.11117   0.00000  Uiso   1.00
C741   C     0.75632   0.42671   0.09457   0.00000  Uiso   1.00
H742   H     0.77401   0.41382   0.06563   0.00000  Uiso   1.00
H743   H     0.76221   0.40288   0.12133   0.00000  Uiso   1.00
H744   H     0.72361   0.42456   0.08490   0.00000  Uiso   1.00
O745   O     0.76524   0.47523   0.37836   0.00000  Uiso   1.00
C746   C     0.76398   0.42680   0.37792   0.00000  Uiso   1.00
H747   H     0.79148   0.41133   0.36329   0.00000  Uiso   1.00
H748   H     0.73748   0.41497   0.35671   0.00000  Uiso   1.00
H749   H     0.76024   0.41394   0.41191   0.00000  Uiso   1.00
O750   O     0.90331   0.52666   0.12159   0.00000  Uiso   1.00
C751   C     0.92699   0.48675   0.12732   0.00000  Uiso   1.00
H752   H     0.92719   0.46331   0.09693   0.00000  Uiso   1.00
H753   H     0.91660   0.46831   0.15630   0.00000  Uiso   1.00
H754   H     0.95889   0.49695   0.13483   0.00000  Uiso   1.00
O755   O     0.72322   0.48640   0.44972   0.00000  Uiso   1.00
C756   C     0.70495   0.52987   0.44551   0.00000  Uiso   1.00
H757   H     0.67604   0.52545   0.42581   0.00000  Uiso   1.00
H758   H     0.72438   0.55336   0.42723   0.00000  Uiso   1.00
H759   H     0.69766   0.54563   0.47873   0.00000  Uiso   1.00
O760   O     0.93778   0.54966   0.05059   0.00000  Uiso   1.00
C761   C     0.94212   0.59782   0.05077   0.00000  Uiso   1.00
H762   H     0.96802   0.60787   0.07373   0.00000  Uiso   1.00
H763   H     0.91463   0.61578   0.06315   0.00000  Uiso   1.00
H764   H     0.94916   0.60941   0.01707   0.00000  Uiso   1.00
O765   O     0.70678   0.41651   0.23895   0.00000  Uiso   1.00
C766   C     0.71347   0.40666   0.19328   0.00000  Uiso   1.00
H767   H     0.73650   0.37900   0.19149   0.00000  Uiso   1.00
H768   H     0.72586   0.43685   0.17696   0.00000  Uiso   1.00
C769   C     0.67531   0.38926   0.16756   0.00000  Uiso   1.00
H770   H     0.98737   0.41804   0.16154   0.00000  Uiso   1.00
H771   H     0.68342   0.37363   0.13470   0.00000  Uiso   1.00
H772   H     0.99344   0.36310   0.18665   0.00000  Uiso   1.00
O773   O     0.95737   0.58185   0.23637   0.00000  Uiso   1.00
C774   C     0.96386   0.59688   0.19299   0.00000  Uiso   1.00
H775   H     0.96847   0.56825   0.16794   0.00000  Uiso   1.00
H776   H     0.99095   0.61924   0.19378   0.00000  Uiso   1.00
C777   C     0.92728   0.62416   0.17717   0.00000  Uiso   1.00
H778   H     0.92261   0.65475   0.19960   0.00000  Uiso   1.00
H779   H     0.93203   0.63586   0.14308   0.00000  Uiso   1.00
H780   H     0.89983   0.60222   0.17663   0.00000  Uiso   1.00
O781   O     0.95934   0.41668   0.24785   0.00000  Uiso   1.00
C782   C     0.96392   0.39946   0.29093   0.00000  Uiso   1.00
H783   H     0.94230   0.41740   0.31278   0.00000  Uiso   1.00
H784   H     0.99509   0.40395   0.30615   0.00000  Uiso   1.00
C785   C     0.95492   0.34849   0.28823   0.00000  Uiso   1.00
H786   H     0.97405   0.66481   0.26318   0.00000  Uiso   1.00
H787   H     0.96083   0.33357   0.32127   0.00000  Uiso   1.00
H788   H     0.92332   0.34201   0.27687   0.00000  Uiso   1.00
O789   O     0.70727   0.58347   0.24818   0.00000  Uiso   1.00
C790   C     0.70565   0.60337   0.29177   0.00000  Uiso   1.00
H791   H     0.72331   0.58247   0.31580   0.00000  Uiso   1.00
H792   H     0.67411   0.60589   0.30338   0.00000  Uiso   1.00
C793   C     0.72318   0.65150   0.29186   0.00000  Uiso   1.00
H794   H     0.70656   0.33854   0.26704   0.00000  Uiso   1.00
H795   H     0.72124   0.33525   0.32549   0.00000  Uiso   1.00
H796   H     0.75495   0.65022   0.28171   0.00000  Uiso   1.00
O797   O     0.81418   0.37562   0.17251   0.00000  Uiso   1.00
C798   C     0.83885   0.35497   0.13912   0.00000  Uiso   1.00
H799   H     0.82027   0.34970   0.10772   0.00000  Uiso   1.00
H800   H     0.85187   0.65445   0.14714   0.00000  Uiso   1.00
C801   C     0.87453   0.38531   0.12982   0.00000  Uiso   1.00
H802   H     0.86362   0.41641   0.11344   0.00000  Uiso   1.00
H803   H     0.89171   0.39435   0.16148   0.00000  Uiso   1.00
H804   H     0.89504   0.36682   0.10666   0.00000  Uiso   1.00
O805   O     0.84673   0.62238   0.32830   0.00000  Uiso   1.00
C806   C     0.80857   0.62676   0.34867   0.00000  Uiso   1.00
H807   H     0.78712   0.60131   0.33304   0.00000  Uiso   1.00
H808   H     0.79494   0.66148   0.34513   0.00000  Uiso   1.00
C809   C     0.81269   0.61858   0.39871   0.00000  Uiso   1.00
H810   H     0.79812   0.64704   0.41810   0.00000  Uiso   1.00
H811   H     0.79711   0.58644   0.40645   0.00000  Uiso   1.00
H812   H     0.84499   0.61675   0.41018   0.00000  Uiso   1.00
O813   O     0.86948   0.38741   0.32010   0.00000  Uiso   1.00
C814   C     0.87850   0.36741   0.36159   0.00000  Uiso   1.00
H815   H     0.89791   0.33650   0.35760   0.00000  Uiso   1.00
H816   H     0.85021   0.36101   0.37852   0.00000  Uiso   1.00
C817   C     0.90157   0.40022   0.39400   0.00000  Uiso   1.00
H818   H     0.88436   0.43243   0.39841   0.00000  Uiso   1.00
H819   H     0.90482   0.38459   0.42709   0.00000  Uiso   1.00
H820   H     0.93243   0.40713   0.38291   0.00000  Uiso   1.00
O821   O     0.77629   0.62441   0.20076   0.00000  Uiso   1.00
C822   C     0.77590   0.60283   0.15766   0.00000  Uiso   1.00
H823   H     0.76681   0.56649   0.16072   0.00000  Uiso   1.00
H824   H     0.80519   0.60300   0.14086   0.00000  Uiso   1.00
C825   C     0.74331   0.62405   0.12789   0.00000  Uiso   1.00
H826   H     0.75052   0.66034   0.12271   0.00000  Uiso   1.00
H827   H     0.74157   0.60517   0.09491   0.00000  Uiso   1.00
H828   H     0.71342   0.62208   0.14341   0.00000  Uiso   1.00
C829   C     0.08748   0.83338   0.24903   0.00000  Uiso   1.00
C830   C     0.24575   0.83327   0.24902   0.00000  Uiso   1.00
C831   C     0.09394   0.82524   0.01931   0.00000  Uiso   1.00
C832   C     0.23486   0.87140   0.48024   0.00000  Uiso   1.00
C833   C     0.02089   0.79182   0.24368   0.00000  Uiso   1.00
C834   C     0.31160   0.87462   0.24276   0.00000  Uiso   1.00
C835   C     0.31226   0.79178   0.24771   0.00000  Uiso   1.00
C836   C     0.02075   0.87514   0.24693   0.00000  Uiso   1.00
C837   C     0.29037   0.83323   0.24685   0.00000  Uiso   1.00
C838   C     0.04262   0.83349   0.24674   0.00000  Uiso   1.00
C839   C     0.15445   0.68883   0.21302   0.00000  Uiso   1.00
C840   C     0.17779   0.97698   0.28798   0.00000  Uiso   1.00
C841   C     0.18111   0.69363   0.28724   0.00000  Uiso   1.00
C842   C     0.14753   0.97369   0.21620   0.00000  Uiso   1.00
C843   C     0.16683   0.83275   0.16452   0.00000  Uiso   1.00
C844   C     0.16699   0.83431   0.33519   0.00000  Uiso   1.00
C845   C     0.20069   0.85549   0.40784   0.00000  Uiso   1.00
C846   C     0.13209   0.82198   0.09036   0.00000  Uiso   1.00
C847   C     0.16694   0.83700   0.38332   0.00000  Uiso   1.00
C848   C     0.16747   0.83283   0.11585   0.00000  Uiso   1.00
C849   C     0.13194   0.82358   0.40433   0.00000  Uiso   1.00
C850   C     0.20236   0.84863   0.09549   0.00000  Uiso   1.00
C851   C     0.12992   0.83039   0.45091   0.00000  Uiso   1.00
C852   C     0.20180   0.85387   0.04880   0.00000  Uiso   1.00
C853   C     0.16553   0.84325   0.47624   0.00000  Uiso   1.00
C854   C     0.16597   0.84258   0.02323   0.00000  Uiso   1.00
C855   C     0.20059   0.85672   0.45467   0.00000  Uiso   1.00
C856   C     0.13053   0.82985   0.04441   0.00000  Uiso   1.00
C857   C     0.09324   0.82566   0.47297   0.00000  Uiso   1.00
C858   C     0.23576   0.87060   0.02691   0.00000  Uiso   1.00
Cu859  Cu    0.16667   0.88022   0.25000   0.00000  Uiso   1.00
Cu860  Cu    0.16667   0.78645   0.25000   0.00000  Uiso   1.00
H861   H     0.06552   0.82048   0.03535   0.00000  Uiso   1.00
H862   H     0.26179   0.88239   0.46417   0.00000  Uiso   1.00
N863   N     0.16667   0.95069   0.25000   0.00000  Uiso   1.00
N864   N     0.16667   0.71598   0.25000   0.00000  Uiso   1.00
O865   O     0.10655   0.87291   0.25000   0.00000  Uiso   1.00
O866   O     0.22679   0.79375   0.25000   0.00000  Uiso   1.00
O867   O     0.22679   0.87291   0.25000   0.00000  Uiso   1.00
O868   O     0.10655   0.79375   0.25000   0.00000  Uiso   1.00
O869   O     0.16666   0.87293   0.18513   0.00000  Uiso   1.00
O870   O     0.16668   0.79373   0.31487   0.00000  Uiso   1.00
O871   O     0.16668   0.87293   0.31487   0.00000  Uiso   1.00
O872   O     0.16666   0.79373   0.18513   0.00000  Uiso   1.00
O873   O     0.23134   0.87711   0.38624   0.00000  Uiso   1.00
C874   C     0.26059   0.84450   0.37305   0.00000  Uiso   1.00
H875   H     0.28588   0.86277   0.35815   0.00000  Uiso   1.00
H876   H     0.24792   0.81986   0.34699   0.00000  Uiso   1.00
H877   H     0.27344   0.82598   0.40201   0.00000  Uiso   1.00
O878   O     0.09872   0.80531   0.11117   0.00000  Uiso   1.00
C879   C     0.08965   0.76004   0.09457   0.00000  Uiso   1.00
H880   H     0.10734   0.74715   0.06563   0.00000  Uiso   1.00
H881   H     0.09554   0.73622   0.12133   0.00000  Uiso   1.00
H882   H     0.05694   0.75789   0.08490   0.00000  Uiso   1.00
O883   O     0.09857   0.80856   0.37836   0.00000  Uiso   1.00
C884   C     0.09731   0.76013   0.37792   0.00000  Uiso   1.00
H885   H     0.12482   0.74466   0.36329   0.00000  Uiso   1.00
H886   H     0.07081   0.74831   0.35671   0.00000  Uiso   1.00
H887   H     0.09358   0.74727   0.41191   0.00000  Uiso   1.00
O888   O     0.23664   0.85999   0.12159   0.00000  Uiso   1.00
C889   C     0.26032   0.82009   0.12732   0.00000  Uiso   1.00
H890   H     0.26052   0.79664   0.09693   0.00000  Uiso   1.00
H891   H     0.24993   0.80165   0.15630   0.00000  Uiso   1.00
H892   H     0.29222   0.83028   0.13483   0.00000  Uiso   1.00
O893   O     0.05655   0.81973   0.44972   0.00000  Uiso   1.00
C894   C     0.03828   0.86321   0.44551   0.00000  Uiso   1.00
H895   H     0.00937   0.85879   0.42581   0.00000  Uiso   1.00
H896   H     0.05771   0.88669   0.42723   0.00000  Uiso   1.00
H897   H     0.03100   0.87897   0.47873   0.00000  Uiso   1.00
O898   O     0.27111   0.88299   0.05059   0.00000  Uiso   1.00
C899   C     0.27546   0.93115   0.05077   0.00000  Uiso   1.00
H900   H     0.30135   0.94121   0.07373   0.00000  Uiso   1.00
H901   H     0.24797   0.94912   0.06315   0.00000  Uiso   1.00
H902   H     0.28250   0.94274   0.01707   0.00000  Uiso   1.00
O903   O     0.04011   0.74984   0.23895   0.00000  Uiso   1.00
C904   C     0.04680   0.73999   0.19328   0.00000  Uiso   1.00
H905   H     0.06983   0.71234   0.19149   0.00000  Uiso   1.00
H906   H     0.05919   0.77019   0.17696   0.00000  Uiso   1.00
C907   C     0.00865   0.72260   0.16756   0.00000  Uiso   1.00
H908   H     0.32070   0.75137   0.16154   0.00000  Uiso   1.00
H909   H     0.01675   0.70697   0.13470   0.00000  Uiso   1.00
H910   H     0.32677   0.69644   0.18665   0.00000  Uiso   1.00
O911   O     0.29070   0.91518   0.23637   0.00000  Uiso   1.00
C912   C     0.29720   0.93021   0.19299   0.00000  Uiso   1.00
H913   H     0.30180   0.90159   0.16794   0.00000  Uiso   1.00
H914   H     0.32429   0.95258   0.19378   0.00000  Uiso   1.00
C915   C     0.26061   0.95749   0.17717   0.00000  Uiso   1.00
H916   H     0.25594   0.98809   0.19960   0.00000  Uiso   1.00
H917   H     0.26536   0.96920   0.14308   0.00000  Uiso   1.00
H918   H     0.23316   0.93555   0.17663   0.00000  Uiso   1.00
O919   O     0.29267   0.75002   0.24785   0.00000  Uiso   1.00
C920   C     0.29725   0.73279   0.29093   0.00000  Uiso   1.00
H921   H     0.27563   0.75073   0.31278   0.00000  Uiso   1.00
H922   H     0.32842   0.73729   0.30615   0.00000  Uiso   1.00
C923   C     0.28825   0.68182   0.28823   0.00000  Uiso   1.00
H924   H     0.30738   0.99814   0.26318   0.00000  Uiso   1.00
H925   H     0.29417   0.66690   0.32127   0.00000  Uiso   1.00
H926   H     0.25665   0.67534   0.27687   0.00000  Uiso   1.00
O927   O     0.04061   0.91680   0.24818   0.00000  Uiso   1.00
C928   C     0.03899   0.93670   0.29177   0.00000  Uiso   1.00
H929   H     0.05664   0.91581   0.31580   0.00000  Uiso   1.00
H930   H     0.00745   0.93923   0.30338   0.00000  Uiso   1.00
C931   C     0.05651   0.98483   0.29186   0.00000  Uiso   1.00
H932   H     0.03990   0.67187   0.26704   0.00000  Uiso   1.00
H933   H     0.05457   0.66858   0.32549   0.00000  Uiso   1.00
H934   H     0.08828   0.98356   0.28171   0.00000  Uiso   1.00
O935   O     0.14751   0.70895   0.17251   0.00000  Uiso   1.00
C936   C     0.17218   0.68830   0.13912   0.00000  Uiso   1.00
H937   H     0.15360   0.68303   0.10772   0.00000  Uiso   1.00
H938   H     0.18520   0.98778   0.14714   0.00000  Uiso   1.00
C939   C     0.20786   0.71864   0.12982   0.00000  Uiso   1.00
H940   H     0.19696   0.74975   0.11344   0.00000  Uiso   1.00
H941   H     0.22505   0.72769   0.16148   0.00000  Uiso   1.00
H942   H     0.22837   0.70015   0.10666   0.00000  Uiso   1.00
O943   O     0.18007   0.95572   0.32830   0.00000  Uiso   1.00
C944   C     0.14191   0.96010   0.34867   0.00000  Uiso   1.00
H945   H     0.12046   0.93464   0.33304   0.00000  Uiso   1.00
H946   H     0.12828   0.99481   0.34513   0.00000  Uiso   1.00
C947   C     0.14602   0.95192   0.39871   0.00000  Uiso   1.00
H948   H     0.13146   0.98037   0.41810   0.00000  Uiso   1.00
H949   H     0.13045   0.91977   0.40645   0.00000  Uiso   1.00
H950   H     0.17832   0.95008   0.41018   0.00000  Uiso   1.00
O951   O     0.20281   0.72075   0.32010   0.00000  Uiso   1.00
C952   C     0.21183   0.70075   0.36159   0.00000  Uiso   1.00
H953   H     0.23124   0.66984   0.35760   0.00000  Uiso   1.00
H954   H     0.18355   0.69435   0.37852   0.00000  Uiso   1.00
C955   C     0.23490   0.73355   0.39400   0.00000  Uiso   1.00
H956   H     0.21769   0.76576   0.39841   0.00000  Uiso   1.00
H957   H     0.23815   0.71792   0.42709   0.00000  Uiso   1.00
H958   H     0.26577   0.74046   0.38291   0.00000  Uiso   1.00
O959   O     0.10962   0.95774   0.20076   0.00000  Uiso   1.00
C960   C     0.10923   0.93616   0.15766   0.00000  Uiso   1.00
H961   H     0.10014   0.89983   0.16072   0.00000  Uiso   1.00
H962   H     0.13853   0.93633   0.14086   0.00000  Uiso   1.00
C963   C     0.07665   0.95738   0.12789   0.00000  Uiso   1.00
H964   H     0.08385   0.99368   0.12271   0.00000  Uiso   1.00
H965   H     0.07490   0.93850   0.09491   0.00000  Uiso   1.00
H966   H     0.04676   0.95541   0.14341   0.00000  Uiso   1.00
C967   C     0.42081   0.83338   0.24903   0.00000  Uiso   1.00
C968   C     0.57908   0.83327   0.24902   0.00000  Uiso   1.00
C969   C     0.42727   0.82524   0.01931   0.00000  Uiso   1.00
C970   C     0.56819   0.87140   0.48024   0.00000  Uiso   1.00
C971   C     0.35422   0.79182   0.24368   0.00000  Uiso   1.00
C972   C     0.64493   0.87462   0.24276   0.00000  Uiso   1.00
C973   C     0.64560   0.79178   0.24771   0.00000  Uiso   1.00
C974   C     0.35409   0.87514   0.24693   0.00000  Uiso   1.00
C975   C     0.62371   0.83323   0.24685   0.00000  Uiso   1.00
C976   C     0.37596   0.83349   0.24674   0.00000  Uiso   1.00
C977   C     0.48778   0.68883   0.21302   0.00000  Uiso   1.00
C978   C     0.51112   0.97698   0.28798   0.00000  Uiso   1.00
C979   C     0.51445   0.69363   0.28724   0.00000  Uiso   1.00
C980   C     0.48086   0.97369   0.21620   0.00000  Uiso   1.00
C981   C     0.50016   0.83275   0.16452   0.00000  Uiso   1.00
C982   C     0.50032   0.83431   0.33519   0.00000  Uiso   1.00
C983   C     0.53402   0.85549   0.40784   0.00000  Uiso   1.00
C984   C     0.46542   0.82198   0.09036   0.00000  Uiso   1.00
C985   C     0.50027   0.83700   0.38332   0.00000  Uiso   1.00
C986   C     0.50081   0.83283   0.11585   0.00000  Uiso   1.00
C987   C     0.46527   0.82358   0.40433   0.00000  Uiso   1.00
C988   C     0.53569   0.84863   0.09549   0.00000  Uiso   1.00
C989   C     0.46325   0.83039   0.45091   0.00000  Uiso   1.00
C990   C     0.53514   0.85387   0.04880   0.00000  Uiso   1.00
C991   C     0.49887   0.84325   0.47624   0.00000  Uiso   1.00
C992   C     0.49931   0.84258   0.02323   0.00000  Uiso   1.00
C993   C     0.53393   0.85672   0.45467   0.00000  Uiso   1.00
C994   C     0.46386   0.82985   0.04441   0.00000  Uiso   1.00
C995   C     0.42657   0.82566   0.47297   0.00000  Uiso   1.00
C996   C     0.56910   0.87060   0.02691   0.00000  Uiso   1.00
Cu997  Cu    0.50000   0.88022   0.25000   0.00000  Uiso   1.00
Cu998  Cu    0.50000   0.78645   0.25000   0.00000  Uiso   1.00
H999   H     0.39885   0.82048   0.03535   0.00000  Uiso   1.00
H1000  H     0.59513   0.88239   0.46417   0.00000  Uiso   1.00
N1001  N     0.50000   0.95069   0.25000   0.00000  Uiso   1.00
N1002  N     0.50000   0.71598   0.25000   0.00000  Uiso   1.00
O1003  O     0.43988   0.87291   0.25000   0.00000  Uiso   1.00
O1004  O     0.56012   0.79375   0.25000   0.00000  Uiso   1.00
O1005  O     0.56012   0.87291   0.25000   0.00000  Uiso   1.00
O1006  O     0.43988   0.79375   0.25000   0.00000  Uiso   1.00
O1007  O     0.49999   0.87293   0.18513   0.00000  Uiso   1.00
O1008  O     0.50001   0.79373   0.31487   0.00000  Uiso   1.00
O1009  O     0.50001   0.87293   0.31487   0.00000  Uiso   1.00
O1010  O     0.49999   0.79373   0.18513   0.00000  Uiso   1.00
O1011  O     0.56467   0.87711   0.38624   0.00000  Uiso   1.00
C1012  C     0.59392   0.84450   0.37305   0.00000  Uiso   1.00
H1013  H     0.61922   0.86277   0.35815   0.00000  Uiso   1.00
H1014  H     0.58126   0.81986   0.34699   0.00000  Uiso   1.00
H1015  H     0.60677   0.82598   0.40201   0.00000  Uiso   1.00
O1016  O     0.43205   0.80531   0.11117   0.00000  Uiso   1.00
C1017  C     0.42298   0.76004   0.09457   0.00000  Uiso   1.00
H1018  H     0.44067   0.74715   0.06563   0.00000  Uiso   1.00
H1019  H     0.42887   0.73622   0.12133   0.00000  Uiso   1.00
H1020  H     0.39027   0.75789   0.08490   0.00000  Uiso   1.00
O1021  O     0.43190   0.80856   0.37836   0.00000  Uiso   1.00
C1022  C     0.43065   0.76013   0.37792   0.00000  Uiso   1.00
H1023  H     0.45815   0.74466   0.36329   0.00000  Uiso   1.00
H1024  H     0.40415   0.74831   0.35671   0.00000  Uiso   1.00
H1025  H     0.42691   0.74727   0.41191   0.00000  Uiso   1.00
O1026  O     0.56998   0.85999   0.12159   0.00000  Uiso   1.00
C1027  C     0.59365   0.82009   0.12732   0.00000  Uiso   1.00
H1028  H     0.59386   0.79664   0.09693   0.00000  Uiso   1.00
H1029  H     0.58327   0.80165   0.15630   0.00000  Uiso   1.00
H1030  H     0.62556   0.83028   0.13483   0.00000  Uiso   1.00
O1031  O     0.38988   0.81973   0.44972   0.00000  Uiso   1.00
C1032  C     0.37161   0.86321   0.44551   0.00000  Uiso   1.00
H1033  H     0.34271   0.85879   0.42581   0.00000  Uiso   1.00
H1034  H     0.39105   0.88669   0.42723   0.00000  Uiso   1.00
H1035  H     0.36433   0.87897   0.47873   0.00000  Uiso   1.00
O1036  O     0.60445   0.88299   0.05059   0.00000  Uiso   1.00
C1037  C     0.60879   0.93115   0.05077   0.00000  Uiso   1.00
H1038  H     0.63469   0.94121   0.07373   0.00000  Uiso   1.00
H1039  H     0.58130   0.94912   0.06315   0.00000  Uiso   1.00
H1040  H     0.61583   0.94274   0.01707   0.00000  Uiso   1.00
O1041  O     0.37344   0.74984   0.23895   0.00000  Uiso   1.00
C1042  C     0.38014   0.73999   0.19328   0.00000  Uiso   1.00
H1043  H     0.40316   0.71234   0.19149   0.00000  Uiso   1.00
H1044  H     0.39253   0.77019   0.17696   0.00000  Uiso   1.00
C1045  C     0.34198   0.72260   0.16756   0.00000  Uiso   1.00
H1046  H     0.65404   0.75137   0.16154   0.00000  Uiso   1.00
H1047  H     0.35008   0.70697   0.13470   0.00000  Uiso   1.00
H1048  H     0.66010   0.69644   0.18665   0.00000  Uiso   1.00
O1049  O     0.62404   0.91518   0.23637   0.00000  Uiso   1.00
C1050  C     0.63053   0.93021   0.19299   0.00000  Uiso   1.00
H1051  H     0.63513   0.90159   0.16794   0.00000  Uiso   1.00
H1052  H     0.65762   0.95258   0.19378   0.00000  Uiso   1.00
C1053  C     0.59395   0.95749   0.17717   0.00000  Uiso   1.00
H1054  H     0.58927   0.98809   0.19960   0.00000  Uiso   1.00
H1055  H     0.59870   0.96920   0.14308   0.00000  Uiso   1.00
H1056  H     0.56650   0.93555   0.17663   0.00000  Uiso   1.00
O1057  O     0.62601   0.75002   0.24785   0.00000  Uiso   1.00
C1058  C     0.63059   0.73279   0.29093   0.00000  Uiso   1.00
H1059  H     0.60896   0.75073   0.31278   0.00000  Uiso   1.00
H1060  H     0.66176   0.73729   0.30615   0.00000  Uiso   1.00
C1061  C     0.62158   0.68182   0.28823   0.00000  Uiso   1.00
H1062  H     0.64072   0.99814   0.26318   0.00000  Uiso   1.00
H1063  H     0.62750   0.66690   0.32127   0.00000  Uiso   1.00
H1064  H     0.58998   0.67534   0.27687   0.00000  Uiso   1.00
O1065  O     0.37394   0.91680   0.24818   0.00000  Uiso   1.00
C1066  C     0.37232   0.93670   0.29177   0.00000  Uiso   1.00
H1067  H     0.38998   0.91581   0.31580   0.00000  Uiso   1.00
H1068  H     0.34078   0.93923   0.30338   0.00000  Uiso   1.00
C1069  C     0.38984   0.98483   0.29186   0.00000  Uiso   1.00
H1070  H     0.37323   0.67187   0.26704   0.00000  Uiso   1.00
H1071  H     0.38790   0.66858   0.32549   0.00000  Uiso   1.00
H1072  H     0.42162   0.98356   0.28171   0.00000  Uiso   1.00
O1073  O     0.48085   0.70895   0.17251   0.00000  Uiso   1.00
C1074  C     0.50552   0.68830   0.13912   0.00000  Uiso   1.00
H1075  H     0.48693   0.68303   0.10772   0.00000  Uiso   1.00
H1076  H     0.51854   0.98778   0.14714   0.00000  Uiso   1.00
C1077  C     0.54119   0.71864   0.12982   0.00000  Uiso   1.00
H1078  H     0.53029   0.74975   0.11344   0.00000  Uiso   1.00
H1079  H     0.55838   0.72769   0.16148   0.00000  Uiso   1.00
H1080  H     0.56171   0.70015   0.10666   0.00000  Uiso   1.00
O1081  O     0.51340   0.95572   0.32830   0.00000  Uiso   1.00
C1082  C     0.47524   0.96010   0.34867   0.00000  Uiso   1.00
H1083  H     0.45379   0.93464   0.33304   0.00000  Uiso   1.00
H1084  H     0.46161   0.99481   0.34513   0.00000  Uiso   1.00
C1085  C     0.47935   0.95192   0.39871   0.00000  Uiso   1.00
H1086  H     0.46479   0.98037   0.41810   0.00000  Uiso   1.00
H1087  H     0.46378   0.91977   0.40645   0.00000  Uiso   1.00
H1088  H     0.51166   0.95008   0.41018   0.00000  Uiso   1.00
O1089  O     0.53614   0.72075   0.32010   0.00000  Uiso   1.00
C1090  C     0.54516   0.70075   0.36159   0.00000  Uiso   1.00
H1091  H     0.56458   0.66984   0.35760   0.00000  Uiso   1.00
H1092  H     0.51688   0.69435   0.37852   0.00000  Uiso   1.00
C1093  C     0.56823   0.73355   0.39400   0.00000  Uiso   1.00
H1094  H     0.55102   0.76576   0.39841   0.00000  Uiso   1.00
H1095  H     0.57149   0.71792   0.42709   0.00000  Uiso   1.00
H1096  H     0.59910   0.74046   0.38291   0.00000  Uiso   1.00
O1097  O     0.44296   0.95774   0.20076   0.00000  Uiso   1.00
C1098  C     0.44257   0.93616   0.15766   0.00000  Uiso   1.00
H1099  H     0.43348   0.89983   0.16072   0.00000  Uiso   1.00
H1100  H     0.47186   0.93633   0.14086   0.00000  Uiso   1.00
C1101  C     0.40998   0.95738   0.12789   0.00000  Uiso   1.00
H1102  H     0.41719   0.99368   0.12271   0.00000  Uiso   1.00
H1103  H     0.40824   0.93850   0.09491   0.00000  Uiso   1.00
H1104  H     0.38009   0.95541   0.14341   0.00000  Uiso   1.00
C1105  C     0.75415   0.83338   0.24903   0.00000  Uiso   1.00
C1106  C     0.91242   0.83327   0.24902   0.00000  Uiso   1.00
C1107  C     0.76061   0.82524   0.01931   0.00000  Uiso   1.00
C1108  C     0.90152   0.87140   0.48024   0.00000  Uiso   1.00
C1109  C     0.68756   0.79182   0.24368   0.00000  Uiso   1.00
C1110  C     0.97826   0.87462   0.24276   0.00000  Uiso   1.00
C1111  C     0.97893   0.79178   0.24771   0.00000  Uiso   1.00
C1112  C     0.68742   0.87514   0.24693   0.00000  Uiso   1.00
C1113  C     0.95704   0.83323   0.24685   0.00000  Uiso   1.00
C1114  C     0.70929   0.83349   0.24674   0.00000  Uiso   1.00
C1115  C     0.82111   0.68883   0.21302   0.00000  Uiso   1.00
C1116  C     0.84445   0.97698   0.28798   0.00000  Uiso   1.00
C1117  C     0.84778   0.69363   0.28724   0.00000  Uiso   1.00
C1118  C     0.81419   0.97369   0.21620   0.00000  Uiso   1.00
C1119  C     0.83349   0.83275   0.16452   0.00000  Uiso   1.00
C1120  C     0.83365   0.83431   0.33519   0.00000  Uiso   1.00
C1121  C     0.86735   0.85549   0.40784   0.00000  Uiso   1.00
C1122  C     0.79876   0.82198   0.09036   0.00000  Uiso   1.00
C1123  C     0.83361   0.83700   0.38332   0.00000  Uiso   1.00
C1124  C     0.83414   0.83283   0.11585   0.00000  Uiso   1.00
C1125  C     0.79861   0.82358   0.40433   0.00000  Uiso   1.00
C1126  C     0.86903   0.84863   0.09549   0.00000  Uiso   1.00
C1127  C     0.79658   0.83039   0.45091   0.00000  Uiso   1.00
C1128  C     0.86847   0.85387   0.04880   0.00000  Uiso   1.00
C1129  C     0.83220   0.84325   0.47624   0.00000  Uiso   1.00
C1130  C     0.83264   0.84258   0.02323   0.00000  Uiso   1.00
C1131  C     0.86726   0.85672   0.45467   0.00000  Uiso   1.00
C1132  C     0.79720   0.82985   0.04441   0.00000  Uiso   1.00
C1133  C     0.75990   0.82566   0.47297   0.00000  Uiso   1.00
C1134  C     0.90243   0.87060   0.02691   0.00000  Uiso   1.00
Cu1135 Cu    0.83333   0.88022   0.25000   0.00000  Uiso   1.00
Cu1136 Cu    0.83333   0.78645   0.25000   0.00000  Uiso   1.00
H1137  H     0.73218   0.82048   0.03535   0.00000  Uiso   1.00
H1138  H     0.92846   0.88239   0.46417   0.00000  Uiso   1.00
N1139  N     0.83333   0.95069   0.25000   0.00000  Uiso   1.00
N1140  N     0.83333   0.71598   0.25000   0.00000  Uiso   1.00
O1141  O     0.77321   0.87291   0.25000   0.00000  Uiso   1.00
O1142  O     0.89345   0.79375   0.25000   0.00000  Uiso   1.00
O1143  O     0.89345   0.87291   0.25000   0.00000  Uiso   1.00
O1144  O     0.77321   0.79375   0.25000   0.00000  Uiso   1.00
O1145  O     0.83332   0.87293   0.18513   0.00000  Uiso   1.00
O1146  O     0.83334   0.79373   0.31487   0.00000  Uiso   1.00
O1147  O     0.83334   0.87293   0.31487   0.00000  Uiso   1.00
O1148  O     0.83332   0.79373   0.18513   0.00000  Uiso   1.00
O1149  O     0.89800   0.87711   0.38624   0.00000  Uiso   1.00
C1150  C     0.92725   0.84450   0.37305   0.00000  Uiso   1.00
H1151  H     0.95255   0.86277   0.35815   0.00000  Uiso   1.00
H1152  H     0.91459   0.81986   0.34699   0.00000  Uiso   1.00
H1153  H     0.94010   0.82598   0.40201   0.00000  Uiso   1.00
O1154  O     0.76539   0.80531   0.11117   0.00000  Uiso   1.00
C1155  C     0.75632   0.76004   0.09457   0.00000  Uiso   1.00
H1156  H     0.77401   0.74715   0.06563   0.00000  Uiso   1.00
H1157  H     0.76221   0.73622   0.12133   0.00000  Uiso   1.00
H1158  H     0.72361   0.75789   0.08490   0.00000  Uiso   1.00
O1159  O     0.76524   0.80856   0.37836   0.00000  Uiso   1.00
C1160  C     0.76398   0.76013   0.37792   0.00000  Uiso   1.00
H1161  H     0.79148   0.74466   0.36329   0.00000  Uiso   1.00
H1162  H     0.73748   0.74831   0.35671   0.00000  Uiso   1.00
H1163  H     0.76024   0.74727   0.41191   0.00000  Uiso   1.00
O1164  O     0.90331   0.85999   0.12159   0.00000  Uiso   1.00
C1165  C     0.92699   0.82009   0.12732   0.00000  Uiso   1.00
H1166  H     0.92719   0.79664   0.09693   0.00000  Uiso   1.00
H1167  H     0.91660   0.80165   0.15630   0.00000  Uiso   1.00
H1168  H     0.95889   0.83028   0.13483   0.00000  Uiso   1.00
O1169  O     0.72322   0.81973   0.44972   0.00000  Uiso   1.00
C1170  C     0.70495   0.86321   0.44551   0.00000  Uiso   1.00
H1171  H     0.67604   0.85879   0.42581   0.00000  Uiso   1.00
H1172  H     0.72438   0.88669   0.42723   0.00000  Uiso   1.00
H1173  H     0.69766   0.87897   0.47873   0.00000  Uiso   1.00
O1174  O     0.93778   0.88299   0.05059   0.00000  Uiso   1.00
C1175  C     0.94212   0.93115   0.05077   0.00000  Uiso   1.00
H1176  H     0.96802   0.94121   0.07373   0.00000  Uiso   1.00
H1177  H     0.91463   0.94912   0.06315   0.00000  Uiso   1.00
H1178  H     0.94916   0.94274   0.01707   0.00000  Uiso   1.00
O1179  O     0.70678   0.74984   0.23895   0.00000  Uiso   1.00
C1180  C     0.71347   0.73999   0.19328   0.00000  Uiso   1.00
H1181  H     0.73650   0.71234   0.19149   0.00000  Uiso   1.00
H1182  H     0.72586   0.77019   0.17696   0.00000  Uiso   1.00
C1183  C     0.67531   0.72260   0.16756   0.00000  Uiso   1.00
H1184  H     0.98737   0.75137   0.16154   0.00000  Uiso   1.00
H1185  H     0.68342   0.70697   0.13470   0.00000  Uiso   1.00
H1186  H     0.99344   0.69644   0.18665   0.00000  Uiso   1.00
O1187  O     0.95737   0.91518   0.23637   0.00000  Uiso   1.00
C1188  C     0.96386   0.93021   0.19299   0.00000  Uiso   1.00
H1189  H     0.96847   0.90159   0.16794   0.00000  Uiso   1.00
H1190  H     0.99095   0.95258   0.19378   0.00000  Uiso   1.00
C1191  C     0.92728   0.95749   0.17717   0.00000  Uiso   1.00
H1192  H     0.92261   0.98809   0.19960   0.00000  Uiso   1.00
H1193  H     0.93203   0.96920   0.14308   0.00000  Uiso   1.00
H1194  H     0.89983   0.93555   0.17663   0.00000  Uiso   1.00
O1195  O     0.95934   0.75002   0.24785   0.00000  Uiso   1.00
C1196  C     0.96392   0.73279   0.29093   0.00000  Uiso   1.00
H1197  H     0.94230   0.75073   0.31278   0.00000  Uiso   1.00
H1198  H     0.99509   0.73729   0.30615   0.00000  Uiso   1.00
C1199  C     0.95492   0.68182   0.28823   0.00000  Uiso   1.00
H1200  H     0.97405   0.99814   0.26318   0.00000  Uiso   1.00
H1201  H     0.96083   0.66690   0.32127   0.00000  Uiso   1.00
H1202  H     0.92332   0.67534   0.27687   0.00000  Uiso   1.00
O1203  O     0.70727   0.91680   0.24818   0.00000  Uiso   1.00
C1204  C     0.70565   0.93670   0.29177   0.00000  Uiso   1.00
H1205  H     0.72331   0.91581   0.31580   0.00000  Uiso   1.00
H1206  H     0.67411   0.93923   0.30338   0.00000  Uiso   1.00
C1207  C     0.72318   0.98483   0.29186   0.00000  Uiso   1.00
H1208  H     0.70656   0.67187   0.26704   0.00000  Uiso   1.00
H1209  H     0.72124   0.66858   0.32549   0.00000  Uiso   1.00
H1210  H     0.75495   0.98356   0.28171   0.00000  Uiso   1.00
O1211  O     0.81418   0.70895   0.17251   0.00000  Uiso   1.00
C1212  C     0.83885   0.68830   0.13912   0.00000  Uiso   1.00
H1213  H     0.82027   0.68303   0.10772   0.00000  Uiso   1.00
H1214  H     0.85187   0.98778   0.14714   0.00000  Uiso   1.00
C1215  C     0.87453   0.71864   0.12982   0.00000  Uiso   1.00
H1216  H     0.86362   0.74975   0.11344   0.00000  Uiso   1.00
H1217  H     0.89171   0.72769   0.16148   0.00000  Uiso   1.00
H1218  H     0.89504   0.70015   0.10666   0.00000  Uiso   1.00
O1219  O     0.84673   0.95572   0.32830   0.00000  Uiso   1.00
C1220  C     0.80857   0.96010   0.34867   0.00000  Uiso   1.00
H1221  H     0.78712   0.93464   0.33304   0.00000  Uiso   1.00
H1222  H     0.79494   0.99481   0.34513   0.00000  Uiso   1.00
C1223  C     0.81269   0.95192   0.39871   0.00000  Uiso   1.00
H1224  H     0.79812   0.98037   0.41810   0.00000  Uiso   1.00
H1225  H     0.79711   0.91977   0.40645   0.00000  Uiso   1.00
H1226  H     0.84499   0.95008   0.41018   0.00000  Uiso   1.00
O1227  O     0.86948   0.72075   0.32010   0.00000  Uiso   1.00
C1228  C     0.87850   0.70075   0.36159   0.00000  Uiso   1.00
H1229  H     0.89791   0.66984   0.35760   0.00000  Uiso   1.00
H1230  H     0.85021   0.69435   0.37852   0.00000  Uiso   1.00
C1231  C     0.90157   0.73355   0.39400   0.00000  Uiso   1.00
H1232  H     0.88436   0.76576   0.39841   0.00000  Uiso   1.00
H1233  H     0.90482   0.71792   0.42709   0.00000  Uiso   1.00
H1234  H     0.93243   0.74046   0.38291   0.00000  Uiso   1.00
O1235  O     0.77629   0.95774   0.20076   0.00000  Uiso   1.00
C1236  C     0.77590   0.93616   0.15766   0.00000  Uiso   1.00
H1237  H     0.76681   0.89983   0.16072   0.00000  Uiso   1.00
H1238  H     0.80519   0.93633   0.14086   0.00000  Uiso   1.00
C1239  C     0.74331   0.95738   0.12789   0.00000  Uiso   1.00
H1240  H     0.75052   0.99368   0.12271   0.00000  Uiso   1.00
H1241  H     0.74157   0.93850   0.09491   0.00000  Uiso   1.00
H1242  H     0.71342   0.95541   0.14341   0.00000  Uiso   1.00
C1243  C     0.08748   0.16672   0.74903   0.00000  Uiso   1.00
C1244  C     0.24575   0.16660   0.74902   0.00000  Uiso   1.00
C1245  C     0.09394   0.15858   0.51931   0.00000  Uiso   1.00
C1246  C     0.23486   0.20473   0.98024   0.00000  Uiso   1.00
C1247  C     0.02089   0.12515   0.74368   0.00000  Uiso   1.00
C1248  C     0.31160   0.20796   0.74276   0.00000  Uiso   1.00
C1249  C     0.31226   0.12511   0.74771   0.00000  Uiso   1.00
C1250  C     0.02075   0.20847   0.74693   0.00000  Uiso   1.00
C1251  C     0.29037   0.16656   0.74685   0.00000  Uiso   1.00
C1252  C     0.04262   0.16683   0.74674   0.00000  Uiso   1.00
C1253  C     0.15445   0.02216   0.71302   0.00000  Uiso   1.00
C1254  C     0.17779   0.31032   0.78798   0.00000  Uiso   1.00
C1255  C     0.18111   0.02697   0.78724   0.00000  Uiso   1.00
C1256  C     0.14753   0.30702   0.71620   0.00000  Uiso   1.00
C1257  C     0.16683   0.16609   0.66452   0.00000  Uiso   1.00
C1258  C     0.16699   0.16764   0.83519   0.00000  Uiso   1.00
C1259  C     0.20069   0.18883   0.90784   0.00000  Uiso   1.00
C1260  C     0.13209   0.15532   0.59036   0.00000  Uiso   1.00
C1261  C     0.16694   0.17033   0.88332   0.00000  Uiso   1.00
C1262  C     0.16747   0.16616   0.61585   0.00000  Uiso   1.00
C1263  C     0.13194   0.15692   0.90433   0.00000  Uiso   1.00
C1264  C     0.20236   0.18196   0.59549   0.00000  Uiso   1.00
C1265  C     0.12992   0.16372   0.95091   0.00000  Uiso   1.00
C1266  C     0.20180   0.18720   0.54880   0.00000  Uiso   1.00
C1267  C     0.16553   0.17658   0.97624   0.00000  Uiso   1.00
C1268  C     0.16597   0.17591   0.52323   0.00000  Uiso   1.00
C1269  C     0.20059   0.19006   0.95467   0.00000  Uiso   1.00
C1270  C     0.13053   0.16319   0.54441   0.00000  Uiso   1.00
C1271  C     0.09324   0.15899   0.97297   0.00000  Uiso   1.00
C1272  C     0.23576   0.20393   0.52691   0.00000  Uiso   1.00
Cu1273 Cu    0.16667   0.21355   0.75000   0.00000  Uiso   1.00
Cu1274 Cu    0.16667   0.11978   0.75000   0.00000  Uiso   1.00
H1275  H     0.06552   0.15381   0.53535   0.00000  Uiso   1.00
H1276  H     0.26179   0.21572   0.96417   0.00000  Uiso   1.00
N1277  N     0.16667   0.28402   0.75000   0.00000  Uiso   1.00
N1278  N     0.16667   0.04931   0.75000   0.00000  Uiso   1.00
O1279  O     0.10655   0.20625   0.75000   0.00000  Uiso   1.00
O1280  O     0.22679   0.12709   0.75000   0.00000  Uiso   1.00
O1281  O     0.22679   0.20625   0.75000   0.00000  Uiso   1.00
O1282  O     0.10655   0.12709   0.75000   0.00000  Uiso   1.00
O1283  O     0.16666   0.20627   0.68513   0.00000  Uiso   1.00
O1284  O     0.16668   0.12707   0.81487   0.00000  Uiso   1.00
O1285  O     0.16668   0.20627   0.81487   0.00000  Uiso   1.00
O1286  O     0.16666   0.12707   0.68513   0.00000  Uiso   1.00
O1287  O     0.23134   0.21045   0.88624   0.00000  Uiso   1.00
C1288  C     0.26059   0.17783   0.87305   0.00000  Uiso   1.00
H1289  H     0.28588   0.19611   0.85815   0.00000  Uiso   1.00
H1290  H     0.24792   0.15319   0.84699   0.00000  Uiso   1.00
H1291  H     0.27344   0.15931   0.90201   0.00000  Uiso   1.00
O1292  O     0.09872   0.13865   0.61117   0.00000  Uiso   1.00
C1293  C     0.08965   0.09338   0.59457   0.00000  Uiso   1.00
H1294  H     0.10734   0.08048   0.56563   0.00000  Uiso   1.00
H1295  H     0.09554   0.06955   0.62133   0.00000  Uiso   1.00
H1296  H     0.05694   0.09122   0.58490   0.00000  Uiso   1.00
O1297  O     0.09857   0.14189   0.87836   0.00000  Uiso   1.00
C1298  C     0.09731   0.09347   0.87792   0.00000  Uiso   1.00
H1299  H     0.12482   0.07799   0.86329   0.00000  Uiso   1.00
H1300  H     0.07081   0.08164   0.85671   0.00000  Uiso   1.00
H1301  H     0.09358   0.08060   0.91191   0.00000  Uiso   1.00
O1302  O     0.23664   0.19332   0.62159   0.00000  Uiso   1.00
C1303  C     0.26032   0.15342   0.62732   0.00000  Uiso   1.00
H1304  H     0.26052   0.12997   0.59693   0.00000  Uiso   1.00
H1305  H     0.24993   0.13498   0.65630   0.00000  Uiso   1.00
H1306  H     0.29222   0.16361   0.63483   0.00000  Uiso   1.00
O1307  O     0.05655   0.15307   0.94972   0.00000  Uiso   1.00
C1308  C     0.03828   0.19654   0.94551   0.00000  Uiso   1.00
H1309  H     0.00937   0.19212   0.92581   0.00000  Uiso   1.00
H1310  H     0.05771   0.22003   0.92723   0.00000  Uiso   1.00
H1311  H     0.03100   0.21230   0.97873   0.00000  Uiso   1.00
O1312  O     0.27111   0.21633   0.55059   0.00000  Uiso   1.00
C1313  C     0.27546   0.26448   0.55077   0.00000  Uiso   1.00
H1314  H     0.30135   0.27454   0.57373   0.00000  Uiso   1.00
H1315  H     0.24797   0.28245   0.56315   0.00000  Uiso   1.00
H1316  H     0.28250   0.27608   0.51707   0.00000  Uiso   1.00
O1317  O     0.04011   0.08318   0.73895   0.00000  Uiso   1.00
C1318  C     0.04680   0.07332   0.69328   0.00000  Uiso   1.00
H1319  H     0.06983   0.04567   0.69149   0.00000  Uiso   1.00
H1320  H     0.05919   0.10352   0.67696   0.00000  Uiso   1.00
C1321  C     0.00865   0.05593   0.66756   0.00000  Uiso   1.00
H1322  H     0.32070   0.08470   0.66154   0.00000  Uiso   1.00
H1323  H     0.01675   0.04030   0.63470   0.00000  Uiso   1.00
H1324  H     0.32677   0.02977   0.68665   0.00000  Uiso   1.00
O1325  O     0.29070   0.24851   0.73637   0.00000  Uiso   1.00
C1326  C     0.29720   0.26354   0.69299   0.00000  Uiso   1.00
H1327  H     0.30180   0.23492   0.66794   0.00000  Uiso   1.00
H1328  H     0.32429   0.28591   0.69378   0.00000  Uiso   1.00
C1329  C     0.26061   0.29082   0.67717   0.00000  Uiso   1.00
H1330  H     0.25594   0.32142   0.69960   0.00000  Uiso   1.00
H1331  H     0.26536   0.30253   0.64308   0.00000  Uiso   1.00
H1332  H     0.23316   0.26888   0.67663   0.00000  Uiso   1.00
O1333  O     0.29267   0.08335   0.74785   0.00000  Uiso   1.00
C1334  C     0.29725   0.06613   0.79093   0.00000  Uiso   1.00
H1335  H     0.27563   0.08407   0.81278   0.00000  Uiso   1.00
H1336  H     0.32842   0.07062   0.80615   0.00000  Uiso   1.00
C1337  C     0.28825   0.01515   0.78823   0.00000  Uiso   1.00
H1338  H     0.30738   0.33147   0.76318   0.00000  Uiso   1.00
H1339  H     0.29417   0.00023   0.82127   0.00000  Uiso   1.00
H1340  H     0.25665   0.00867   0.77687   0.00000  Uiso   1.00
O1341  O     0.04061   0.25013   0.74818   0.00000  Uiso   1.00
C1342  C     0.03899   0.27003   0.79177   0.00000  Uiso   1.00
H1343  H     0.05664   0.24914   0.81580   0.00000  Uiso   1.00
H1344  H     0.00745   0.27256   0.80338   0.00000  Uiso   1.00
C1345  C     0.05651   0.31817   0.79186   0.00000  Uiso   1.00
H1346  H     0.03990   0.00520   0.76704   0.00000  Uiso   1.00
H1347  H     0.05457   0.00191   0.82549   0.00000  Uiso   1.00
H1348  H     0.08828   0.31689   0.78171   0.00000  Uiso   1.00
O1349  O     0.14751   0.04228   0.67251   0.00000  Uiso   1.00
C1350  C     0.17218   0.02164   0.63912   0.00000  Uiso   1.00
H1351  H     0.15360   0.01636   0.60772   0.00000  Uiso   1.00
H1352  H     0.18520   0.32111   0.64714   0.00000  Uiso   1.00
C1353  C     0.20786   0.05197   0.62982   0.00000  Uiso   1.00
H1354  H     0.19696   0.08308   0.61344   0.00000  Uiso   1.00
H1355  H     0.22505   0.06102   0.66148   0.00000  Uiso   1.00
H1356  H     0.22837   0.03349   0.60666   0.00000  Uiso   1.00
O1357  O     0.18007   0.28905   0.82830   0.00000  Uiso   1.00
C1358  C     0.14191   0.29343   0.84867   0.00000  Uiso   1.00
H1359  H     0.12046   0.26798   0.83304   0.00000  Uiso   1.00
H1360  H     0.12828   0.32814   0.84513   0.00000  Uiso   1.00
C1361  C     0.14602   0.28525   0.89871   0.00000  Uiso   1.00
H1362  H     0.13146   0.31371   0.91810   0.00000  Uiso   1.00
H1363  H     0.13045   0.25310   0.90645   0.00000  Uiso   1.00
H1364  H     0.17832   0.28342   0.91018   0.00000  Uiso   1.00
O1365  O     0.20281   0.05408   0.82010   0.00000  Uiso   1.00
C1366  C     0.21183   0.03408   0.86159   0.00000  Uiso   1.00
H1367  H     0.23124   0.00317   0.85760   0.00000  Uiso   1.00
H1368  H     0.18355   0.02768   0.87852   0.00000  Uiso   1.00
C1369  C     0.23490   0.06689   0.89400   0.00000  Uiso   1.00
H1370  H     0.21769   0.09910   0.89841   0.00000  Uiso   1.00
H1371  H     0.23815   0.05126   0.92709   0.00000  Uiso   1.00
H1372  H     0.26577   0.07379   0.88291   0.00000  Uiso   1.00
O1373  O     0.10962   0.29108   0.70076   0.00000  Uiso   1.00
C1374  C     0.10923   0.26949   0.65766   0.00000  Uiso   1.00
H1375  H     0.10014   0.23316   0.66072   0.00000  Uiso   1.00
H1376  H     0.13853   0.26967   0.64086   0.00000  Uiso   1.00
C1377  C     0.07665   0.29072   0.62789   0.00000  Uiso   1.00
H1378  H     0.08385   0.32701   0.62271   0.00000  Uiso   1.00
H1379  H     0.07490   0.27184   0.59491   0.00000  Uiso   1.00
H1380  H     0.04676   0.28875   0.64341   0.00000  Uiso   1.00
C1381  C     0.42081   0.16672   0.74903   0.00000  Uiso   1.00
C1382  C     0.57908   0.16660   0.74902   0.00000  Uiso   1.00
C1383  C     0.42727   0.15858   0.51931   0.00000  Uiso   1.00
C1384  C     0.56819   0.20473   0.98024   0.00000  Uiso   1.00
C1385  C     0.35422   0.12515   0.74368   0.00000  Uiso   1.00
C1386  C     0.64493   0.20796   0.74276   0.00000  Uiso   1.00
C1387  C     0.64560   0.12511   0.74771   0.00000  Uiso   1.00
C1388  C     0.35409   0.20847   0.74693   0.00000  Uiso   1.00
C1389  C     0.62371   0.16656   0.74685   0.00000  Uiso   1.00
C1390  C     0.37596   0.16683   0.74674   0.00000  Uiso   1.00
C1391  C     0.48778   0.02216   0.71302   0.00000  Uiso   1.00
C1392  C     0.51112   0.31032   0.78798   0.00000  Uiso   1.00
C1393  C     0.51445   0.02697   0.78724   0.00000  Uiso   1.00
C1394  C     0.48086   0.30702   0.71620   0.00000  Uiso   1.00
C1395  C     0.50016   0.16609   0.66452   0.00000  Uiso   1.00
C1396  C     0.50032   0.16764   0.83519   0.00000  Uiso   1.00
C1397  C     0.53402   0.18883   0.90784   0.00000  Uiso   1.00
C1398  C     0.46542   0.15532   0.59036   0.00000  Uiso   1.00
C1399  C     0.50027   0.17033   0.88332   0.00000  Uiso   1.00
C1400  C     0.50081   0.16616   0.61585   0.00000  Uiso   1.00
C1401  C     0.46527   0.15692   0.90433   0.00000  Uiso   1.00
C1402  C     0.53569   0.18196   0.59549   0.00000  Uiso   1.00
C1403  C     0.46325   0.16372   0.95091   0.00000  Uiso   1.00
C1404  C     0.53514   0.18720   0.54880   0.00000  Uiso   1.00
C1405  C     0.49887   0.17658   0.97624   0.00000  Uiso   1.00
C1406  C     0.49931   0.17591   0.52323   0.00000  Uiso   1.00
C1407  C     0.53393   0.19006   0.95467   0.00000  Uiso   1.00
C1408  C     0.46386   0.16319   0.54441   0.00000  Uiso   1.00
C1409  C     0.42657   0.15899   0.97297   0.00000  Uiso   1.00
C1410  C     0.56910   0.20393   0.52691   0.00000  Uiso   1.00
Cu1411 Cu    0.50000   0.21355   0.75000   0.00000  Uiso   1.00
Cu1412 Cu    0.50000   0.11978   0.75000   0.00000  Uiso   1.00
H1413  H     0.39885   0.15381   0.53535   0.00000  Uiso   1.00
H1414  H     0.59513   0.21572   0.96417   0.00000  Uiso   1.00
N1415  N     0.50000   0.28402   0.75000   0.00000  Uiso   1.00
N1416  N     0.50000   0.04931   0.75000   0.00000  Uiso   1.00
O1417  O     0.43988   0.20625   0.75000   0.00000  Uiso   1.00
O1418  O     0.56012   0.12709   0.75000   0.00000  Uiso   1.00
O1419  O     0.56012   0.20625   0.75000   0.00000  Uiso   1.00
O1420  O     0.43988   0.12709   0.75000   0.00000  Uiso   1.00
O1421  O     0.49999   0.20627   0.68513   0.00000  Uiso   1.00
O1422  O     0.50001   0.12707   0.81487   0.00000  Uiso   1.00
O1423  O     0.50001   0.20627   0.81487   0.00000  Uiso   1.00
O1424  O     0.49999   0.12707   0.68513   0.00000  Uiso   1.00
O1425  O     0.56467   0.21045   0.88624   0.00000  Uiso   1.00
C1426  C     0.59392   0.17783   0.87305   0.00000  Uiso   1.00
H1427  H     0.61922   0.19611   0.85815   0.00000  Uiso   1.00
H1428  H     0.58126   0.15319   0.84699   0.00000  Uiso   1.00
H1429  H     0.60677   0.15931   0.90201   0.00000  Uiso   1.00
O1430  O     0.43205   0.13865   0.61117   0.00000  Uiso   1.00
C1431  C     0.42298   0.09338   0.59457   0.00000  Uiso   1.00
H1432  H     0.44067   0.08048   0.56563   0.00000  Uiso   1.00
H1433  H     0.42887   0.06955   0.62133   0.00000  Uiso   1.00
H1434  H     0.39027   0.09122   0.58490   0.00000  Uiso   1.00
O1435  O     0.43190   0.14189   0.87836   0.00000  Uiso   1.00
C1436  C     0.43065   0.09347   0.87792   0.00000  Uiso   1.00
H1437  H     0.45815   0.07799   0.86329   0.00000  Uiso   1.00
H1438  H     0.40415   0.08164   0.85671   0.00000  Uiso   1.00
H1439  H     0.42691   0.08060   0.91191   0.00000  Uiso   1.00
O1440  O     0.56998   0.19332   0.62159   0.00000  Uiso   1.00
C1441  C     0.59365   0.15342   0.62732   0.00000  Uiso   1.00
H1442  H     0.59386   0.12997   0.59693   0.00000  Uiso   1.00
H1443  H     0.58327   0.13498   0.65630   0.00000  Uiso   1.00
H1444  H     0.62556   0.16361   0.63483   0.00000  Uiso   1.00
O1445  O     0.38988   0.15307   0.94972   0.00000  Uiso   1.00
C1446  C     0.37161   0.19654   0.94551   0.00000  Uiso   1.00
H1447  H     0.34271   0.19212   0.92581   0.00000  Uiso   1.00
H1448  H     0.39105   0.22003   0.92723   0.00000  Uiso   1.00
H1449  H     0.36433   0.21230   0.97873   0.00000  Uiso   1.00
O1450  O     0.60445   0.21633   0.55059   0.00000  Uiso   1.00
C1451  C     0.60879   0.26448   0.55077   0.00000  Uiso   1.00
H1452  H     0.63469   0.27454   0.57373   0.00000  Uiso   1.00
H1453  H     0.58130   0.28245   0.56315   0.00000  Uiso   1.00
H1454  H     0.61583   0.27608   0.51707   0.00000  Uiso   1.00
O1455  O     0.37344   0.08318   0.73895   0.00000  Uiso   1.00
C1456  C     0.38014   0.07332   0.69328   0.00000  Uiso   1.00
H1457  H     0.40316   0.04567   0.69149   0.00000  Uiso   1.00
H1458  H     0.39253   0.10352   0.67696   0.00000  Uiso   1.00
C1459  C     0.34198   0.05593   0.66756   0.00000  Uiso   1.00
H1460  H     0.65404   0.08470   0.66154   0.00000  Uiso   1.00
H1461  H     0.35008   0.04030   0.63470   0.00000  Uiso   1.00
H1462  H     0.66010   0.02977   0.68665   0.00000  Uiso   1.00
O1463  O     0.62404   0.24851   0.73637   0.00000  Uiso   1.00
C1464  C     0.63053   0.26354   0.69299   0.00000  Uiso   1.00
H1465  H     0.63513   0.23492   0.66794   0.00000  Uiso   1.00
H1466  H     0.65762   0.28591   0.69378   0.00000  Uiso   1.00
C1467  C     0.59395   0.29082   0.67717   0.00000  Uiso   1.00
H1468  H     0.58927   0.32142   0.69960   0.00000  Uiso   1.00
H1469  H     0.59870   0.30253   0.64308   0.00000  Uiso   1.00
H1470  H     0.56650   0.26888   0.67663   0.00000  Uiso   1.00
O1471  O     0.62601   0.08335   0.74785   0.00000  Uiso   1.00
C1472  C     0.63059   0.06613   0.79093   0.00000  Uiso   1.00
H1473  H     0.60896   0.08407   0.81278   0.00000  Uiso   1.00
H1474  H     0.66176   0.07062   0.80615   0.00000  Uiso   1.00
C1475  C     0.62158   0.01515   0.78823   0.00000  Uiso   1.00
H1476  H     0.64072   0.33147   0.76318   0.00000  Uiso   1.00
H1477  H     0.62750   0.00023   0.82127   0.00000  Uiso   1.00
H1478  H     0.58998   0.00867   0.77687   0.00000  Uiso   1.00
O1479  O     0.37394   0.25013   0.74818   0.00000  Uiso   1.00
C1480  C     0.37232   0.27003   0.79177   0.00000  Uiso   1.00
H1481  H     0.38998   0.24914   0.81580   0.00000  Uiso   1.00
H1482  H     0.34078   0.27256   0.80338   0.00000  Uiso   1.00
C1483  C     0.38984   0.31817   0.79186   0.00000  Uiso   1.00
H1484  H     0.37323   0.00520   0.76704   0.00000  Uiso   1.00
H1485  H     0.38790   0.00191   0.82549   0.00000  Uiso   1.00
H1486  H     0.42162   0.31689   0.78171   0.00000  Uiso   1.00
O1487  O     0.48085   0.04228   0.67251   0.00000  Uiso   1.00
C1488  C     0.50552   0.02164   0.63912   0.00000  Uiso   1.00
H1489  H     0.48693   0.01636   0.60772   0.00000  Uiso   1.00
H1490  H     0.51854   0.32111   0.64714   0.00000  Uiso   1.00
C1491  C     0.54119   0.05197   0.62982   0.00000  Uiso   1.00
H1492  H     0.53029   0.08308   0.61344   0.00000  Uiso   1.00
H1493  H     0.55838   0.06102   0.66148   0.00000  Uiso   1.00
H1494  H     0.56171   0.03349   0.60666   0.00000  Uiso   1.00
O1495  O     0.51340   0.28905   0.82830   0.00000  Uiso   1.00
C1496  C     0.47524   0.29343   0.84867   0.00000  Uiso   1.00
H1497  H     0.45379   0.26798   0.83304   0.00000  Uiso   1.00
H1498  H     0.46161   0.32814   0.84513   0.00000  Uiso   1.00
C1499  C     0.47935   0.28525   0.89871   0.00000  Uiso   1.00
H1500  H     0.46479   0.31371   0.91810   0.00000  Uiso   1.00
H1501  H     0.46378   0.25310   0.90645   0.00000  Uiso   1.00
H1502  H     0.51166   0.28342   0.91018   0.00000  Uiso   1.00
O1503  O     0.53614   0.05408   0.82010   0.00000  Uiso   1.00
C1504  C     0.54516   0.03408   0.86159   0.00000  Uiso   1.00
H1505  H     0.56458   0.00317   0.85760   0.00000  Uiso   1.00
H1506  H     0.51688   0.02768   0.87852   0.00000  Uiso   1.00
C1507  C     0.56823   0.06689   0.89400   0.00000  Uiso   1.00
H1508  H     0.55102   0.09910   0.89841   0.00000  Uiso   1.00
H1509  H     0.57149   0.05126   0.92709   0.00000  Uiso   1.00
H1510  H     0.59910   0.07379   0.88291   0.00000  Uiso   1.00
O1511  O     0.44296   0.29108   0.70076   0.00000  Uiso   1.00
C1512  C     0.44257   0.26949   0.65766   0.00000  Uiso   1.00
H1513  H     0.43348   0.23316   0.66072   0.00000  Uiso   1.00
H1514  H     0.47186   0.26967   0.64086   0.00000  Uiso   1.00
C1515  C     0.40998   0.29072   0.62789   0.00000  Uiso   1.00
H1516  H     0.41719   0.32701   0.62271   0.00000  Uiso   1.00
H1517  H     0.40824   0.27184   0.59491   0.00000  Uiso   1.00
H1518  H     0.38009   0.28875   0.64341   0.00000  Uiso   1.00
C1519  C     0.75415   0.16672   0.74903   0.00000  Uiso   1.00
C1520  C     0.91242   0.16660   0.74902   0.00000  Uiso   1.00
C1521  C     0.76061   0.15858   0.51931   0.00000  Uiso   1.00
C1522  C     0.90152   0.20473   0.98024   0.00000  Uiso   1.00
C1523  C     0.68756   0.12515   0.74368   0.00000  Uiso   1.00
C1524  C     0.97826   0.20796   0.74276   0.00000  Uiso   1.00
C1525  C     0.97893   0.12511   0.74771   0.00000  Uiso   1.00
C1526  C     0.68742   0.20847   0.74693   0.00000  Uiso   1.00
C1527  C     0.95704   0.16656   0.74685   0.00000  Uiso   1.00
C1528  C     0.70929   0.16683   0.74674   0.00000  Uiso   1.00
C1529  C     0.82111   0.02216   0.71302   0.00000  Uiso   1.00
C1530  C     0.84445   0.31032   0.78798   0.00000  Uiso   1.00
C1531  C     0.84778   0.02697   0.78724   0.00000  Uiso   1.00
C1532  C     0.81419   0.30702   0.71620   0.00000  Uiso   1.00
C1533  C     0.83349   0.16609   0.66452   0.00000  Uiso   1.00
C1534  C     0.83365   0.16764   0.83519   0.00000  Uiso   1.00
C1535  C     0.86735   0.18883   0.90784   0.00000  Uiso   1.00
C1536  C     0.79876   0.15532   0.59036   0.00000  Uiso   1.00
C1537  C     0.83361   0.17033   0.88332   0.00000  Uiso   1.00
C1538  C     0.83414   0.16616   0.61585   0.00000  Uiso   1.00
C1539  C     0.79861   0.15692   0.90433   0.00000  Uiso   1.00
C1540  C     0.86903   0.18196   0.59549   0.00000  Uiso   1.00
C1541  C     0.79658   0.16372   0.95091   0.00000  Uiso   1.00
C1542  C     0.86847   0.18720   0.54880   0.00000  Uiso   1.00
C1543  C     0.83220   0.17658   0.97624   0.00000  Uiso   1.00
C1544  C     0.83264   0.17591   0.52323   0.00000  Uiso   1.00
C1545  C     0.86726   0.19006   0.95467   0.00000  Uiso   1.00
C1546  C     0.79720   0.16319   0.54441   0.00000  Uiso   1.00
C1547  C     0.75990   0.15899   0.97297   0.00000  Uiso   1.00
C1548  C     0.90243   0.20393   0.52691   0.00000  Uiso   1.00
Cu1549 Cu    0.83333   0.21355   0.75000   0.00000  Uiso   1.00
Cu1550 Cu    0.83333   0.11978   0.75000   0.00000  Uiso   1.00
H1551  H     0.73218   0.15381   0.53535   0.00000  Uiso   1.00
H1552  H     0.92846   0.21572   0.96417   0.00000  Uiso   1.00
N1553  N     0.83333   0.28402   0.75000   0.00000  Uiso   1.00
N1554  N     0.83333   0.04931   0.75000   0.00000  Uiso   1.00
O1555  O     0.77321   0.20625   0.75000   0.00000  Uiso   1.00
O1556  O     0.89345   0.12709   0.75000   0.00000  Uiso   1.00
O1557  O     0.89345   0.20625   0.75000   0.00000  Uiso   1.00
O1558  O     0.77321   0.12709   0.75000   0.00000  Uiso   1.00
O1559  O     0.83332   0.20627   0.68513   0.00000  Uiso   1.00
O1560  O     0.83334   0.12707   0.81487   0.00000  Uiso   1.00
O1561  O     0.83334   0.20627   0.81487   0.00000  Uiso   1.00
O1562  O     0.83332   0.12707   0.68513   0.00000  Uiso   1.00
O1563  O     0.89800   0.21045   0.88624   0.00000  Uiso   1.00
C1564  C     0.92725   0.17783   0.87305   0.00000  Uiso   1.00
H1565  H     0.95255   0.19611   0.85815   0.00000  Uiso   1.00
H1566  H     0.91459   0.15319   0.84699   0.00000  Uiso   1.00
H1567  H     0.94010   0.15931   0.90201   0.00000  Uiso   1.00
O1568  O     0.76539   0.13865   0.61117   0.00000  Uiso   1.00
C1569  C     0.75632   0.09338   0.59457   0.00000  Uiso   1.00
H1570  H     0.77401   0.08048   0.56563   0.00000  Uiso   1.00
H1571  H     0.76221   0.06955   0.62133   0.00000  Uiso   1.00
H1572  H     0.72361   0.09122   0.58490   0.00000  Uiso   1.00
O1573  O     0.76524   0.14189   0.87836   0.00000  Uiso   1.00
C1574  C     0.76398   0.09347   0.87792   0.00000  Uiso   1.00
H1575  H     0.79148   0.07799   0.86329   0.00000  Uiso   1.00
H1576  H     0.73748   0.08164   0.85671   0.00000  Uiso   1.00
H1577  H     0.76024   0.08060   0.91191   0.00000  Uiso   1.00
O1578  O     0.90331   0.19332   0.62159   0.00000  Uiso   1.00
C1579  C     0.92699   0.15342   0.62732   0.00000  Uiso   1.00
H1580  H     0.92719   0.12997   0.59693   0.00000  Uiso   1.00
H1581  H     0.91660   0.13498   0.65630   0.00000  Uiso   1.00
H1582  H     0.95889   0.16361   0.63483   0.00000  Uiso   1.00
O1583  O     0.72322   0.15307   0.94972   0.00000  Uiso   1.00
C1584  C     0.70495   0.19654   0.94551   0.00000  Uiso   1.00
H1585  H     0.67604   0.19212   0.92581   0.00000  Uiso   1.00
H1586  H     0.72438   0.22003   0.92723   0.00000  Uiso   1.00
H1587  H     0.69766   0.21230   0.97873   0.00000  Uiso   1.00
O1588  O     0.93778   0.21633   0.55059   0.00000  Uiso   1.00
C1589  C     0.94212   0.26448   0.55077   0.00000  Uiso   1.00
H1590  H     0.96802   0.27454   0.57373   0.00000  Uiso   1.00
H1591  H     0.91463   0.28245   0.56315   0.00000  Uiso   1.00
H1592  H     0.94916   0.27608   0.51707   0.00000  Uiso   1.00
O1593  O     0.70678   0.08318   0.73895   0.00000  Uiso   1.00
C1594  C     0.71347   0.07332   0.69328   0.00000  Uiso   1.00
H1595  H     0.73650   0.04567   0.69149   0.00000  Uiso   1.00
H1596  H     0.72586   0.10352   0.67696   0.00000  Uiso   1.00
C1597  C     0.67531   0.05593   0.66756   0.00000  Uiso   1.00
H1598  H     0.98737   0.08470   0.66154   0.00000  Uiso   1.00
H1599  H     0.68342   0.04030   0.63470   0.00000  Uiso   1.00
H1600  H     0.99344   0.02977   0.68665   0.00000  Uiso   1.00
O1601  O     0.95737   0.24851   0.73637   0.00000  Uiso   1.00
C1602  C     0.96386   0.26354   0.69299   0.00000  Uiso   1.00
H1603  H     0.96847   0.23492   0.66794   0.00000  Uiso   1.00
H1604  H     0.99095   0.28591   0.69378   0.00000  Uiso   1.00
C1605  C     0.92728   0.29082   0.67717   0.00000  Uiso   1.00
H1606  H     0.92261   0.32142   0.69960   0.00000  Uiso   1.00
H1607  H     0.93203   0.30253   0.64308   0.00000  Uiso   1.00
H1608  H     0.89983   0.26888   0.67663   0.00000  Uiso   1.00
O1609  O     0.95934   0.08335   0.74785   0.00000  Uiso   1.00
C1610  C     0.96392   0.06613   0.79093   0.00000  Uiso   1.00
H1611  H     0.94230   0.08407   0.81278   0.00000  Uiso   1.00
H1612  H     0.99509   0.07062   0.80615   0.00000  Uiso   1.00
C1613  C     0.95492   0.01515   0.78823   0.00000  Uiso   1.00
H1614  H     0.97405   0.33147   0.76318   0.00000  Uiso   1.00
H1615  H     0.96083   0.00023   0.82127   0.00000  Uiso   1.00
H1616  H     0.92332   0.00867   0.77687   0.00000  Uiso   1.00
O1617  O     0.70727   0.25013   0.74818   0.00000  Uiso   1.00
C1618  C     0.70565   0.27003   0.79177   0.00000  Uiso   1.00
H1619  H     0.72331   0.24914   0.81580   0.00000  Uiso   1.00
H1620  H     0.67411   0.27256   0.80338   0.00000  Uiso   1.00
C1621  C     0.72318   0.31817   0.79186   0.00000  Uiso   1.00
H1622  H     0.70656   0.00520   0.76704   0.00000  Uiso   1.00
H1623  H     0.72124   0.00191   0.82549   0.00000  Uiso   1.00
H1624  H     0.75495   0.31689   0.78171   0.00000  Uiso   1.00
O1625  O     0.81418   0.04228   0.67251   0.00000  Uiso   1.00
C1626  C     0.83885   0.02164   0.63912   0.00000  Uiso   1.00
H1627  H     0.82027   0.01636   0.60772   0.00000  Uiso   1.00
H1628  H     0.85187   0.32111   0.64714   0.00000  Uiso   1.00
C1629  C     0.87453   0.05197   0.62982   0.00000  Uiso   1.00
H1630  H     0.86362   0.08308   0.61344   0.00000  Uiso   1.00
H1631  H     0.89171   0.06102   0.66148   0.00000  Uiso   1.00
H1632  H     0.89504   0.03349   0.60666   0.00000  Uiso   1.00
O1633  O     0.84673   0.28905   0.82830   0.00000  Uiso   1.00
C1634  C     0.80857   0.29343   0.84867   0.00000  Uiso   1.00
H1635  H     0.78712   0.26798   0.83304   0.00000  Uiso   1.00
H1636  H     0.79494   0.32814   0.84513   0.00000  Uiso   1.00
C1637  C     0.81269   0.28525   0.89871   0.00000  Uiso   1.00
H1638  H     0.79812   0.31371   0.91810   0.00000  Uiso   1.00
H1639  H     0.79711   0.25310   0.90645   0.00000  Uiso   1.00
H1640  H     0.84499   0.28342   0.91018   0.00000  Uiso   1.00
O1641  O     0.86948   0.05408   0.82010   0.00000  Uiso   1.00
C1642  C     0.87850   0.03408   0.86159   0.00000  Uiso   1.00
H1643  H     0.89791   0.00317   0.85760   0.00000  Uiso   1.00
H1644  H     0.85021   0.02768   0.87852   0.00000  Uiso   1.00
C1645  C     0.90157   0.06689   0.89400   0.00000  Uiso   1.00
H1646  H     0.88436   0.09910   0.89841   0.00000  Uiso   1.00
H1647  H     0.90482   0.05126   0.92709   0.00000  Uiso   1.00
H1648  H     0.93243   0.07379   0.88291   0.00000  Uiso   1.00
O1649  O     0.77629   0.29108   0.70076   0.00000  Uiso   1.00
C1650  C     0.77590   0.26949   0.65766   0.00000  Uiso   1.00
H1651  H     0.76681   0.23316   0.66072   0.00000  Uiso   1.00
H1652  H     0.80519   0.26967   0.64086   0.00000  Uiso   1.00
C1653  C     0.74331   0.29072   0.62789   0.00000  Uiso   1.00
H1654  H     0.75052   0.32701   0.62271   0.00000  Uiso   1.00
H1655  H     0.74157   0.27184   0.59491   0.00000  Uiso   1.00
H1656  H     0.71342   0.28875   0.64341   0.00000  Uiso   1.00
C1657  C     0.08748   0.50005   0.74903   0.00000  Uiso   1.00
C1658  C     0.24575   0.49993   0.74902   0.00000  Uiso   1.00
C1659  C     0.09394   0.49191   0.51931   0.00000  Uiso   1.00
C1660  C     0.23486   0.53806   0.98024   0.00000  Uiso   1.00
C1661  C     0.02089   0.45848   0.74368   0.00000  Uiso   1.00
C1662  C     0.31160   0.54129   0.74276   0.00000  Uiso   1.00
C1663  C     0.31226   0.45845   0.74771   0.00000  Uiso   1.00
C1664  C     0.02075   0.54181   0.74693   0.00000  Uiso   1.00
C1665  C     0.29037   0.49990   0.74685   0.00000  Uiso   1.00
C1666  C     0.04262   0.50016   0.74674   0.00000  Uiso   1.00
C1667  C     0.15445   0.35550   0.71302   0.00000  Uiso   1.00
C1668  C     0.17779   0.64365   0.78798   0.00000  Uiso   1.00
C1669  C     0.18111   0.36030   0.78724   0.00000  Uiso   1.00
C1670  C     0.14753   0.64035   0.71620   0.00000  Uiso   1.00
C1671  C     0.16683   0.49942   0.66452   0.00000  Uiso   1.00
C1672  C     0.16699   0.50098   0.83519   0.00000  Uiso   1.00
C1673  C     0.20069   0.52216   0.90784   0.00000  Uiso   1.00
C1674  C     0.13209   0.48865   0.59036   0.00000  Uiso   1.00
C1675  C     0.16694   0.50367   0.88332   0.00000  Uiso   1.00
C1676  C     0.16747   0.49950   0.61585   0.00000  Uiso   1.00
C1677  C     0.13194   0.49025   0.90433   0.00000  Uiso   1.00
C1678  C     0.20236   0.51530   0.59549   0.00000  Uiso   1.00
C1679  C     0.12992   0.49705   0.95091   0.00000  Uiso   1.00
C1680  C     0.20180   0.52054   0.54880   0.00000  Uiso   1.00
C1681  C     0.16553   0.50991   0.97624   0.00000  Uiso   1.00
C1682  C     0.16597   0.50925   0.52323   0.00000  Uiso   1.00
C1683  C     0.20059   0.52339   0.95467   0.00000  Uiso   1.00
C1684  C     0.13053   0.49652   0.54441   0.00000  Uiso   1.00
C1685  C     0.09324   0.49233   0.97297   0.00000  Uiso   1.00
C1686  C     0.23576   0.53727   0.52691   0.00000  Uiso   1.00
Cu1687 Cu    0.16667   0.54689   0.75000   0.00000  Uiso   1.00
Cu1688 Cu    0.16667   0.45311   0.75000   0.00000  Uiso   1.00
H1689  H     0.06552   0.48714   0.53535   0.00000  Uiso   1.00
H1690  H     0.26179   0.54906   0.96417   0.00000  Uiso   1.00
N1691  N     0.16667   0.61736   0.75000   0.00000  Uiso   1.00
N1692  N     0.16667   0.38264   0.75000   0.00000  Uiso   1.00
O1693  O     0.10655   0.53958   0.75000   0.00000  Uiso   1.00
O1694  O     0.22679   0.46042   0.75000   0.00000  Uiso   1.00
O1695  O     0.22679   0.53958   0.75000   0.00000  Uiso   1.00
O1696  O     0.10655   0.46042   0.75000   0.00000  Uiso   1.00
O1697  O     0.16666   0.53960   0.68513   0.00000  Uiso   1.00
O1698  O     0.16668   0.46040   0.81487   0.00000  Uiso   1.00
O1699  O     0.16668   0.53960   0.81487   0.00000  Uiso   1.00
O1700  O     0.16666   0.46040   0.68513   0.00000  Uiso   1.00
O1701  O     0.23134   0.54378   0.88624   0.00000  Uiso   1.00
C1702  C     0.26059   0.51117   0.87305   0.00000  Uiso   1.00
H1703  H     0.28588   0.52944   0.85815   0.00000  Uiso   1.00
H1704  H     0.24792   0.48653   0.84699   0.00000  Uiso   1.00
H1705  H     0.27344   0.49265   0.90201   0.00000  Uiso   1.00
O1706  O     0.09872   0.47198   0.61117   0.00000  Uiso   1.00
C1707  C     0.08965   0.42671   0.59457   0.00000  Uiso   1.00
H1708  H     0.10734   0.41382   0.56563   0.00000  Uiso   1.00
H1709  H     0.09554   0.40288   0.62133   0.00000  Uiso   1.00
H1710  H     0.05694   0.42456   0.58490   0.00000  Uiso   1.00
O1711  O     0.09857   0.47523   0.87836   0.00000  Uiso   1.00
C1712  C     0.09731   0.42680   0.87792   0.00000  Uiso   1.00
H1713  H     0.12482   0.41133   0.86329   0.00000  Uiso   1.00
H1714  H     0.07081   0.41497   0.85671   0.00000  Uiso   1.00
H1715  H     0.09358   0.41394   0.91191   0.00000  Uiso   1.00
O1716  O     0.23664   0.52666   0.62159   0.00000  Uiso   1.00
C1717  C     0.26032   0.48675   0.62732   0.00000  Uiso   1.00
H1718  H     0.26052   0.46331   0.59693   0.00000  Uiso   1.00
H1719  H     0.24993   0.46831   0.65630   0.00000  Uiso   1.00
H1720  H     0.29222   0.49695   0.63483   0.00000  Uiso   1.00
O1721  O     0.05655   0.48640   0.94972   0.00000  Uiso   1.00
C1722  C     0.03828   0.52987   0.94551   0.00000  Uiso   1.00
H1723  H     0.00937   0.52545   0.92581   0.00000  Uiso   1.00
H1724  H     0.05771   0.55336   0.92723   0.00000  Uiso   1.00
H1725  H     0.03100   0.54563   0.97873   0.00000  Uiso   1.00
O1726  O     0.27111   0.54966   0.55059   0.00000  Uiso   1.00
C1727  C     0.27546   0.59782   0.55077   0.00000  Uiso   1.00
H1728  H     0.30135   0.60787   0.57373   0.00000  Uiso   1.00
H1729  H     0.24797   0.61578   0.56315   0.00000  Uiso   1.00
H1730  H     0.28250   0.60941   0.51707   0.00000  Uiso   1.00
O1731  O     0.04011   0.41651   0.73895   0.00000  Uiso   1.00
C1732  C     0.04680   0.40666   0.69328   0.00000  Uiso   1.00
H1733  H     0.06983   0.37900   0.69149   0.00000  Uiso   1.00
H1734  H     0.05919   0.43685   0.67696   0.00000  Uiso   1.00
C1735  C     0.00865   0.38926   0.66756   0.00000  Uiso   1.00
H1736  H     0.32070   0.41804   0.66154   0.00000  Uiso   1.00
H1737  H     0.01675   0.37363   0.63470   0.00000  Uiso   1.00
H1738  H     0.32677   0.36310   0.68665   0.00000  Uiso   1.00
O1739  O     0.29070   0.58185   0.73637   0.00000  Uiso   1.00
C1740  C     0.29720   0.59688   0.69299   0.00000  Uiso   1.00
H1741  H     0.30180   0.56825   0.66794   0.00000  Uiso   1.00
H1742  H     0.32429   0.61924   0.69378   0.00000  Uiso   1.00
C1743  C     0.26061   0.62416   0.67717   0.00000  Uiso   1.00
H1744  H     0.25594   0.65475   0.69960   0.00000  Uiso   1.00
H1745  H     0.26536   0.63586   0.64308   0.00000  Uiso   1.00
H1746  H     0.23316   0.60222   0.67663   0.00000  Uiso   1.00
O1747  O     0.29267   0.41668   0.74785   0.00000  Uiso   1.00
C1748  C     0.29725   0.39946   0.79093   0.00000  Uiso   1.00
H1749  H     0.27563   0.41740   0.81278   0.00000  Uiso   1.00
H1750  H     0.32842   0.40395   0.80615   0.00000  Uiso   1.00
C1751  C     0.28825   0.34849   0.78823   0.00000  Uiso   1.00
H1752  H     0.30738   0.66481   0.76318   0.00000  Uiso   1.00
H1753  H     0.29417   0.33357   0.82127   0.00000  Uiso   1.00
H1754  H     0.25665   0.34201   0.77687   0.00000  Uiso   1.00
O1755  O     0.04061   0.58347   0.74818   0.00000  Uiso   1.00
C1756  C     0.03899   0.60337   0.79177   0.00000  Uiso   1.00
H1757  H     0.05664   0.58247   0.81580   0.00000  Uiso   1.00
H1758  H     0.00745   0.60589   0.80338   0.00000  Uiso   1.00
C1759  C     0.05651   0.65150   0.79186   0.00000  Uiso   1.00
H1760  H     0.03990   0.33854   0.76704   0.00000  Uiso   1.00
H1761  H     0.05457   0.33525   0.82549   0.00000  Uiso   1.00
H1762  H     0.08828   0.65022   0.78171   0.00000  Uiso   1.00
O1763  O     0.14751   0.37562   0.67251   0.00000  Uiso   1.00
C1764  C     0.17218   0.35497   0.63912   0.00000  Uiso   1.00
H1765  H     0.15360   0.34970   0.60772   0.00000  Uiso   1.00
H1766  H     0.18520   0.65445   0.64714   0.00000  Uiso   1.00
C1767  C     0.20786   0.38531   0.62982   0.00000  Uiso   1.00
H1768  H     0.19696   0.41641   0.61344   0.00000  Uiso   1.00
H1769  H     0.22505   0.39435   0.66148   0.00000  Uiso   1.00
H1770  H     0.22837   0.36682   0.60666   0.00000  Uiso   1.00
O1771  O     0.18007   0.62238   0.82830   0.00000  Uiso   1.00
C1772  C     0.14191   0.62676   0.84867   0.00000  Uiso   1.00
H1773  H     0.12046   0.60131   0.83304   0.00000  Uiso   1.00
H1774  H     0.12828   0.66148   0.84513   0.00000  Uiso   1.00
C1775  C     0.14602   0.61858   0.89871   0.00000  Uiso   1.00
H1776  H     0.13146   0.64704   0.91810   0.00000  Uiso   1.00
H1777  H     0.13045   0.58644   0.90645   0.00000  Uiso   1.00
H1778  H     0.17832   0.61675   0.91018   0.00000  Uiso   1.00
O1779  O     0.20281   0.38741   0.82010   0.00000  Uiso   1.00
C1780  C     0.21183   0.36741   0.86159   0.00000  Uiso   1.00
H1781  H     0.23124   0.33650   0.85760   0.00000  Uiso   1.00
H1782  H     0.18355   0.36101   0.87852   0.00000  Uiso   1.00
C1783  C     0.23490   0.40022   0.89400   0.00000  Uiso   1.00
H1784  H     0.21769   0.43243   0.89841   0.00000  Uiso   1.00
H1785  H     0.23815   0.38459   0.92709   0.00000  Uiso   1.00
H1786  H     0.26577   0.40713   0.88291   0.00000  Uiso   1.00
O1787  O     0.10962   0.62441   0.70076   0.00000  Uiso   1.00
C1788  C     0.10923   0.60283   0.65766   0.00000  Uiso   1.00
H1789  H     0.10014   0.56649   0.66072   0.00000  Uiso   1.00
H1790  H     0.13853   0.60300   0.64086   0.00000  Uiso   1.00
C1791  C     0.07665   0.62405   0.62789   0.00000  Uiso   1.00
H1792  H     0.08385   0.66034   0.62271   0.00000  Uiso   1.00
H1793  H     0.07490   0.60517   0.59491   0.00000  Uiso   1.00
H1794  H     0.04676   0.62208   0.64341   0.00000  Uiso   1.00
C1795  C     0.42081   0.50005   0.74903   0.00000  Uiso   1.00
C1796  C     0.57908   0.49993   0.74902   0.00000  Uiso   1.00
C1797  C     0.42727   0.49191   0.51931   0.00000  Uiso   1.00
C1798  C     0.56819   0.53806   0.98024   0.00000  Uiso   1.00
C1799  C     0.35422   0.45848   0.74368   0.00000  Uiso   1.00
C1800  C     0.64493   0.54129   0.74276   0.00000  Uiso   1.00
C1801  C     0.64560   0.45845   0.74771   0.00000  Uiso   1.00
C1802  C     0.35409   0.54181   0.74693   0.00000  Uiso   1.00
C1803  C     0.62371   0.49990   0.74685   0.00000  Uiso   1.00
C1804  C     0.37596   0.50016   0.74674   0.00000  Uiso   1.00
C1805  C     0.48778   0.35550   0.71302   0.00000  Uiso   1.00
C1806  C     0.51112   0.64365   0.78798   0.00000  Uiso   1.00
C1807  C     0.51445   0.36030   0.78724   0.00000  Uiso   1.00
C1808  C     0.48086   0.64035   0.71620   0.00000  Uiso   1.00
C1809  C     0.50016   0.49942   0.66452   0.00000  Uiso   1.00
C1810  C     0.50032   0.50098   0.83519   0.00000  Uiso   1.00
C1811  C     0.53402   0.52216   0.90784   0.00000  Uiso   1.00
C1812  C     0.46542   0.48865   0.59036   0.00000  Uiso   1.00
C1813  C     0.50027   0.50367   0.88332   0.00000  Uiso   1.00
C1814  C     0.50081   0.49950   0.61585   0.00000  Uiso   1.00
C1815  C     0.46527   0.49025   0.90433   0.00000  Uiso   1.00
C1816  C     0.53569   0.51530   0.59549   0.00000  Uiso   1.00
C1817  C     0.46325   0.49705   0.95091   0.00000  Uiso   1.00
C1818  C     0.53514   0.52054   0.54880   0.00000  Uiso   1.00
C1819  C     0.49887   0.50991   0.97624   0.00000  Uiso   1.00
C1820  C     0.49931   0.50925   0.52323   0.00000  Uiso   1.00
C1821  C     0.53393   0.52339   0.95467   0.00000  Uiso   1.00
C1822  C     0.46386   0.49652   0.54441   0.00000  Uiso   1.00
C1823  C     0.42657   0.49233   0.97297   0.00000  Uiso   1.00
C1824  C     0.56910   0.53727   0.52691   0.00000  Uiso   1.00
Cu1825 Cu    0.50000   0.54689   0.75000   0.00000  Uiso   1.00
Cu1826 Cu    0.50000   0.45311   0.75000   0.00000  Uiso   1.00
H1827  H     0.39885   0.48714   0.53535   0.00000  Uiso   1.00
H1828  H     0.59513   0.54906   0.96417   0.00000  Uiso   1.00
N1829  N     0.50000   0.61736   0.75000   0.00000  Uiso   1.00
N1830  N     0.50000   0.38264   0.75000   0.00000  Uiso   1.00
O1831  O     0.43988   0.53958   0.75000   0.00000  Uiso   1.00
O1832  O     0.56012   0.46042   0.75000   0.00000  Uiso   1.00
O1833  O     0.56012   0.53958   0.75000   0.00000  Uiso   1.00
O1834  O     0.43988   0.46042   0.75000   0.00000  Uiso   1.00
O1835  O     0.49999   0.53960   0.68513   0.00000  Uiso   1.00
O1836  O     0.50001   0.46040   0.81487   0.00000  Uiso   1.00
O1837  O     0.50001   0.53960   0.81487   0.00000  Uiso   1.00
O1838  O     0.49999   0.46040   0.68513   0.00000  Uiso   1.00
O1839  O     0.56467   0.54378   0.88624   0.00000  Uiso   1.00
C1840  C     0.59392   0.51117   0.87305   0.00000  Uiso   1.00
H1841  H     0.61922   0.52944   0.85815   0.00000  Uiso   1.00
H1842  H     0.58126   0.48653   0.84699   0.00000  Uiso   1.00
H1843  H     0.60677   0.49265   0.90201   0.00000  Uiso   1.00
O1844  O     0.43205   0.47198   0.61117   0.00000  Uiso   1.00
C1845  C     0.42298   0.42671   0.59457   0.00000  Uiso   1.00
H1846  H     0.44067   0.41382   0.56563   0.00000  Uiso   1.00
H1847  H     0.42887   0.40288   0.62133   0.00000  Uiso   1.00
H1848  H     0.39027   0.42456   0.58490   0.00000  Uiso   1.00
O1849  O     0.43190   0.47523   0.87836   0.00000  Uiso   1.00
C1850  C     0.43065   0.42680   0.87792   0.00000  Uiso   1.00
H1851  H     0.45815   0.41133   0.86329   0.00000  Uiso   1.00
H1852  H     0.40415   0.41497   0.85671   0.00000  Uiso   1.00
H1853  H     0.42691   0.41394   0.91191   0.00000  Uiso   1.00
O1854  O     0.56998   0.52666   0.62159   0.00000  Uiso   1.00
C1855  C     0.59365   0.48675   0.62732   0.00000  Uiso   1.00
H1856  H     0.59386   0.46331   0.59693   0.00000  Uiso   1.00
H1857  H     0.58327   0.46831   0.65630   0.00000  Uiso   1.00
H1858  H     0.62556   0.49695   0.63483   0.00000  Uiso   1.00
O1859  O     0.38988   0.48640   0.94972   0.00000  Uiso   1.00
C1860  C     0.37161   0.52987   0.94551   0.00000  Uiso   1.00
H1861  H     0.34271   0.52545   0.92581   0.00000  Uiso   1.00
H1862  H     0.39105   0.55336   0.92723   0.00000  Uiso   1.00
H1863  H     0.36433   0.54563   0.97873   0.00000  Uiso   1.00
O1864  O     0.60445   0.54966   0.55059   0.00000  Uiso   1.00
C1865  C     0.60879   0.59782   0.55077   0.00000  Uiso   1.00
H1866  H     0.63469   0.60787   0.57373   0.00000  Uiso   1.00
H1867  H     0.58130   0.61578   0.56315   0.00000  Uiso   1.00
H1868  H     0.61583   0.60941   0.51707   0.00000  Uiso   1.00
O1869  O     0.37344   0.41651   0.73895   0.00000  Uiso   1.00
C1870  C     0.38014   0.40666   0.69328   0.00000  Uiso   1.00
H1871  H     0.40316   0.37900   0.69149   0.00000  Uiso   1.00
H1872  H     0.39253   0.43685   0.67696   0.00000  Uiso   1.00
C1873  C     0.34198   0.38926   0.66756   0.00000  Uiso   1.00
H1874  H     0.65404   0.41804   0.66154   0.00000  Uiso   1.00
H1875  H     0.35008   0.37363   0.63470   0.00000  Uiso   1.00
H1876  H     0.66010   0.36310   0.68665   0.00000  Uiso   1.00
O1877  O     0.62404   0.58185   0.73637   0.00000  Uiso   1.00
C1878  C     0.63053   0.59688   0.69299   0.00000  Uiso   1.00
H1879  H     0.63513   0.56825   0.66794   0.00000  Uiso   1.00
H1880  H     0.65762   0.61924   0.69378   0.00000  Uiso   1.00
C1881  C     0.59395   0.62416   0.67717   0.00000  Uiso   1.00
H1882  H     0.58927   0.65475   0.69960   0.00000  Uiso   1.00
H1883  H     0.59870   0.63586   0.64308   0.00000  Uiso   1.00
H1884  H     0.56650   0.60222   0.67663   0.00000  Uiso   1.00
O1885  O     0.62601   0.41668   0.74785   0.00000  Uiso   1.00
C1886  C     0.63059   0.39946   0.79093   0.00000  Uiso   1.00
H1887  H     0.60896   0.41740   0.81278   0.00000  Uiso   1.00
H1888  H     0.66176   0.40395   0.80615   0.00000  Uiso   1.00
C1889  C     0.62158   0.34849   0.78823   0.00000  Uiso   1.00
H1890  H     0.64072   0.66481   0.76318   0.00000  Uiso   1.00
H1891  H     0.62750   0.33357   0.82127   0.00000  Uiso   1.00
H1892  H     0.58998   0.34201   0.77687   0.00000  Uiso   1.00
O1893  O     0.37394   0.58347   0.74818   0.00000  Uiso   1.00
C1894  C     0.37232   0.60337   0.79177   0.00000  Uiso   1.00
H1895  H     0.38998   0.58247   0.81580   0.00000  Uiso   1.00
H1896  H     0.34078   0.60589   0.80338   0.00000  Uiso   1.00
C1897  C     0.38984   0.65150   0.79186   0.00000  Uiso   1.00
H1898  H     0.37323   0.33854   0.76704   0.00000  Uiso   1.00
H1899  H     0.38790   0.33525   0.82549   0.00000  Uiso   1.00
H1900  H     0.42162   0.65022   0.78171   0.00000  Uiso   1.00
O1901  O     0.48085   0.37562   0.67251   0.00000  Uiso   1.00
C1902  C     0.50552   0.35497   0.63912   0.00000  Uiso   1.00
H1903  H     0.48693   0.34970   0.60772   0.00000  Uiso   1.00
H1904  H     0.51854   0.65445   0.64714   0.00000  Uiso   1.00
C1905  C     0.54119   0.38531   0.62982   0.00000  Uiso   1.00
H1906  H     0.53029   0.41641   0.61344   0.00000  Uiso   1.00
H1907  H     0.55838   0.39435   0.66148   0.00000  Uiso   1.00
H1908  H     0.56171   0.36682   0.60666   0.00000  Uiso   1.00
O1909  O     0.51340   0.62238   0.82830   0.00000  Uiso   1.00
C1910  C     0.47524   0.62676   0.84867   0.00000  Uiso   1.00
H1911  H     0.45379   0.60131   0.83304   0.00000  Uiso   1.00
H1912  H     0.46161   0.66148   0.84513   0.00000  Uiso   1.00
C1913  C     0.47935   0.61858   0.89871   0.00000  Uiso   1.00
H1914  H     0.46479   0.64704   0.91810   0.00000  Uiso   1.00
H1915  H     0.46378   0.58644   0.90645   0.00000  Uiso   1.00
H1916  H     0.51166   0.61675   0.91018   0.00000  Uiso   1.00
O1917  O     0.53614   0.38741   0.82010   0.00000  Uiso   1.00
C1918  C     0.54516   0.36741   0.86159   0.00000  Uiso   1.00
H1919  H     0.56458   0.33650   0.85760   0.00000  Uiso   1.00
H1920  H     0.51688   0.36101   0.87852   0.00000  Uiso   1.00
C1921  C     0.56823   0.40022   0.89400   0.00000  Uiso   1.00
H1922  H     0.55102   0.43243   0.89841   0.00000  Uiso   1.00
H1923  H     0.57149   0.38459   0.92709   0.00000  Uiso   1.00
H1924  H     0.59910   0.40713   0.88291   0.00000  Uiso   1.00
O1925  O     0.44296   0.62441   0.70076   0.00000  Uiso   1.00
C1926  C     0.44257   0.60283   0.65766   0.00000  Uiso   1.00
H1927  H     0.43348   0.56649   0.66072   0.00000  Uiso   1.00
H1928  H     0.47186   0.60300   0.64086   0.00000  Uiso   1.00
C1929  C     0.40998   0.62405   0.62789   0.00000  Uiso   1.00
H1930  H     0.41719   0.66034   0.62271   0.00000  Uiso   1.00
H1931  H     0.40824   0.60517   0.59491   0.00000  Uiso   1.00
H1932  H     0.38009   0.62208   0.64341   0.00000  Uiso   1.00
C1933  C     0.75415   0.50005   0.74903   0.00000  Uiso   1.00
C1934  C     0.91242   0.49993   0.74902   0.00000  Uiso   1.00
C1935  C     0.76061   0.49191   0.51931   0.00000  Uiso   1.00
C1936  C     0.90152   0.53806   0.98024   0.00000  Uiso   1.00
C1937  C     0.68756   0.45848   0.74368   0.00000  Uiso   1.00
C1938  C     0.97826   0.54129   0.74276   0.00000  Uiso   1.00
C1939  C     0.97893   0.45845   0.74771   0.00000  Uiso   1.00
C1940  C     0.68742   0.54181   0.74693   0.00000  Uiso   1.00
C1941  C     0.95704   0.49990   0.74685   0.00000  Uiso   1.00
C1942  C     0.70929   0.50016   0.74674   0.00000  Uiso   1.00
C1943  C     0.82111   0.35550   0.71302   0.00000  Uiso   1.00
C1944  C     0.84445   0.64365   0.78798   0.00000  Uiso   1.00
C1945  C     0.84778   0.36030   0.78724   0.00000  Uiso   1.00
C1946  C     0.81419   0.64035   0.71620   0.00000  Uiso   1.00
C1947  C     0.83349   0.49942   0.66452   0.00000  Uiso   1.00
C1948  C     0.83365   0.50098   0.83519   0.00000  Uiso   1.00
C1949  C     0.86735   0.52216   0.90784   0.00000  Uiso   1.00
C1950  C     0.79876   0.48865   0.59036   0.00000  Uiso   1.00
C1951  C     0.83361   0.50367   0.88332   0.00000  Uiso   1.00
C1952  C     0.83414   0.49950   0.61585   0.00000  Uiso   1.00
C1953  C     0.79861   0.49025   0.90433   0.00000  Uiso   1.00
C1954  C     0.86903   0.51530   0.59549   0.00000  Uiso   1.00
C1955  C     0.79658   0.49705   0.95091   0.00000  Uiso   1.00
C1956  C     0.86847   0.52054   0.54880   0.00000  Uiso   1.00
C1957  C     0.83220   0.50991   0.97624   0.00000  Uiso   1.00
C1958  C     0.83264   0.50925   0.52323   0.00000  Uiso   1.00
C1959  C     0.86726   0.52339   0.95467   0.00000  Uiso   1.00
C1960  C     0.79720   0.49652   0.54441   0.00000  Uiso   1.00
C1961  C     0.75990   0.49233   0.97297   0.00000  Uiso   1.00
C1962  C     0.90243   0.53727   0.52691   0.00000  Uiso   1.00
Cu1963 Cu    0.83333   0.54689   0.75000   0.00000  Uiso   1.00
Cu1964 Cu    0.83333   0.45311   0.75000   0.00000  Uiso   1.00
H1965  H     0.73218   0.48714   0.53535   0.00000  Uiso   1.00
H1966  H     0.92846   0.54906   0.96417   0.00000  Uiso   1.00
N1967  N     0.83333   0.61736   0.75000   0.00000  Uiso   1.00
N1968  N     0.83333   0.38264   0.75000   0.00000  Uiso   1.00
O1969  O     0.77321   0.53958   0.75000   0.00000  Uiso   1.00
O1970  O     0.89345   0.46042   0.75000   0.00000  Uiso   1.00
O1971  O     0.89345   0.53958   0.75000   0.00000  Uiso   1.00
O1972  O     0.77321   0.46042   0.75000   0.00000  Uiso   1.00
O1973  O     0.83332   0.53960   0.68513   0.00000  Uiso   1.00
O1974  O     0.83334   0.46040   0.81487   0.00000  Uiso   1.00
O1975  O     0.83334   0.53960   0.81487   0.00000  Uiso   1.00
O1976  O     0.83332   0.46040   0.68513   0.00000  Uiso   1.00
O1977  O     0.89800   0.54378   0.88624   0.00000  Uiso   1.00
C1978  C     0.92725   0.51117   0.87305   0.00000  Uiso   1.00
H1979  H     0.95255   0.52944   0.85815   0.00000  Uiso   1.00
H1980  H     0.91459   0.48653   0.84699   0.00000  Uiso   1.00
H1981  H     0.94010   0.49265   0.90201   0.00000  Uiso   1.00
O1982  O     0.76539   0.47198   0.61117   0.00000  Uiso   1.00
C1983  C     0.75632   0.42671   0.59457   0.00000  Uiso   1.00
H1984  H     0.77401   0.41382   0.56563   0.00000  Uiso   1.00
H1985  H     0.76221   0.40288   0.62133   0.00000  Uiso   1.00
H1986  H     0.72361   0.42456   0.58490   0.00000  Uiso   1.00
O1987  O     0.76524   0.47523   0.87836   0.00000  Uiso   1.00
C1988  C     0.76398   0.42680   0.87792   0.00000  Uiso   1.00
H1989  H     0.79148   0.41133   0.86329   0.00000  Uiso   1.00
H1990  H     0.73748   0.41497   0.85671   0.00000  Uiso   1.00
H1991  H     0.76024   0.41394   0.91191   0.00000  Uiso   1.00
O1992  O     0.90331   0.52666   0.62159   0.00000  Uiso   1.00
C1993  C     0.92699   0.48675   0.62732   0.00000  Uiso   1.00
H1994  H     0.92719   0.46331   0.59693   0.00000  Uiso   1.00
H1995  H     0.91660   0.46831   0.65630   0.00000  Uiso   1.00
H1996  H     0.95889   0.49695   0.63483   0.00000  Uiso   1.00
O1997  O     0.72322   0.48640   0.94972   0.00000  Uiso   1.00
C1998  C     0.70495   0.52987   0.94551   0.00000  Uiso   1.00
H1999  H     0.67604   0.52545   0.92581   0.00000  Uiso   1.00
H2000  H     0.72438   0.55336   0.92723   0.00000  Uiso   1.00
H2001  H     0.69766   0.54563   0.97873   0.00000  Uiso   1.00
O2002  O     0.93778   0.54966   0.55059   0.00000  Uiso   1.00
C2003  C     0.94212   0.59782   0.55077   0.00000  Uiso   1.00
H2004  H     0.96802   0.60787   0.57373   0.00000  Uiso   1.00
H2005  H     0.91463   0.61578   0.56315   0.00000  Uiso   1.00
H2006  H     0.94916   0.60941   0.51707   0.00000  Uiso   1.00
O2007  O     0.70678   0.41651   0.73895   0.00000  Uiso   1.00
C2008  C     0.71347   0.40666   0.69328   0.00000  Uiso   1.00
H2009  H     0.73650   0.37900   0.69149   0.00000  Uiso   1.00
H2010  H     0.72586   0.43685   0.67696   0.00000  Uiso   1.00
C2011  C     0.67531   0.38926   0.66756   0.00000  Uiso   1.00
H2012  H     0.98737   0.41804   0.66154   0.00000  Uiso   1.00
H2013  H     0.68342   0.37363   0.63470   0.00000  Uiso   1.00
H2014  H     0.99344   0.36310   0.68665   0.00000  Uiso   1.00
O2015  O     0.95737   0.58185   0.73637   0.00000  Uiso   1.00
C2016  C     0.96386   0.59688   0.69299   0.00000  Uiso   1.00
H2017  H     0.96847   0.56825   0.66794   0.00000  Uiso   1.00
H2018  H     0.99095   0.61924   0.69378   0.00000  Uiso   1.00
C2019  C     0.92728   0.62416   0.67717   0.00000  Uiso   1.00
H2020  H     0.92261   0.65475   0.69960   0.00000  Uiso   1.00
H2021  H     0.93203   0.63586   0.64308   0.00000  Uiso   1.00
H2022  H     0.89983   0.60222   0.67663   0.00000  Uiso   1.00
O2023  O     0.95934   0.41668   0.74785   0.00000  Uiso   1.00
C2024  C     0.96392   0.39946   0.79093   0.00000  Uiso   1.00
H2025  H     0.94230   0.41740   0.81278   0.00000  Uiso   1.00
H2026  H     0.99509   0.40395   0.80615   0.00000  Uiso   1.00
C2027  C     0.95492   0.34849   0.78823   0.00000  Uiso   1.00
H2028  H     0.97405   0.66481   0.76318   0.00000  Uiso   1.00
H2029  H     0.96083   0.33357   0.82127   0.00000  Uiso   1.00
H2030  H     0.92332   0.34201   0.77687   0.00000  Uiso   1.00
O2031  O     0.70727   0.58347   0.74818   0.00000  Uiso   1.00
C2032  C     0.70565   0.60337   0.79177   0.00000  Uiso   1.00
H2033  H     0.72331   0.58247   0.81580   0.00000  Uiso   1.00
H2034  H     0.67411   0.60589   0.80338   0.00000  Uiso   1.00
C2035  C     0.72318   0.65150   0.79186   0.00000  Uiso   1.00
H2036  H     0.70656   0.33854   0.76704   0.00000  Uiso   1.00
H2037  H     0.72124   0.33525   0.82549   0.00000  Uiso   1.00
H2038  H     0.75495   0.65022   0.78171   0.00000  Uiso   1.00
O2039  O     0.81418   0.37562   0.67251   0.00000  Uiso   1.00
C2040  C     0.83885   0.35497   0.63912   0.00000  Uiso   1.00
H2041  H     0.82027   0.34970   0.60772   0.00000  Uiso   1.00
H2042  H     0.85187   0.65445   0.64714   0.00000  Uiso   1.00
C2043  C     0.87453   0.38531   0.62982   0.00000  Uiso   1.00
H2044  H     0.86362   0.41641   0.61344   0.00000  Uiso   1.00
H2045  H     0.89171   0.39435   0.66148   0.00000  Uiso   1.00
H2046  H     0.89504   0.36682   0.60666   0.00000  Uiso   1.00
O2047  O     0.84673   0.62238   0.82830   0.00000  Uiso   1.00
C2048  C     0.80857   0.62676   0.84867   0.00000  Uiso   1.00
H2049  H     0.78712   0.60131   0.83304   0.00000  Uiso   1.00
H2050  H     0.79494   0.66148   0.84513   0.00000  Uiso   1.00
C2051  C     0.81269   0.61858   0.89871   0.00000  Uiso   1.00
H2052  H     0.79812   0.64704   0.91810   0.00000  Uiso   1.00
H2053  H     0.79711   0.58644   0.90645   0.00000  Uiso   1.00
H2054  H     0.84499   0.61675   0.91018   0.00000  Uiso   1.00
O2055  O     0.86948   0.38741   0.82010   0.00000  Uiso   1.00
C2056  C     0.87850   0.36741   0.86159   0.00000  Uiso   1.00
H2057  H     0.89791   0.33650   0.85760   0.00000  Uiso   1.00
H2058  H     0.85021   0.36101   0.87852   0.00000  Uiso   1.00
C2059  C     0.90157   0.40022   0.89400   0.00000  Uiso   1.00
H2060  H     0.88436   0.43243   0.89841   0.00000  Uiso   1.00
H2061  H     0.90482   0.38459   0.92709   0.00000  Uiso   1.00
H2062  H     0.93243   0.40713   0.88291   0.00000  Uiso   1.00
O2063  O     0.77629   0.62441   0.70076   0.00000  Uiso   1.00
C2064  C     0.77590   0.60283   0.65766   0.00000  Uiso   1.00
H2065  H     0.76681   0.56649   0.66072   0.00000  Uiso   1.00
H2066  H     0.80519   0.60300   0.64086   0.00000  Uiso   1.00
C2067  C     0.74331   0.62405   0.62789   0.00000  Uiso   1.00
H2068  H     0.75052   0.66034   0.62271   0.00000  Uiso   1.00
H2069  H     0.74157   0.60517   0.59491   0.00000  Uiso   1.00
H2070  H     0.71342   0.62208   0.64341   0.00000  Uiso   1.00
C2071  C     0.08748   0.83338   0.74903   0.00000  Uiso   1.00
C2072  C     0.24575   0.83327   0.74902   0.00000  Uiso   1.00
C2073  C     0.09394   0.82524   0.51931   0.00000  Uiso   1.00
C2074  C     0.23486   0.87140   0.98024   0.00000  Uiso   1.00
C2075  C     0.02089   0.79182   0.74368   0.00000  Uiso   1.00
C2076  C     0.31160   0.87462   0.74276   0.00000  Uiso   1.00
C2077  C     0.31226   0.79178   0.74771   0.00000  Uiso   1.00
C2078  C     0.02075   0.87514   0.74693   0.00000  Uiso   1.00
C2079  C     0.29037   0.83323   0.74685   0.00000  Uiso   1.00
C2080  C     0.04262   0.83349   0.74674   0.00000  Uiso   1.00
C2081  C     0.15445   0.68883   0.71302   0.00000  Uiso   1.00
C2082  C     0.17779   0.97698   0.78798   0.00000  Uiso   1.00
C2083  C     0.18111   0.69363   0.78724   0.00000  Uiso   1.00
C2084  C     0.14753   0.97369   0.71620   0.00000  Uiso   1.00
C2085  C     0.16683   0.83275   0.66452   0.00000  Uiso   1.00
C2086  C     0.16699   0.83431   0.83519   0.00000  Uiso   1.00
C2087  C     0.20069   0.85549   0.90784   0.00000  Uiso   1.00
C2088  C     0.13209   0.82198   0.59036   0.00000  Uiso   1.00
C2089  C     0.16694   0.83700   0.88332   0.00000  Uiso   1.00
C2090  C     0.16747   0.83283   0.61585   0.00000  Uiso   1.00
C2091  C     0.13194   0.82358   0.90433   0.00000  Uiso   1.00
C2092  C     0.20236   0.84863   0.59549   0.00000  Uiso   1.00
C2093  C     0.12992   0.83039   0.95091   0.00000  Uiso   1.00
C2094  C     0.20180   0.85387   0.54880   0.00000  Uiso   1.00
C2095  C     0.16553   0.84325   0.97624   0.00000  Uiso   1.00
C2096  C     0.16597   0.84258   0.52323   0.00000  Uiso   1.00
C2097  C     0.20059   0.85672   0.95467   0.00000  Uiso   1.00
C2098  C     0.13053   0.82985   0.54441   0.00000  Uiso   1.00
C2099  C     0.09324   0.82566   0.97297   0.00000  Uiso   1.00
C2100  C     0.23576   0.87060   0.52691   0.00000  Uiso   1.00
Cu2101 Cu    0.16667   0.88022   0.75000   0.00000  Uiso   1.00
Cu2102 Cu    0.16667   0.78645   0.75000   0.00000  Uiso   1.00
H2103  H     0.06552   0.82048   0.53535   0.00000  Uiso   1.00
H2104  H     0.26179   0.88239   0.96417   0.00000  Uiso   1.00
N2105  N     0.16667   0.95069   0.75000   0.00000  Uiso   1.00
N2106  N     0.16667   0.71598   0.75000   0.00000  Uiso   1.00
O2107  O     0.10655   0.87291   0.75000   0.00000  Uiso   1.00
O2108  O     0.22679   0.79375   0.75000   0.00000  Uiso   1.00
O2109  O     0.22679   0.87291   0.75000   0.00000  Uiso   1.00
O2110  O     0.10655   0.79375   0.75000   0.00000  Uiso   1.00
O2111  O     0.16666   0.87293   0.68513   0.00000  Uiso   1.00
O2112  O     0.16668   0.79373   0.81487   0.00000  Uiso   1.00
O2113  O     0.16668   0.87293   0.81487   0.00000  Uiso   1.00
O2114  O     0.16666   0.79373   0.68513   0.00000  Uiso   1.00
O2115  O     0.23134   0.87711   0.88624   0.00000  Uiso   1.00
C2116  C     0.26059   0.84450   0.87305   0.00000  Uiso   1.00
H2117  H     0.28588   0.86277   0.85815   0.00000  Uiso   1.00
H2118  H     0.24792   0.81986   0.84699   0.00000  Uiso   1.00
H2119  H     0.27344   0.82598   0.90201   0.00000  Uiso   1.00
O2120  O     0.09872   0.80531   0.61117   0.00000  Uiso   1.00
C2121  C     0.08965   0.76004   0.59457   0.00000  Uiso   1.00
H2122  H     0.10734   0.74715   0.56563   0.00000  Uiso   1.00
H2123  H     0.09554   0.73622   0.62133   0.00000  Uiso   1.00
H2124  H     0.05694   0.75789   0.58490   0.00000  Uiso   1.00
O2125  O     0.09857   0.80856   0.87836   0.00000  Uiso   1.00
C2126  C     0.09731   0.76013   0.87792   0.00000  Uiso   1.00
H2127  H     0.12482   0.74466   0.86329   0.00000  Uiso   1.00
H2128  H     0.07081   0.74831   0.85671   0.00000  Uiso   1.00
H2129  H     0.09358   0.74727   0.91191   0.00000  Uiso   1.00
O2130  O     0.23664   0.85999   0.62159   0.00000  Uiso   1.00
C2131  C     0.26032   0.82009   0.62732   0.00000  Uiso   1.00
H2132  H     0.26052   0.79664   0.59693   0.00000  Uiso   1.00
H2133  H     0.24993   0.80165   0.65630   0.00000  Uiso   1.00
H2134  H     0.29222   0.83028   0.63483   0.00000  Uiso   1.00
O2135  O     0.05655   0.81973   0.94972   0.00000  Uiso   1.00
C2136  C     0.03828   0.86321   0.94551   0.00000  Uiso   1.00
H2137  H     0.00937   0.85879   0.92581   0.00000  Uiso   1.00
H2138  H     0.05771   0.88669   0.92723   0.00000  Uiso   1.00
H2139  H     0.03100   0.87897   0.97873   0.00000  Uiso   1.00
O2140  O     0.27111   0.88299   0.55059   0.00000  Uiso   1.00
C2141  C     0.27546   0.93115   0.55077   0.00000  Uiso   1.00
H2142  H     0.30135   0.94121   0.57373   0.00000  Uiso   1.00
H2143  H     0.24797   0.94912   0.56315   0.00000  Uiso   1.00
H2144  H     0.28250   0.94274   0.51707   0.00000  Uiso   1.00
O2145  O     0.04011   0.74984   0.73895   0.00000  Uiso   1.00
C2146  C     0.04680   0.73999   0.69328   0.00000  Uiso   1.00
H2147  H     0.06983   0.71234   0.69149   0.00000  Uiso   1.00
H2148  H     0.05919   0.77019   0.67696   0.00000  Uiso   1.00
C2149  C     0.00865   0.72260   0.66756   0.00000  Uiso   1.00
H2150  H     0.32070   0.75137   0.66154   0.00000  Uiso   1.00
H2151  H     0.01675   0.70697   0.63470   0.00000  Uiso   1.00
H2152  H     0.32677   0.69644   0.68665   0.00000  Uiso   1.00
O2153  O     0.29070   0.91518   0.73637   0.00000  Uiso   1.00
C2154  C     0.29720   0.93021   0.69299   0.00000  Uiso   1.00
H2155  H     0.30180   0.90159   0.66794   0.00000  Uiso   1.00
H2156  H     0.32429   0.95258   0.69378   0.00000  Uiso   1.00
C2157  C     0.26061   0.95749   0.67717   0.00000  Uiso   1.00
H2158  H     0.25594   0.98809   0.69960   0.00000  Uiso   1.00
H2159  H     0.26536   0.96920   0.64308   0.00000  Uiso   1.00
H2160  H     0.23316   0.93555   0.67663   0.00000  Uiso   1.00
O2161  O     0.29267   0.75002   0.74785   0.00000  Uiso   1.00
C2162  C     0.29725   0.73279   0.79093   0.00000  Uiso   1.00
H2163  H     0.27563   0.75073   0.81278   0.00000  Uiso   1.00
H2164  H     0.32842   0.73729   0.80615   0.00000  Uiso   1.00
C2165  C     0.28825   0.68182   0.78823   0.00000  Uiso   1.00
H2166  H     0.30738   0.99814   0.76318   0.00000  Uiso   1.00
H2167  H     0.29417   0.66690   0.82127   0.00000  Uiso   1.00
H2168  H     0.25665   0.67534   0.77687   0.00000  Uiso   1.00
O2169  O     0.04061   0.91680   0.74818   0.00000  Uiso   1.00
C2170  C     0.03899   0.93670   0.79177   0.00000  Uiso   1.00
H2171  H     0.05664   0.91581   0.81580   0.00000  Uiso   1.00
H2172  H     0.00745   0.93923   0.80338   0.00000  Uiso   1.00
C2173  C     0.05651   0.98483   0.79186   0.00000  Uiso   1.00
H2174  H     0.03990   0.67187   0.76704   0.00000  Uiso   1.00
H2175  H     0.05457   0.66858   0.82549   0.00000  Uiso   1.00
H2176  H     0.08828   0.98356   0.78171   0.00000  Uiso   1.00
O2177  O     0.14751   0.70895   0.67251   0.00000  Uiso   1.00
C2178  C     0.17218   0.68830   0.63912   0.00000  Uiso   1.00
H2179  H     0.15360   0.68303   0.60772   0.00000  Uiso   1.00
H2180  H     0.18520   0.98778   0.64714   0.00000  Uiso   1.00
C2181  C     0.20786   0.71864   0.62982   0.00000  Uiso   1.00
H2182  H     0.19696   0.74975   0.61344   0.00000  Uiso   1.00
H2183  H     0.22505   0.72769   0.66148   0.00000  Uiso   1.00
H2184  H     0.22837   0.70015   0.60666   0.00000  Uiso   1.00
O2185  O     0.18007   0.95572   0.82830   0.00000  Uiso   1.00
C2186  C     0.14191   0.96010   0.84867   0.00000  Uiso   1.00
H2187  H     0.12046   0.93464   0.83304   0.00000  Uiso   1.00
H2188  H     0.12828   0.99481   0.84513   0.00000  Uiso   1.00
C2189  C     0.14602   0.95192   0.89871   0.00000  Uiso   1.00
H2190  H     0.13146   0.98037   0.91810   0.00000  Uiso   1.00
H2191  H     0.13045   0.91977   0.90645   0.00000  Uiso   1.00
H2192  H     0.17832   0.95008   0.91018   0.00000  Uiso   1.00
O2193  O     0.20281   0.72075   0.82010   0.00000  Uiso   1.00
C2194  C     0.21183   0.70075   0.86159   0.00000  Uiso   1.00
H2195  H     0.23124   0.66984   0.85760   0.00000  Uiso   1.00
H2196  H     0.18355   0.69435   0.87852   0.00000  Uiso   1.00
C2197  C     0.23490   0.73355   0.89400   0.00000  Uiso   1.00
H2198  H     0.21769   0.76576   0.89841   0.00000  Uiso   1.00
H2199  H     0.23815   0.71792   0.92709   0.00000  Uiso   1.00
H2200  H     0.26577   0.74046   0.88291   0.00000  Uiso   1.00
O2201  O     0.10962   0.95774   0.70076   0.00000  Uiso   1.00
C2202  C     0.10923   0.93616   0.65766   0.00000  Uiso   1.00
H2203  H     0.10014   0.89983   0.66072   0.00000  Uiso   1.00
H2204  H     0.13853   0.93633   0.64086   0.00000  Uiso   1.00
C2205  C     0.07665   0.95738   0.62789   0.00000  Uiso   1.00
H2206  H     0.08385   0.99368   0.62271   0.00000  Uiso   1.00
H2207  H     0.07490   0.93850   0.59491   0.00000  Uiso   1.00
H2208  H     0.04676   0.95541   0.64341   0.00000  Uiso   1.00
C2209  C     0.42081   0.83338   0.74903   0.00000  Uiso   1.00
C2210  C     0.57908   0.83327   0.74902   0.00000  Uiso   1.00
C2211  C     0.42727   0.82524   0.51931   0.00000  Uiso   1.00
C2212  C     0.56819   0.87140   0.98024   0.00000  Uiso   1.00
C2213  C     0.35422   0.79182   0.74368   0.00000  Uiso   1.00
C2214  C     0.64493   0.87462   0.74276   0.00000  Uiso   1.00
C2215  C     0.64560   0.79178   0.74771   0.00000  Uiso   1.00
C2216  C     0.35409   0.87514   0.74693   0.00000  Uiso   1.00
C2217  C     0.62371   0.83323   0.74685   0.00000  Uiso   1.00
C2218  C     0.37596   0.83349   0.74674   0.00000  Uiso   1.00
C2219  C     0.48778   0.68883   0.71302   0.00000  Uiso   1.00
C2220  C     0.51112   0.97698   0.78798   0.00000  Uiso   1.00
C2221  C     0.51445   0.69363   0.78724   0.00000  Uiso   1.00
C2222  C     0.48086   0.97369   0.71620   0.00000  Uiso   1.00
C2223  C     0.50016   0.83275   0.66452   0.00000  Uiso   1.00
C2224  C     0.50032   0.83431   0.83519   0.00000  Uiso   1.00
C2225  C     0.53402   0.85549   0.90784   0.00000  Uiso   1.00
C2226  C     0.46542   0.82198   0.59036   0.00000  Uiso   1.00
C2227  C     0.50027   0.83700   0.88332   0.00000  Uiso   1.00
C2228  C     0.50081   0.83283   0.61585   0.00000  Uiso   1.00
C2229  C     0.46527   0.82358   0.90433   0.00000  Uiso   1.00
C2230  C     0.53569   0.84863   0.59549   0.00000  Uiso   1.00
C2231  C     0.46325   0.83039   0.95091   0.00000  Uiso   1.00
C2232  C     0.53514   0.85387   0.54880   0.00000  Uiso   1.00
C2233  C     0.49887   0.84325   0.97624   0.00000  Uiso   1.00
C2234  C     0.49931   0.84258   0.52323   0.00000  Uiso   1.00
C2235  C     0.53393   0.85672   0.95467   0.00000  Uiso   1.00
C2236  C     0.46386   0.82985   0.54441   0.00000  Uiso   1.00
C2237  C     0.42657   0.82566   0.97297   0.00000  Uiso   1.00
C2238  C     0.56910   0.87060   0.52691   0.00000  Uiso   1.00
Cu2239 Cu    0.50000   0.88022   0.75000   0.00000  Uiso   1.00
Cu2240 Cu    0.50000   0.78645   0.75000   0.00000  Uiso   1.00
H2241  H     0.39885   0.82048   0.53535   0.00000  Uiso   1.00
H2242  H     0.59513   0.88239   0.96417   0.00000  Uiso   1.00
N2243  N     0.50000   0.95069   0.75000   0.00000  Uiso   1.00
N2244  N     0.50000   0.71598   0.75000   0.00000  Uiso   1.00
O2245  O     0.43988   0.87291   0.75000   0.00000  Uiso   1.00
O2246  O     0.56012   0.79375   0.75000   0.00000  Uiso   1.00
O2247  O     0.56012   0.87291   0.75000   0.00000  Uiso   1.00
O2248  O     0.43988   0.79375   0.75000   0.00000  Uiso   1.00
O2249  O     0.49999   0.87293   0.68513   0.00000  Uiso   1.00
O2250  O     0.50001   0.79373   0.81487   0.00000  Uiso   1.00
O2251  O     0.50001   0.87293   0.81487   0.00000  Uiso   1.00
O2252  O     0.49999   0.79373   0.68513   0.00000  Uiso   1.00
O2253  O     0.56467   0.87711   0.88624   0.00000  Uiso   1.00
C2254  C     0.59392   0.84450   0.87305   0.00000  Uiso   1.00
H2255  H     0.61922   0.86277   0.85815   0.00000  Uiso   1.00
H2256  H     0.58126   0.81986   0.84699   0.00000  Uiso   1.00
H2257  H     0.60677   0.82598   0.90201   0.00000  Uiso   1.00
O2258  O     0.43205   0.80531   0.61117   0.00000  Uiso   1.00
C2259  C     0.42298   0.76004   0.59457   0.00000  Uiso   1.00
H2260  H     0.44067   0.74715   0.56563   0.00000  Uiso   1.00
H2261  H     0.42887   0.73622   0.62133   0.00000  Uiso   1.00
H2262  H     0.39027   0.75789   0.58490   0.00000  Uiso   1.00
O2263  O     0.43190   0.80856   0.87836   0.00000  Uiso   1.00
C2264  C     0.43065   0.76013   0.87792   0.00000  Uiso   1.00
H2265  H     0.45815   0.74466   0.86329   0.00000  Uiso   1.00
H2266  H     0.40415   0.74831   0.85671   0.00000  Uiso   1.00
H2267  H     0.42691   0.74727   0.91191   0.00000  Uiso   1.00
O2268  O     0.56998   0.85999   0.62159   0.00000  Uiso   1.00
C2269  C     0.59365   0.82009   0.62732   0.00000  Uiso   1.00
H2270  H     0.59386   0.79664   0.59693   0.00000  Uiso   1.00
H2271  H     0.58327   0.80165   0.65630   0.00000  Uiso   1.00
H2272  H     0.62556   0.83028   0.63483   0.00000  Uiso   1.00
O2273  O     0.38988   0.81973   0.94972   0.00000  Uiso   1.00
C2274  C     0.37161   0.86321   0.94551   0.00000  Uiso   1.00
H2275  H     0.34271   0.85879   0.92581   0.00000  Uiso   1.00
H2276  H     0.39105   0.88669   0.92723   0.00000  Uiso   1.00
H2277  H     0.36433   0.87897   0.97873   0.00000  Uiso   1.00
O2278  O     0.60445   0.88299   0.55059   0.00000  Uiso   1.00
C2279  C     0.60879   0.93115   0.55077   0.00000  Uiso   1.00
H2280  H     0.63469   0.94121   0.57373   0.00000  Uiso   1.00
H2281  H     0.58130   0.94912   0.56315   0.00000  Uiso   1.00
H2282  H     0.61583   0.94274   0.51707   0.00000  Uiso   1.00
O2283  O     0.37344   0.74984   0.73895   0.00000  Uiso   1.00
C2284  C     0.38014   0.73999   0.69328   0.00000  Uiso   1.00
H2285  H     0.40316   0.71234   0.69149   0.00000  Uiso   1.00
H2286  H     0.39253   0.77019   0.67696   0.00000  Uiso   1.00
C2287  C     0.34198   0.72260   0.66756   0.00000  Uiso   1.00
H2288  H     0.65404   0.75137   0.66154   0.00000  Uiso   1.00
H2289  H     0.35008   0.70697   0.63470   0.00000  Uiso   1.00
H2290  H     0.66010   0.69644   0.68665   0.00000  Uiso   1.00
O2291  O     0.62404   0.91518   0.73637   0.00000  Uiso   1.00
C2292  C     0.63053   0.93021   0.69299   0.00000  Uiso   1.00
H2293  H     0.63513   0.90159   0.66794   0.00000  Uiso   1.00
H2294  H     0.65762   0.95258   0.69378   0.00000  Uiso   1.00
C2295  C     0.59395   0.95749   0.67717   0.00000  Uiso   1.00
H2296  H     0.58927   0.98809   0.69960   0.00000  Uiso   1.00
H2297  H     0.59870   0.96920   0.64308   0.00000  Uiso   1.00
H2298  H     0.56650   0.93555   0.67663   0.00000  Uiso   1.00
O2299  O     0.62601   0.75002   0.74785   0.00000  Uiso   1.00
C2300  C     0.63059   0.73279   0.79093   0.00000  Uiso   1.00
H2301  H     0.60896   0.75073   0.81278   0.00000  Uiso   1.00
H2302  H     0.66176   0.73729   0.80615   0.00000  Uiso   1.00
C2303  C     0.62158   0.68182   0.78823   0.00000  Uiso   1.00
H2304  H     0.64072   0.99814   0.76318   0.00000  Uiso   1.00
H2305  H     0.62750   0.66690   0.82127   0.00000  Uiso   1.00
H2306  H     0.58998   0.67534   0.77687   0.00000  Uiso   1.00
O2307  O     0.37394   0.91680   0.74818   0.00000  Uiso   1.00
C2308  C     0.37232   0.93670   0.79177   0.00000  Uiso   1.00
H2309  H     0.38998   0.91581   0.81580   0.00000  Uiso   1.00
H2310  H     0.34078   0.93923   0.80338   0.00000  Uiso   1.00
C2311  C     0.38984   0.98483   0.79186   0.00000  Uiso   1.00
H2312  H     0.37323   0.67187   0.76704   0.00000  Uiso   1.00
H2313  H     0.38790   0.66858   0.82549   0.00000  Uiso   1.00
H2314  H     0.42162   0.98356   0.78171   0.00000  Uiso   1.00
O2315  O     0.48085   0.70895   0.67251   0.00000  Uiso   1.00
C2316  C     0.50552   0.68830   0.63912   0.00000  Uiso   1.00
H2317  H     0.48693   0.68303   0.60772   0.00000  Uiso   1.00
H2318  H     0.51854   0.98778   0.64714   0.00000  Uiso   1.00
C2319  C     0.54119   0.71864   0.62982   0.00000  Uiso   1.00
H2320  H     0.53029   0.74975   0.61344   0.00000  Uiso   1.00
H2321  H     0.55838   0.72769   0.66148   0.00000  Uiso   1.00
H2322  H     0.56171   0.70015   0.60666   0.00000  Uiso   1.00
O2323  O     0.51340   0.95572   0.82830   0.00000  Uiso   1.00
C2324  C     0.47524   0.96010   0.84867   0.00000  Uiso   1.00
H2325  H     0.45379   0.93464   0.83304   0.00000  Uiso   1.00
H2326  H     0.46161   0.99481   0.84513   0.00000  Uiso   1.00
C2327  C     0.47935   0.95192   0.89871   0.00000  Uiso   1.00
H2328  H     0.46479   0.98037   0.91810   0.00000  Uiso   1.00
H2329  H     0.46378   0.91977   0.90645   0.00000  Uiso   1.00
H2330  H     0.51166   0.95008   0.91018   0.00000  Uiso   1.00
O2331  O     0.53614   0.72075   0.82010   0.00000  Uiso   1.00
C2332  C     0.54516   0.70075   0.86159   0.00000  Uiso   1.00
H2333  H     0.56458   0.66984   0.85760   0.00000  Uiso   1.00
H2334  H     0.51688   0.69435   0.87852   0.00000  Uiso   1.00
C2335  C     0.56823   0.73355   0.89400   0.00000  Uiso   1.00
H2336  H     0.55102   0.76576   0.89841   0.00000  Uiso   1.00
H2337  H     0.57149   0.71792   0.92709   0.00000  Uiso   1.00
H2338  H     0.59910   0.74046   0.88291   0.00000  Uiso   1.00
O2339  O     0.44296   0.95774   0.70076   0.00000  Uiso   1.00
C2340  C     0.44257   0.93616   0.65766   0.00000  Uiso   1.00
H2341  H     0.43348   0.89983   0.66072   0.00000  Uiso   1.00
H2342  H     0.47186   0.93633   0.64086   0.00000  Uiso   1.00
C2343  C     0.40998   0.95738   0.62789   0.00000  Uiso   1.00
H2344  H     0.41719   0.99368   0.62271   0.00000  Uiso   1.00
H2345  H     0.40824   0.93850   0.59491   0.00000  Uiso   1.00
H2346  H     0.38009   0.95541   0.64341   0.00000  Uiso   1.00
C2347  C     0.75415   0.83338   0.74903   0.00000  Uiso   1.00
C2348  C     0.91242   0.83327   0.74902   0.00000  Uiso   1.00
C2349  C     0.76061   0.82524   0.51931   0.00000  Uiso   1.00
C2350  C     0.90152   0.87140   0.98024   0.00000  Uiso   1.00
C2351  C     0.68756   0.79182   0.74368   0.00000  Uiso   1.00
C2352  C     0.97826   0.87462   0.74276   0.00000  Uiso   1.00
C2353  C     0.97893   0.79178   0.74771   0.00000  Uiso   1.00
C2354  C     0.68742   0.87514   0.74693   0.00000  Uiso   1.00
C2355  C     0.95704   0.83323   0.74685   0.00000  Uiso   1.00
C2356  C     0.70929   0.83349   0.74674   0.00000  Uiso   1.00
C2357  C     0.82111   0.68883   0.71302   0.00000  Uiso   1.00
C2358  C     0.84445   0.97698   0.78798   0.00000  Uiso   1.00
C2359  C     0.84778   0.69363   0.78724   0.00000  Uiso   1.00
C2360  C     0.81419   0.97369   0.71620   0.00000  Uiso   1.00
C2361  C     0.83349   0.83275   0.66452   0.00000  Uiso   1.00
C2362  C     0.83365   0.83431   0.83519   0.00000  Uiso   1.00
C2363  C     0.86735   0.85549   0.90784   0.00000  Uiso   1.00
C2364  C     0.79876   0.82198   0.59036   0.00000  Uiso   1.00
C2365  C     0.83361   0.83700   0.88332   0.00000  Uiso   1.00
C2366  C     0.83414   0.83283   0.61585   0.00000  Uiso   1.00
C2367  C     0.79861   0.82358   0.90433   0.00000  Uiso   1.00
C2368  C     0.86903   0.84863   0.59549   0.00000  Uiso   1.00
C2369  C     0.79658   0.83039   0.95091   0.00000  Uiso   1.00
C2370  C     0.86847   0.85387   0.54880   0.00000  Uiso   1.00
C2371  C     0.83220   0.84325   0.97624   0.00000  Uiso   1.00
C2372  C     0.83264   0.84258   0.52323   0.00000  Uiso   1.00
C2373  C     0.86726   0.85672   0.95467   0.00000  Uiso   1.00
C2374  C     0.79720   0.82985   0.54441   0.00000  Uiso   1.00
C2375  C     0.75990   0.82566   0.97297   0.00000  Uiso   1.00
C2376  C     0.90243   0.87060   0.52691   0.00000  Uiso   1.00
Cu2377 Cu    0.83333   0.88022   0.75000   0.00000  Uiso   1.00
Cu2378 Cu    0.83333   0.78645   0.75000   0.00000  Uiso   1.00
H2379  H     0.73218   0.82048   0.53535   0.00000  Uiso   1.00
H2380  H     0.92846   0.88239   0.96417   0.00000  Uiso   1.00
N2381  N     0.83333   0.95069   0.75000   0.00000  Uiso   1.00
N2382  N     0.83333   0.71598   0.75000   0.00000  Uiso   1.00
O2383  O     0.77321   0.87291   0.75000   0.00000  Uiso   1.00
O2384  O     0.89345   0.79375   0.75000   0.00000  Uiso   1.00
O2385  O     0.89345   0.87291   0.75000   0.00000  Uiso   1.00
O2386  O     0.77321   0.79375   0.75000   0.00000  Uiso   1.00
O2387  O     0.83332   0.87293   0.68513   0.00000  Uiso   1.00
O2388  O     0.83334   0.79373   0.81487   0.00000  Uiso   1.00
O2389  O     0.83334   0.87293   0.81487   0.00000  Uiso   1.00
O2390  O     0.83332   0.79373   0.68513   0.00000  Uiso   1.00
O2391  O     0.89800   0.87711   0.88624   0.00000  Uiso   1.00
C2392  C     0.92725   0.84450   0.87305   0.00000  Uiso   1.00
H2393  H     0.95255   0.86277   0.85815   0.00000  Uiso   1.00
H2394  H     0.91459   0.81986   0.84699   0.00000  Uiso   1.00
H2395  H     0.94010   0.82598   0.90201   0.00000  Uiso   1.00
O2396  O     0.76539   0.80531   0.61117   0.00000  Uiso   1.00
C2397  C     0.75632   0.76004   0.59457   0.00000  Uiso   1.00
H2398  H     0.77401   0.74715   0.56563   0.00000  Uiso   1.00
H2399  H     0.76221   0.73622   0.62133   0.00000  Uiso   1.00
H2400  H     0.72361   0.75789   0.58490   0.00000  Uiso   1.00
O2401  O     0.76524   0.80856   0.87836   0.00000  Uiso   1.00
C2402  C     0.76398   0.76013   0.87792   0.00000  Uiso   1.00
H2403  H     0.79148   0.74466   0.86329   0.00000  Uiso   1.00
H2404  H     0.73748   0.74831   0.85671   0.00000  Uiso   1.00
H2405  H     0.76024   0.74727   0.91191   0.00000  Uiso   1.00
O2406  O     0.90331   0.85999   0.62159   0.00000  Uiso   1.00
C2407  C     0.92699   0.82009   0.62732   0.00000  Uiso   1.00
H2408  H     0.92719   0.79664   0.59693   0.00000  Uiso   1.00
H2409  H     0.91660   0.80165   0.65630   0.00000  Uiso   1.00
H2410  H     0.95889   0.83028   0.63483   0.00000  Uiso   1.00
O2411  O     0.72322   0.81973   0.94972   0.00000  Uiso   1.00
C2412  C     0.70495   0.86321   0.94551   0.00000  Uiso   1.00
H2413  H     0.67604   0.85879   0.92581   0.00000  Uiso   1.00
H2414  H     0.72438   0.88669   0.92723   0.00000  Uiso   1.00
H2415  H     0.69766   0.87897   0.97873   0.00000  Uiso   1.00
O2416  O     0.93778   0.88299   0.55059   0.00000  Uiso   1.00
C2417  C     0.94212   0.93115   0.55077   0.00000  Uiso   1.00
H2418  H     0.96802   0.94121   0.57373   0.00000  Uiso   1.00
H2419  H     0.91463   0.94912   0.56315   0.00000  Uiso   1.00
H2420  H     0.94916   0.94274   0.51707   0.00000  Uiso   1.00
O2421  O     0.70678   0.74984   0.73895   0.00000  Uiso   1.00
C2422  C     0.71347   0.73999   0.69328   0.00000  Uiso   1.00
H2423  H     0.73650   0.71234   0.69149   0.00000  Uiso   1.00
H2424  H     0.72586   0.77019   0.67696   0.00000  Uiso   1.00
C2425  C     0.67531   0.72260   0.66756   0.00000  Uiso   1.00
H2426  H     0.98737   0.75137   0.66154   0.00000  Uiso   1.00
H2427  H     0.68342   0.70697   0.63470   0.00000  Uiso   1.00
H2428  H     0.99344   0.69644   0.68665   0.00000  Uiso   1.00
O2429  O     0.95737   0.91518   0.73637   0.00000  Uiso   1.00
C2430  C     0.96386   0.93021   0.69299   0.00000  Uiso   1.00
H2431  H     0.96847   0.90159   0.66794   0.00000  Uiso   1.00
H2432  H     0.99095   0.95258   0.69378   0.00000  Uiso   1.00
C2433  C     0.92728   0.95749   0.67717   0.00000  Uiso   1.00
H2434  H     0.92261   0.98809   0.69960   0.00000  Uiso   1.00
H2435  H     0.93203   0.96920   0.64308   0.00000  Uiso   1.00
H2436  H     0.89983   0.93555   0.67663   0.00000  Uiso   1.00
O2437  O     0.95934   0.75002   0.74785   0.00000  Uiso   1.00
C2438  C     0.96392   0.73279   0.79093   0.00000  Uiso   1.00
H2439  H     0.94230   0.75073   0.81278   0.00000  Uiso   1.00
H2440  H     0.99509   0.73729   0.80615   0.00000  Uiso   1.00
C2441  C     0.95492   0.68182   0.78823   0.00000  Uiso   1.00
H2442  H     0.97405   0.99814   0.76318   0.00000  Uiso   1.00
H2443  H     0.96083   0.66690   0.82127   0.00000  Uiso   1.00
H2444  H     0.92332   0.67534   0.77687   0.00000  Uiso   1.00
O2445  O     0.70727   0.91680   0.74818   0.00000  Uiso   1.00
C2446  C     0.70565   0.93670   0.79177   0.00000  Uiso   1.00
H2447  H     0.72331   0.91581   0.81580   0.00000  Uiso   1.00
H2448  H     0.67411   0.93923   0.80338   0.00000  Uiso   1.00
C2449  C     0.72318   0.98483   0.79186   0.00000  Uiso   1.00
H2450  H     0.70656   0.67187   0.76704   0.00000  Uiso   1.00
H2451  H     0.72124   0.66858   0.82549   0.00000  Uiso   1.00
H2452  H     0.75495   0.98356   0.78171   0.00000  Uiso   1.00
O2453  O     0.81418   0.70895   0.67251   0.00000  Uiso   1.00
C2454  C     0.83885   0.68830   0.63912   0.00000  Uiso   1.00
H2455  H     0.82027   0.68303   0.60772   0.00000  Uiso   1.00
H2456  H     0.85187   0.98778   0.64714   0.00000  Uiso   1.00
C2457  C     0.87453   0.71864   0.62982   0.00000  Uiso   1.00
H2458  H     0.86362   0.74975   0.61344   0.00000  Uiso   1.00
H2459  H     0.89171   0.72769   0.66148   0.00000  Uiso   1.00
H2460  H     0.89504   0.70015   0.60666   0.00000  Uiso   1.00
O2461  O     0.84673   0.95572   0.82830   0.00000  Uiso   1.00
C2462  C     0.80857   0.96010   0.84867   0.00000  Uiso   1.00
H2463  H     0.78712   0.93464   0.83304   0.00000  Uiso   1.00
H2464  H     0.79494   0.99481   0.84513   0.00000  Uiso   1.00
C2465  C     0.81269   0.95192   0.89871   0.00000  Uiso   1.00
H2466  H     0.79812   0.98037   0.91810   0.00000  Uiso   1.00
H2467  H     0.79711   0.91977   0.90645   0.00000  Uiso   1.00
H2468  H     0.84499   0.95008   0.91018   0.00000  Uiso   1.00
O2469  O     0.86948   0.72075   0.82010   0.00000  Uiso   1.00
C2470  C     0.87850   0.70075   0.86159   0.00000  Uiso   1.00
H2471  H     0.89791   0.66984   0.85760   0.00000  Uiso   1.00
H2472  H     0.85021   0.69435   0.87852   0.00000  Uiso   1.00
C2473  C     0.90157   0.73355   0.89400   0.00000  Uiso   1.00
H2474  H     0.88436   0.76576   0.89841   0.00000  Uiso   1.00
H2475  H     0.90482   0.71792   0.92709   0.00000  Uiso   1.00
H2476  H     0.93243   0.74046   0.88291   0.00000  Uiso   1.00
O2477  O     0.77629   0.95774   0.70076   0.00000  Uiso   1.00
C2478  C     0.77590   0.93616   0.65766   0.00000  Uiso   1.00
H2479  H     0.76681   0.89983   0.66072   0.00000  Uiso   1.00
H2480  H     0.80519   0.93633   0.64086   0.00000  Uiso   1.00
C2481  C     0.74331   0.95738   0.62789   0.00000  Uiso   1.00
H2482  H     0.75052   0.99368   0.62271   0.00000  Uiso   1.00
H2483  H     0.74157   0.93850   0.59491   0.00000  Uiso   1.00
H2484  H     0.71342   0.95541   0.64341   0.00000  Uiso   1.00
loop_
_geom_bond_atom_site_label_1
_geom_bond_atom_site_label_2
_geom_bond_distance
_geom_bond_site_symmetry_2
_ccdc_geom_bond_type
C1     O40     1.315   .     A
C1     O37     1.313   .     A
C1     C10     1.480   .     S
C2     O39     1.312   .     A
C2     O38     1.314   .     A
C2     C9      1.477   .     S
C3     H33     1.082   .     S
C3     C28     1.403   .     A
C3     C1271   1.390   1_554 S
C4     H34     1.083   .     S
C4     C27     1.400   .     A
C4     C1272   1.400   .     S
C5     O75     1.381   .     S
C5     C10     1.410   .     A
C5     C283    1.395   1_455 S
C6     C9      1.409   .     A
C6     O83     1.384   .     S
C6     C146    1.404   .     S
C7     O91     1.380   .     S
C7     C9      1.407   .     A
C7     C143    1.395   .     S
C8     O99     1.379   .     S
C8     C10     1.410   .     A
C8     C282    1.404   1_455 S
C11    N36     1.383   .     A
C11    O107    1.382   .     S
C11    C842    1.439   1_545 S
C12    O115    1.381   .     S
C12    N35     1.384   .     A
C12    C427    1.462   .     S
C13    O123    1.412   .     S
C13    N36     1.385   .     A
C13    C840    1.462   1_545 S
C14    O131    1.392   .     S
C14    N35     1.372   .     A
C14    C425    1.439   .     S
C15    O44     1.317   .     A
C15    C20     1.460   .     S
C15    O41     1.301   .     A
C16    C19     1.442   .     S
C16    O43     1.302   .     A
C16    O42     1.307   .     A
C17    O45     1.388   .     S
C17    C27     1.403   .     A
C17    C19     1.407   .     A
C18    C20     1.401   .     A
C18    C28     1.406   .     A
C18    O50     1.385   .     S
C19    C21     1.401   .     A
C20    C22     1.411   .     A
C21    O55     1.386   .     S
C21    C23     1.407   .     A
C22    O60     1.384   .     S
C22    C24     1.414   .     A
C23    C29     1.411   .     A
C23    C25     1.418   .     A
C24    C26     1.417   .     A
C24    C30     1.418   .     A
C25    C27     1.412   .     A
C25    C1268   1.410   .     S
C26    C28     1.410   .     A
C26    C1267   1.410   1_554 S
C29    O65     1.382   .     S
C29    C1245   1.390   .     S
C30    O70     1.384   .     S
C30    C1246   1.400   1_554 S
Cu31   O43     1.966   .     S
Cu31   Cu32    2.732   .     S
Cu31   O37     1.997   .     S
Cu31   O41     1.948   .     S
Cu31   N35     2.053   .     S
Cu31   O39     1.996   .     S
Cu32   O38     1.997   .     S
Cu32   N36     2.053   .     S
Cu32   O44     1.966   .     S
Cu32   O40     1.996   .     S
Cu32   O42     1.948   .     S
O45    C46     1.409   .     S
C46    H49     1.112   .     S
C46    H48     1.109   .     S
C46    H47     1.109   .     S
O50    C51     1.418   .     S
C51    H52     1.116   .     S
C51    H53     1.095   .     S
C51    H54     1.109   .     S
O55    C56     1.411   .     S
C56    H57     1.110   .     S
C56    H59     1.112   .     S
C56    H58     1.109   .     S
O60    C61     1.412   .     S
C61    H63     1.107   .     S
C61    H64     1.107   .     S
C61    H62     1.116   .     S
O65    C66     1.410   .     S
C66    H68     1.114   .     S
C66    H69     1.113   .     S
C66    H67     1.108   .     S
O70    C71     1.411   .     S
C71    H74     1.112   .     S
C71    H72     1.110   .     S
C71    H73     1.114   .     S
O75    C76     1.413   .     S
C76    C79     1.528   .     S
C76    H78     1.111   .     S
C76    H77     1.107   .     S
C79    H81     1.109   .     S
C79    H356    1.109   1_455 S
C79    H358    1.105   1_455 S
H80    C217    1.109   .     S
H82    C217    1.105   .     S
O83    C84     1.414   .     S
C84    C87     1.517   .     S
C84    H85     1.112   .     S
C84    H86     1.107   .     S
C87    H88     1.108   .     S
C87    H89     1.108   .     S
C87    H90     1.110   .     S
O91    C92     1.409   .     S
C92    C95     1.514   .     S
C92    H94     1.116   .     S
C92    H93     1.103   .     S
C95    H98     1.100   .     S
C95    H97     1.109   .     S
C95    H924    1.100   1_545 S
H96    C509    1.100   .     S
O99    C100    1.410   .     S
C100   H101    1.111   .     S
C100   H102    1.111   .     S
C100   C103    1.518   .     S
C103   H106    1.103   .     S
C103   H518    1.101   .     S
C103   H519    1.110   .     S
H104   C931    1.101   1_545 S
H105   C931    1.110   1_545 S
O107   C108    1.427   .     S
C108   H109    1.110   .     S
C108   C111    1.516   .     S
C108   H938    1.107   1_545 S
H110   C522    1.107   .     S
C111   H113    1.110   .     S
C111   H112    1.103   .     S
C111   H114    1.110   .     S
O115   C116    1.424   .     S
C116   H118    1.114   .     S
C116   C119    1.530   .     S
C116   H117    1.104   .     S
C119   H121    1.107   .     S
C119   H122    1.110   .     S
C119   H120    1.111   .     S
O123   C124    1.418   .     S
C124   C127    1.519   .     S
C124   H126    1.099   .     S
C124   H125    1.109   .     S
C127   H129    1.111   .     S
C127   H128    1.102   .     S
C127   H130    1.105   .     S
O131   C132    1.413   .     S
C132   H133    1.110   .     S
C132   C135    1.520   .     S
C132   H134    1.107   .     S
C135   H138    1.109   .     S
C135   H136    1.103   .     S
C135   H137    1.111   .     S
C139   O178    1.315   .     A
C139   O175    1.313   .     A
C139   C148    1.480   .     S
C140   O177    1.312   .     A
C140   O176    1.314   .     A
C140   C147    1.477   .     S
C141   H171    1.082   .     S
C141   C166    1.403   .     A
C141   C1409   1.390   1_554 S
C142   H172    1.083   .     S
C142   C165    1.400   .     A
C142   C1410   1.400   .     S
C143   O213    1.381   .     S
C143   C148    1.410   .     A
C144   C147    1.409   .     A
C144   O221    1.384   .     S
C144   C284    1.404   .     S
C145   O229    1.380   .     S
C145   C147    1.407   .     A
C145   C281    1.395   .     S
C146   O237    1.379   .     S
C146   C148    1.410   .     A
C149   N174    1.383   .     A
C149   O245    1.382   .     S
C149   C980    1.439   1_545 S
C150   O253    1.381   .     S
C150   N173    1.384   .     A
C150   C565    1.462   .     S
C151   O261    1.412   .     S
C151   N174    1.385   .     A
C151   C978    1.462   1_545 S
C152   O269    1.392   .     S
C152   N173    1.372   .     A
C152   C563    1.439   .     S
C153   O182    1.317   .     A
C153   C158    1.460   .     S
C153   O179    1.301   .     A
C154   C157    1.442   .     S
C154   O181    1.302   .     A
C154   O180    1.307   .     A
C155   O183    1.388   .     S
C155   C165    1.403   .     A
C155   C157    1.407   .     A
C156   C158    1.401   .     A
C156   C166    1.406   .     A
C156   O188    1.385   .     S
C157   C159    1.401   .     A
C158   C160    1.411   .     A
C159   O193    1.386   .     S
C159   C161    1.407   .     A
C160   O198    1.384   .     S
C160   C162    1.414   .     A
C161   C167    1.411   .     A
C161   C163    1.418   .     A
C162   C164    1.417   .     A
C162   C168    1.418   .     A
C163   C165    1.412   .     A
C163   C1406   1.410   .     S
C164   C166    1.410   .     A
C164   C1405   1.410   1_554 S
C167   O203    1.382   .     S
C167   C1383   1.390   .     S
C168   O208    1.384   .     S
C168   C1384   1.400   1_554 S
Cu169  O181    1.966   .     S
Cu169  Cu170   2.732   .     S
Cu169  O175    1.997   .     S
Cu169  O179    1.948   .     S
Cu169  N173    2.053   .     S
Cu169  O177    1.996   .     S
Cu170  O176    1.997   .     S
Cu170  N174    2.053   .     S
Cu170  O182    1.966   .     S
Cu170  O178    1.996   .     S
Cu170  O180    1.948   .     S
O183   C184    1.409   .     S
C184   H187    1.112   .     S
C184   H186    1.109   .     S
C184   H185    1.109   .     S
O188   C189    1.418   .     S
C189   H190    1.116   .     S
C189   H191    1.095   .     S
C189   H192    1.109   .     S
O193   C194    1.411   .     S
C194   H195    1.110   .     S
C194   H197    1.112   .     S
C194   H196    1.109   .     S
O198   C199    1.412   .     S
C199   H201    1.107   .     S
C199   H202    1.107   .     S
C199   H200    1.116   .     S
O203   C204    1.410   .     S
C204   H206    1.114   .     S
C204   H207    1.113   .     S
C204   H205    1.108   .     S
O208   C209    1.411   .     S
C209   H212    1.112   .     S
C209   H210    1.110   .     S
C209   H211    1.114   .     S
O213   C214    1.413   .     S
C214   C217    1.528   .     S
C214   H216    1.111   .     S
C214   H215    1.107   .     S
C217   H219    1.109   .     S
H218   C355    1.109   .     S
H220   C355    1.105   .     S
O221   C222    1.414   .     S
C222   C225    1.517   .     S
C222   H223    1.112   .     S
C222   H224    1.107   .     S
C225   H226    1.108   .     S
C225   H227    1.108   .     S
C225   H228    1.110   .     S
O229   C230    1.409   .     S
C230   C233    1.514   .     S
C230   H232    1.116   .     S
C230   H231    1.103   .     S
C233   H236    1.100   .     S
C233   H235    1.109   .     S
C233   H1062   1.100   1_545 S
H234   C647    1.100   .     S
O237   C238    1.410   .     S
C238   H239    1.111   .     S
C238   H240    1.111   .     S
C238   C241    1.518   .     S
C241   H244    1.103   .     S
C241   H656    1.101   .     S
C241   H657    1.110   .     S
H242   C1069   1.101   1_545 S
H243   C1069   1.110   1_545 S
O245   C246    1.427   .     S
C246   H247    1.110   .     S
C246   C249    1.516   .     S
C246   H1076   1.107   1_545 S
H248   C660    1.107   .     S
C249   H251    1.110   .     S
C249   H250    1.103   .     S
C249   H252    1.110   .     S
O253   C254    1.424   .     S
C254   H256    1.114   .     S
C254   C257    1.530   .     S
C254   H255    1.104   .     S
C257   H259    1.107   .     S
C257   H260    1.110   .     S
C257   H258    1.111   .     S
O261   C262    1.418   .     S
C262   C265    1.519   .     S
C262   H264    1.099   .     S
C262   H263    1.109   .     S
C265   H267    1.111   .     S
C265   H266    1.102   .     S
C265   H268    1.105   .     S
O269   C270    1.413   .     S
C270   H271    1.110   .     S
C270   C273    1.520   .     S
C270   H272    1.107   .     S
C273   H276    1.109   .     S
C273   H274    1.103   .     S
C273   H275    1.111   .     S
C277   O316    1.315   .     A
C277   O313    1.313   .     A
C277   C286    1.480   .     S
C278   O315    1.312   .     A
C278   O314    1.314   .     A
C278   C285    1.477   .     S
C279   H309    1.082   .     S
C279   C304    1.403   .     A
C279   C1547   1.390   1_554 S
C280   H310    1.083   .     S
C280   C303    1.400   .     A
C280   C1548   1.400   .     S
C281   O351    1.381   .     S
C281   C286    1.410   .     A
C282   C285    1.409   .     A
C282   O359    1.384   .     S
C282   C8      1.404   1_655 S
C283   O367    1.380   .     S
C283   C285    1.407   .     A
C283   C5      1.395   1_655 S
C284   O375    1.379   .     S
C284   C286    1.410   .     A
C287   N312    1.383   .     A
C287   O383    1.382   .     S
C287   C1118   1.439   1_545 S
C288   O391    1.381   .     S
C288   N311    1.384   .     A
C288   C703    1.462   .     S
C289   O399    1.412   .     S
C289   N312    1.385   .     A
C289   C1116   1.462   1_545 S
C290   O407    1.392   .     S
C290   N311    1.372   .     A
C290   C701    1.439   .     S
C291   O320    1.317   .     A
C291   C296    1.460   .     S
C291   O317    1.301   .     A
C292   C295    1.442   .     S
C292   O319    1.302   .     A
C292   O318    1.307   .     A
C293   O321    1.388   .     S
C293   C303    1.403   .     A
C293   C295    1.407   .     A
C294   C296    1.401   .     A
C294   C304    1.406   .     A
C294   O326    1.385   .     S
C295   C297    1.401   .     A
C296   C298    1.411   .     A
C297   O331    1.386   .     S
C297   C299    1.407   .     A
C298   O336    1.384   .     S
C298   C300    1.414   .     A
C299   C305    1.411   .     A
C299   C301    1.418   .     A
C300   C302    1.417   .     A
C300   C306    1.418   .     A
C301   C303    1.412   .     A
C301   C1544   1.410   .     S
C302   C304    1.410   .     A
C302   C1543   1.410   1_554 S
C305   O341    1.382   .     S
C305   C1521   1.390   .     S
C306   O346    1.384   .     S
C306   C1522   1.400   1_554 S
Cu307  O319    1.966   .     S
Cu307  Cu308   2.732   .     S
Cu307  O313    1.997   .     S
Cu307  O317    1.948   .     S
Cu307  N311    2.053   .     S
Cu307  O315    1.996   .     S
Cu308  O314    1.997   .     S
Cu308  N312    2.053   .     S
Cu308  O320    1.966   .     S
Cu308  O316    1.996   .     S
Cu308  O318    1.948   .     S
O321   C322    1.409   .     S
C322   H325    1.112   .     S
C322   H324    1.109   .     S
C322   H323    1.109   .     S
O326   C327    1.418   .     S
C327   H328    1.116   .     S
C327   H329    1.095   .     S
C327   H330    1.109   .     S
O331   C332    1.411   .     S
C332   H333    1.110   .     S
C332   H335    1.112   .     S
C332   H334    1.109   .     S
O336   C337    1.412   .     S
C337   H339    1.107   .     S
C337   H340    1.107   .     S
C337   H338    1.116   .     S
O341   C342    1.410   .     S
C342   H344    1.114   .     S
C342   H345    1.113   .     S
C342   H343    1.108   .     S
O346   C347    1.411   .     S
C347   H350    1.112   .     S
C347   H348    1.110   .     S
C347   H349    1.114   .     S
O351   C352    1.413   .     S
C352   C355    1.528   .     S
C352   H354    1.111   .     S
C352   H353    1.107   .     S
C355   H357    1.109   .     S
H356   C79     1.109   1_655 S
H358   C79     1.105   1_655 S
O359   C360    1.414   .     S
C360   C363    1.517   .     S
C360   H361    1.112   .     S
C360   H362    1.107   .     S
C363   H364    1.108   .     S
C363   H365    1.108   .     S
C363   H366    1.110   .     S
O367   C368    1.409   .     S
C368   C371    1.514   .     S
C368   H370    1.116   .     S
C368   H369    1.103   .     S
C371   H374    1.100   .     S
C371   H373    1.109   .     S
C371   H1200   1.100   1_545 S
H372   C785    1.100   .     S
O375   C376    1.410   .     S
C376   H377    1.111   .     S
C376   H378    1.111   .     S
C376   C379    1.518   .     S
C379   H382    1.103   .     S
C379   H794    1.101   .     S
C379   H795    1.110   .     S
H380   C1207   1.101   1_545 S
H381   C1207   1.110   1_545 S
O383   C384    1.427   .     S
C384   H385    1.110   .     S
C384   C387    1.516   .     S
C384   H1214   1.107   1_545 S
H386   C798    1.107   .     S
C387   H389    1.110   .     S
C387   H388    1.103   .     S
C387   H390    1.110   .     S
O391   C392    1.424   .     S
C392   H394    1.114   .     S
C392   C395    1.530   .     S
C392   H393    1.104   .     S
C395   H397    1.107   .     S
C395   H398    1.110   .     S
C395   H396    1.111   .     S
O399   C400    1.418   .     S
C400   C403    1.519   .     S
C400   H402    1.099   .     S
C400   H401    1.109   .     S
C403   H405    1.111   .     S
C403   H404    1.102   .     S
C403   H406    1.105   .     S
O407   C408    1.413   .     S
C408   H409    1.110   .     S
C408   C411    1.520   .     S
C408   H410    1.107   .     S
C411   H414    1.109   .     S
C411   H412    1.103   .     S
C411   H413    1.111   .     S
C415   O454    1.315   .     A
C415   O451    1.313   .     A
C415   C424    1.480   .     S
C416   O453    1.312   .     A
C416   O452    1.314   .     A
C416   C423    1.477   .     S
C417   H447    1.082   .     S
C417   C442    1.403   .     A
C417   C1685   1.390   1_554 S
C418   H448    1.083   .     S
C418   C441    1.400   .     A
C418   C1686   1.400   .     S
C419   O489    1.381   .     S
C419   C424    1.410   .     A
C419   C697    1.395   1_455 S
C420   C423    1.409   .     A
C420   O497    1.384   .     S
C420   C560    1.404   .     S
C421   O505    1.380   .     S
C421   C423    1.407   .     A
C421   C557    1.395   .     S
C422   O513    1.379   .     S
C422   C424    1.410   .     A
C422   C696    1.404   1_455 S
C425   N450    1.383   .     A
C425   O521    1.382   .     S
C426   O529    1.381   .     S
C426   N449    1.384   .     A
C426   C841    1.462   .     S
C427   O537    1.412   .     S
C427   N450    1.385   .     A
C428   O545    1.392   .     S
C428   N449    1.372   .     A
C428   C839    1.439   .     S
C429   O458    1.317   .     A
C429   C434    1.460   .     S
C429   O455    1.301   .     A
C430   C433    1.442   .     S
C430   O457    1.302   .     A
C430   O456    1.307   .     A
C431   O459    1.388   .     S
C431   C441    1.403   .     A
C431   C433    1.407   .     A
C432   C434    1.401   .     A
C432   C442    1.406   .     A
C432   O464    1.385   .     S
C433   C435    1.401   .     A
C434   C436    1.411   .     A
C435   O469    1.386   .     S
C435   C437    1.407   .     A
C436   O474    1.384   .     S
C436   C438    1.414   .     A
C437   C443    1.411   .     A
C437   C439    1.418   .     A
C438   C440    1.417   .     A
C438   C444    1.418   .     A
C439   C441    1.412   .     A
C439   C1682   1.410   .     S
C440   C442    1.410   .     A
C440   C1681   1.410   1_554 S
C443   O479    1.382   .     S
C443   C1659   1.390   .     S
C444   O484    1.384   .     S
C444   C1660   1.400   1_554 S
Cu445  O457    1.966   .     S
Cu445  Cu446   2.732   .     S
Cu445  O451    1.997   .     S
Cu445  O455    1.948   .     S
Cu445  N449    2.053   .     S
Cu445  O453    1.996   .     S
Cu446  O452    1.997   .     S
Cu446  N450    2.053   .     S
Cu446  O458    1.966   .     S
Cu446  O454    1.996   .     S
Cu446  O456    1.948   .     S
O459   C460    1.409   .     S
C460   H463    1.112   .     S
C460   H462    1.109   .     S
C460   H461    1.109   .     S
O464   C465    1.418   .     S
C465   H466    1.116   .     S
C465   H467    1.095   .     S
C465   H468    1.109   .     S
O469   C470    1.411   .     S
C470   H471    1.110   .     S
C470   H473    1.112   .     S
C470   H472    1.109   .     S
O474   C475    1.412   .     S
C475   H477    1.107   .     S
C475   H478    1.107   .     S
C475   H476    1.116   .     S
O479   C480    1.410   .     S
C480   H482    1.114   .     S
C480   H483    1.113   .     S
C480   H481    1.108   .     S
O484   C485    1.411   .     S
C485   H488    1.112   .     S
C485   H486    1.110   .     S
C485   H487    1.114   .     S
O489   C490    1.413   .     S
C490   C493    1.528   .     S
C490   H492    1.111   .     S
C490   H491    1.107   .     S
C493   H495    1.109   .     S
C493   H770    1.109   1_455 S
C493   H772    1.105   1_455 S
H494   C631    1.109   .     S
H496   C631    1.105   .     S
O497   C498    1.414   .     S
C498   C501    1.517   .     S
C498   H499    1.112   .     S
C498   H500    1.107   .     S
C501   H502    1.108   .     S
C501   H503    1.108   .     S
C501   H504    1.110   .     S
O505   C506    1.409   .     S
C506   C509    1.514   .     S
C506   H508    1.116   .     S
C506   H507    1.103   .     S
C509   H512    1.100   .     S
C509   H511    1.109   .     S
H510   C923    1.100   .     S
O513   C514    1.410   .     S
C514   H515    1.111   .     S
C514   H516    1.111   .     S
C514   C517    1.518   .     S
C517   H520    1.103   .     S
C517   H932    1.101   .     S
C517   H933    1.110   .     S
O521   C522    1.427   .     S
C522   H523    1.110   .     S
C522   C525    1.516   .     S
H524   C936    1.107   .     S
C525   H527    1.110   .     S
C525   H526    1.103   .     S
C525   H528    1.110   .     S
O529   C530    1.424   .     S
C530   H532    1.114   .     S
C530   C533    1.530   .     S
C530   H531    1.104   .     S
C533   H535    1.107   .     S
C533   H536    1.110   .     S
C533   H534    1.111   .     S
O537   C538    1.418   .     S
C538   C541    1.519   .     S
C538   H540    1.099   .     S
C538   H539    1.109   .     S
C541   H543    1.111   .     S
C541   H542    1.102   .     S
C541   H544    1.105   .     S
O545   C546    1.413   .     S
C546   H547    1.110   .     S
C546   C549    1.520   .     S
C546   H548    1.107   .     S
C549   H552    1.109   .     S
C549   H550    1.103   .     S
C549   H551    1.111   .     S
C553   O592    1.315   .     A
C553   O589    1.313   .     A
C553   C562    1.480   .     S
C554   O591    1.312   .     A
C554   O590    1.314   .     A
C554   C561    1.477   .     S
C555   H585    1.082   .     S
C555   C580    1.403   .     A
C555   C1823   1.390   1_554 S
C556   H586    1.083   .     S
C556   C579    1.400   .     A
C556   C1824   1.400   .     S
C557   O627    1.381   .     S
C557   C562    1.410   .     A
C558   C561    1.409   .     A
C558   O635    1.384   .     S
C558   C698    1.404   .     S
C559   O643    1.380   .     S
C559   C561    1.407   .     A
C559   C695    1.395   .     S
C560   O651    1.379   .     S
C560   C562    1.410   .     A
C563   N588    1.383   .     A
C563   O659    1.382   .     S
C564   O667    1.381   .     S
C564   N587    1.384   .     A
C564   C979    1.462   .     S
C565   O675    1.412   .     S
C565   N588    1.385   .     A
C566   O683    1.392   .     S
C566   N587    1.372   .     A
C566   C977    1.439   .     S
C567   O596    1.317   .     A
C567   C572    1.460   .     S
C567   O593    1.301   .     A
C568   C571    1.442   .     S
C568   O595    1.302   .     A
C568   O594    1.307   .     A
C569   O597    1.388   .     S
C569   C579    1.403   .     A
C569   C571    1.407   .     A
C570   C572    1.401   .     A
C570   C580    1.406   .     A
C570   O602    1.385   .     S
C571   C573    1.401   .     A
C572   C574    1.411   .     A
C573   O607    1.386   .     S
C573   C575    1.407   .     A
C574   O612    1.384   .     S
C574   C576    1.414   .     A
C575   C581    1.411   .     A
C575   C577    1.418   .     A
C576   C578    1.417   .     A
C576   C582    1.418   .     A
C577   C579    1.412   .     A
C577   C1820   1.410   .     S
C578   C580    1.410   .     A
C578   C1819   1.410   1_554 S
C581   O617    1.382   .     S
C581   C1797   1.390   .     S
C582   O622    1.384   .     S
C582   C1798   1.400   1_554 S
Cu583  O595    1.966   .     S
Cu583  Cu584   2.732   .     S
Cu583  O589    1.997   .     S
Cu583  O593    1.948   .     S
Cu583  N587    2.053   .     S
Cu583  O591    1.996   .     S
Cu584  O590    1.997   .     S
Cu584  N588    2.053   .     S
Cu584  O596    1.966   .     S
Cu584  O592    1.996   .     S
Cu584  O594    1.948   .     S
O597   C598    1.409   .     S
C598   H601    1.112   .     S
C598   H600    1.109   .     S
C598   H599    1.109   .     S
O602   C603    1.418   .     S
C603   H604    1.116   .     S
C603   H605    1.095   .     S
C603   H606    1.109   .     S
O607   C608    1.411   .     S
C608   H609    1.110   .     S
C608   H611    1.112   .     S
C608   H610    1.109   .     S
O612   C613    1.412   .     S
C613   H615    1.107   .     S
C613   H616    1.107   .     S
C613   H614    1.116   .     S
O617   C618    1.410   .     S
C618   H620    1.114   .     S
C618   H621    1.113   .     S
C618   H619    1.108   .     S
O622   C623    1.411   .     S
C623   H626    1.112   .     S
C623   H624    1.110   .     S
C623   H625    1.114   .     S
O627   C628    1.413   .     S
C628   C631    1.528   .     S
C628   H630    1.111   .     S
C628   H629    1.107   .     S
C631   H633    1.109   .     S
H632   C769    1.109   .     S
H634   C769    1.105   .     S
O635   C636    1.414   .     S
C636   C639    1.517   .     S
C636   H637    1.112   .     S
C636   H638    1.107   .     S
C639   H640    1.108   .     S
C639   H641    1.108   .     S
C639   H642    1.110   .     S
O643   C644    1.409   .     S
C644   C647    1.514   .     S
C644   H646    1.116   .     S
C644   H645    1.103   .     S
C647   H650    1.100   .     S
C647   H649    1.109   .     S
H648   C1061   1.100   .     S
O651   C652    1.410   .     S
C652   H653    1.111   .     S
C652   H654    1.111   .     S
C652   C655    1.518   .     S
C655   H658    1.103   .     S
C655   H1070   1.101   .     S
C655   H1071   1.110   .     S
O659   C660    1.427   .     S
C660   H661    1.110   .     S
C660   C663    1.516   .     S
H662   C1074   1.107   .     S
C663   H665    1.110   .     S
C663   H664    1.103   .     S
C663   H666    1.110   .     S
O667   C668    1.424   .     S
C668   H670    1.114   .     S
C668   C671    1.530   .     S
C668   H669    1.104   .     S
C671   H673    1.107   .     S
C671   H674    1.110   .     S
C671   H672    1.111   .     S
O675   C676    1.418   .     S
C676   C679    1.519   .     S
C676   H678    1.099   .     S
C676   H677    1.109   .     S
C679   H681    1.111   .     S
C679   H680    1.102   .     S
C679   H682    1.105   .     S
O683   C684    1.413   .     S
C684   H685    1.110   .     S
C684   C687    1.520   .     S
C684   H686    1.107   .     S
C687   H690    1.109   .     S
C687   H688    1.103   .     S
C687   H689    1.111   .     S
C691   O730    1.315   .     A
C691   O727    1.313   .     A
C691   C700    1.480   .     S
C692   O729    1.312   .     A
C692   O728    1.314   .     A
C692   C699    1.477   .     S
C693   H723    1.082   .     S
C693   C718    1.403   .     A
C693   C1961   1.390   1_554 S
C694   H724    1.083   .     S
C694   C717    1.400   .     A
C694   C1962   1.400   .     S
C695   O765    1.381   .     S
C695   C700    1.410   .     A
C696   C699    1.409   .     A
C696   O773    1.384   .     S
C696   C422    1.404   1_655 S
C697   O781    1.380   .     S
C697   C699    1.407   .     A
C697   C419    1.395   1_655 S
C698   O789    1.379   .     S
C698   C700    1.410   .     A
C701   N726    1.383   .     A
C701   O797    1.382   .     S
C702   O805    1.381   .     S
C702   N725    1.384   .     A
C702   C1117   1.462   .     S
C703   O813    1.412   .     S
C703   N726    1.385   .     A
C704   O821    1.392   .     S
C704   N725    1.372   .     A
C704   C1115   1.439   .     S
C705   O734    1.317   .     A
C705   C710    1.460   .     S
C705   O731    1.301   .     A
C706   C709    1.442   .     S
C706   O733    1.302   .     A
C706   O732    1.307   .     A
C707   O735    1.388   .     S
C707   C717    1.403   .     A
C707   C709    1.407   .     A
C708   C710    1.401   .     A
C708   C718    1.406   .     A
C708   O740    1.385   .     S
C709   C711    1.401   .     A
C710   C712    1.411   .     A
C711   O745    1.386   .     S
C711   C713    1.407   .     A
C712   O750    1.384   .     S
C712   C714    1.414   .     A
C713   C719    1.411   .     A
C713   C715    1.418   .     A
C714   C716    1.417   .     A
C714   C720    1.418   .     A
C715   C717    1.412   .     A
C715   C1958   1.410   .     S
C716   C718    1.410   .     A
C716   C1957   1.410   1_554 S
C719   O755    1.382   .     S
C719   C1935   1.390   .     S
C720   O760    1.384   .     S
C720   C1936   1.400   1_554 S
Cu721  O733    1.966   .     S
Cu721  Cu722   2.732   .     S
Cu721  O727    1.997   .     S
Cu721  O731    1.948   .     S
Cu721  N725    2.053   .     S
Cu721  O729    1.996   .     S
Cu722  O728    1.997   .     S
Cu722  N726    2.053   .     S
Cu722  O734    1.966   .     S
Cu722  O730    1.996   .     S
Cu722  O732    1.948   .     S
O735   C736    1.409   .     S
C736   H739    1.112   .     S
C736   H738    1.109   .     S
C736   H737    1.109   .     S
O740   C741    1.418   .     S
C741   H742    1.116   .     S
C741   H743    1.095   .     S
C741   H744    1.109   .     S
O745   C746    1.411   .     S
C746   H747    1.110   .     S
C746   H749    1.112   .     S
C746   H748    1.109   .     S
O750   C751    1.412   .     S
C751   H753    1.107   .     S
C751   H754    1.107   .     S
C751   H752    1.116   .     S
O755   C756    1.410   .     S
C756   H758    1.114   .     S
C756   H759    1.113   .     S
C756   H757    1.108   .     S
O760   C761    1.411   .     S
C761   H764    1.112   .     S
C761   H762    1.110   .     S
C761   H763    1.114   .     S
O765   C766    1.413   .     S
C766   C769    1.528   .     S
C766   H768    1.111   .     S
C766   H767    1.107   .     S
C769   H771    1.109   .     S
H770   C493    1.109   1_655 S
H772   C493    1.105   1_655 S
O773   C774    1.414   .     S
C774   C777    1.517   .     S
C774   H775    1.112   .     S
C774   H776    1.107   .     S
C777   H778    1.108   .     S
C777   H779    1.108   .     S
C777   H780    1.110   .     S
O781   C782    1.409   .     S
C782   C785    1.514   .     S
C782   H784    1.116   .     S
C782   H783    1.103   .     S
C785   H788    1.100   .     S
C785   H787    1.109   .     S
H786   C1199   1.100   .     S
O789   C790    1.410   .     S
C790   H791    1.111   .     S
C790   H792    1.111   .     S
C790   C793    1.518   .     S
C793   H796    1.103   .     S
C793   H1208   1.101   .     S
C793   H1209   1.110   .     S
O797   C798    1.427   .     S
C798   H799    1.110   .     S
C798   C801    1.516   .     S
H800   C1212   1.107   .     S
C801   H803    1.110   .     S
C801   H802    1.103   .     S
C801   H804    1.110   .     S
O805   C806    1.424   .     S
C806   H808    1.114   .     S
C806   C809    1.530   .     S
C806   H807    1.104   .     S
C809   H811    1.107   .     S
C809   H812    1.110   .     S
C809   H810    1.111   .     S
O813   C814    1.418   .     S
C814   C817    1.519   .     S
C814   H816    1.099   .     S
C814   H815    1.109   .     S
C817   H819    1.111   .     S
C817   H818    1.102   .     S
C817   H820    1.105   .     S
O821   C822    1.413   .     S
C822   H823    1.110   .     S
C822   C825    1.520   .     S
C822   H824    1.107   .     S
C825   H828    1.109   .     S
C825   H826    1.103   .     S
C825   H827    1.111   .     S
C829   O868    1.315   .     A
C829   O865    1.313   .     A
C829   C838    1.480   .     S
C830   O867    1.312   .     A
C830   O866    1.314   .     A
C830   C837    1.477   .     S
C831   H861    1.082   .     S
C831   C856    1.403   .     A
C831   C2099   1.390   1_554 S
C832   H862    1.083   .     S
C832   C855    1.400   .     A
C832   C2100   1.400   .     S
C833   O903    1.381   .     S
C833   C838    1.410   .     A
C833   C1111   1.395   1_455 S
C834   C837    1.409   .     A
C834   O911    1.384   .     S
C834   C974    1.404   .     S
C835   O919    1.380   .     S
C835   C837    1.407   .     A
C835   C971    1.395   .     S
C836   O927    1.379   .     S
C836   C838    1.410   .     A
C836   C1110   1.404   1_455 S
C839   N864    1.383   .     A
C839   O935    1.382   .     S
C840   O943    1.381   .     S
C840   N863    1.384   .     A
C840   C13     1.462   1_565 S
C841   O951    1.412   .     S
C841   N864    1.385   .     A
C842   O959    1.392   .     S
C842   N863    1.372   .     A
C842   C11     1.439   1_565 S
C843   O872    1.317   .     A
C843   C848    1.460   .     S
C843   O869    1.301   .     A
C844   C847    1.442   .     S
C844   O871    1.302   .     A
C844   O870    1.307   .     A
C845   O873    1.388   .     S
C845   C855    1.403   .     A
C845   C847    1.407   .     A
C846   C848    1.401   .     A
C846   C856    1.406   .     A
C846   O878    1.385   .     S
C847   C849    1.401   .     A
C848   C850    1.411   .     A
C849   O883    1.386   .     S
C849   C851    1.407   .     A
C850   O888    1.384   .     S
C850   C852    1.414   .     A
C851   C857    1.411   .     A
C851   C853    1.418   .     A
C852   C854    1.417   .     A
C852   C858    1.418   .     A
C853   C855    1.412   .     A
C853   C2096   1.410   .     S
C854   C856    1.410   .     A
C854   C2095   1.410   1_554 S
C857   O893    1.382   .     S
C857   C2073   1.390   .     S
C858   O898    1.384   .     S
C858   C2074   1.400   1_554 S
Cu859  O871    1.966   .     S
Cu859  Cu860   2.732   .     S
Cu859  O865    1.997   .     S
Cu859  O869    1.948   .     S
Cu859  N863    2.053   .     S
Cu859  O867    1.996   .     S
Cu860  O866    1.997   .     S
Cu860  N864    2.053   .     S
Cu860  O872    1.966   .     S
Cu860  O868    1.996   .     S
Cu860  O870    1.948   .     S
O873   C874    1.409   .     S
C874   H877    1.112   .     S
C874   H876    1.109   .     S
C874   H875    1.109   .     S
O878   C879    1.418   .     S
C879   H880    1.116   .     S
C879   H881    1.095   .     S
C879   H882    1.109   .     S
O883   C884    1.411   .     S
C884   H885    1.110   .     S
C884   H887    1.112   .     S
C884   H886    1.109   .     S
O888   C889    1.412   .     S
C889   H891    1.107   .     S
C889   H892    1.107   .     S
C889   H890    1.116   .     S
O893   C894    1.410   .     S
C894   H896    1.114   .     S
C894   H897    1.113   .     S
C894   H895    1.108   .     S
O898   C899    1.411   .     S
C899   H902    1.112   .     S
C899   H900    1.110   .     S
C899   H901    1.114   .     S
O903   C904    1.413   .     S
C904   C907    1.528   .     S
C904   H906    1.111   .     S
C904   H905    1.107   .     S
C907   H909    1.109   .     S
C907   H1184   1.109   1_455 S
C907   H1186   1.105   1_455 S
H908   C1045   1.109   .     S
H910   C1045   1.105   .     S
O911   C912    1.414   .     S
C912   C915    1.517   .     S
C912   H913    1.112   .     S
C912   H914    1.107   .     S
C915   H916    1.108   .     S
C915   H917    1.108   .     S
C915   H918    1.110   .     S
O919   C920    1.409   .     S
C920   C923    1.514   .     S
C920   H922    1.116   .     S
C920   H921    1.103   .     S
C923   H926    1.100   .     S
C923   H925    1.109   .     S
H924   C95     1.100   1_565 S
O927   C928    1.410   .     S
C928   H929    1.111   .     S
C928   H930    1.111   .     S
C928   C931    1.518   .     S
C931   H934    1.103   .     S
C931   H104    1.101   1_565 S
C931   H105    1.110   1_565 S
O935   C936    1.427   .     S
C936   H937    1.110   .     S
C936   C939    1.516   .     S
H938   C108    1.107   1_565 S
C939   H941    1.110   .     S
C939   H940    1.103   .     S
C939   H942    1.110   .     S
O943   C944    1.424   .     S
C944   H946    1.114   .     S
C944   C947    1.530   .     S
C944   H945    1.104   .     S
C947   H949    1.107   .     S
C947   H950    1.110   .     S
C947   H948    1.111   .     S
O951   C952    1.418   .     S
C952   C955    1.519   .     S
C952   H954    1.099   .     S
C952   H953    1.109   .     S
C955   H957    1.111   .     S
C955   H956    1.102   .     S
C955   H958    1.105   .     S
O959   C960    1.413   .     S
C960   H961    1.110   .     S
C960   C963    1.520   .     S
C960   H962    1.107   .     S
C963   H966    1.109   .     S
C963   H964    1.103   .     S
C963   H965    1.111   .     S
C967   O1006   1.315   .     A
C967   O1003   1.313   .     A
C967   C976    1.480   .     S
C968   O1005   1.312   .     A
C968   O1004   1.314   .     A
C968   C975    1.477   .     S
C969   H999    1.082   .     S
C969   C994    1.403   .     A
C969   C2237   1.390   1_554 S
C970   H1000   1.083   .     S
C970   C993    1.400   .     A
C970   C2238   1.400   .     S
C971   O1041   1.381   .     S
C971   C976    1.410   .     A
C972   C975    1.409   .     A
C972   O1049   1.384   .     S
C972   C1112   1.404   .     S
C973   O1057   1.380   .     S
C973   C975    1.407   .     A
C973   C1109   1.395   .     S
C974   O1065   1.379   .     S
C974   C976    1.410   .     A
C977   N1002   1.383   .     A
C977   O1073   1.382   .     S
C978   O1081   1.381   .     S
C978   N1001   1.384   .     A
C978   C151    1.462   1_565 S
C979   O1089   1.412   .     S
C979   N1002   1.385   .     A
C980   O1097   1.392   .     S
C980   N1001   1.372   .     A
C980   C149    1.439   1_565 S
C981   O1010   1.317   .     A
C981   C986    1.460   .     S
C981   O1007   1.301   .     A
C982   C985    1.442   .     S
C982   O1009   1.302   .     A
C982   O1008   1.307   .     A
C983   O1011   1.388   .     S
C983   C993    1.403   .     A
C983   C985    1.407   .     A
C984   C986    1.401   .     A
C984   C994    1.406   .     A
C984   O1016   1.385   .     S
C985   C987    1.401   .     A
C986   C988    1.411   .     A
C987   O1021   1.386   .     S
C987   C989    1.407   .     A
C988   O1026   1.384   .     S
C988   C990    1.414   .     A
C989   C995    1.411   .     A
C989   C991    1.418   .     A
C990   C992    1.417   .     A
C990   C996    1.418   .     A
C991   C993    1.412   .     A
C991   C2234   1.410   .     S
C992   C994    1.410   .     A
C992   C2233   1.410   1_554 S
C995   O1031   1.382   .     S
C995   C2211   1.390   .     S
C996   O1036   1.384   .     S
C996   C2212   1.400   1_554 S
Cu997  O1009   1.966   .     S
Cu997  Cu998   2.732   .     S
Cu997  O1003   1.997   .     S
Cu997  O1007   1.948   .     S
Cu997  N1001   2.053   .     S
Cu997  O1005   1.996   .     S
Cu998  O1004   1.997   .     S
Cu998  N1002   2.053   .     S
Cu998  O1010   1.966   .     S
Cu998  O1006   1.996   .     S
Cu998  O1008   1.948   .     S
O1011  C1012   1.409   .     S
C1012  H1015   1.112   .     S
C1012  H1014   1.109   .     S
C1012  H1013   1.109   .     S
O1016  C1017   1.418   .     S
C1017  H1018   1.116   .     S
C1017  H1019   1.095   .     S
C1017  H1020   1.109   .     S
O1021  C1022   1.411   .     S
C1022  H1023   1.110   .     S
C1022  H1025   1.112   .     S
C1022  H1024   1.109   .     S
O1026  C1027   1.412   .     S
C1027  H1029   1.107   .     S
C1027  H1030   1.107   .     S
C1027  H1028   1.116   .     S
O1031  C1032   1.410   .     S
C1032  H1034   1.114   .     S
C1032  H1035   1.113   .     S
C1032  H1033   1.108   .     S
O1036  C1037   1.411   .     S
C1037  H1040   1.112   .     S
C1037  H1038   1.110   .     S
C1037  H1039   1.114   .     S
O1041  C1042   1.413   .     S
C1042  C1045   1.528   .     S
C1042  H1044   1.111   .     S
C1042  H1043   1.107   .     S
C1045  H1047   1.109   .     S
H1046  C1183   1.109   .     S
H1048  C1183   1.105   .     S
O1049  C1050   1.414   .     S
C1050  C1053   1.517   .     S
C1050  H1051   1.112   .     S
C1050  H1052   1.107   .     S
C1053  H1054   1.108   .     S
C1053  H1055   1.108   .     S
C1053  H1056   1.110   .     S
O1057  C1058   1.409   .     S
C1058  C1061   1.514   .     S
C1058  H1060   1.116   .     S
C1058  H1059   1.103   .     S
C1061  H1064   1.100   .     S
C1061  H1063   1.109   .     S
H1062  C233    1.100   1_565 S
O1065  C1066   1.410   .     S
C1066  H1067   1.111   .     S
C1066  H1068   1.111   .     S
C1066  C1069   1.518   .     S
C1069  H1072   1.103   .     S
C1069  H242    1.101   1_565 S
C1069  H243    1.110   1_565 S
O1073  C1074   1.427   .     S
C1074  H1075   1.110   .     S
C1074  C1077   1.516   .     S
H1076  C246    1.107   1_565 S
C1077  H1079   1.110   .     S
C1077  H1078   1.103   .     S
C1077  H1080   1.110   .     S
O1081  C1082   1.424   .     S
C1082  H1084   1.114   .     S
C1082  C1085   1.530   .     S
C1082  H1083   1.104   .     S
C1085  H1087   1.107   .     S
C1085  H1088   1.110   .     S
C1085  H1086   1.111   .     S
O1089  C1090   1.418   .     S
C1090  C1093   1.519   .     S
C1090  H1092   1.099   .     S
C1090  H1091   1.109   .     S
C1093  H1095   1.111   .     S
C1093  H1094   1.102   .     S
C1093  H1096   1.105   .     S
O1097  C1098   1.413   .     S
C1098  H1099   1.110   .     S
C1098  C1101   1.520   .     S
C1098  H1100   1.107   .     S
C1101  H1104   1.109   .     S
C1101  H1102   1.103   .     S
C1101  H1103   1.111   .     S
C1105  O1144   1.315   .     A
C1105  O1141   1.313   .     A
C1105  C1114   1.480   .     S
C1106  O1143   1.312   .     A
C1106  O1142   1.314   .     A
C1106  C1113   1.477   .     S
C1107  H1137   1.082   .     S
C1107  C1132   1.403   .     A
C1107  C2375   1.390   1_554 S
C1108  H1138   1.083   .     S
C1108  C1131   1.400   .     A
C1108  C2376   1.400   .     S
C1109  O1179   1.381   .     S
C1109  C1114   1.410   .     A
C1110  C1113   1.409   .     A
C1110  O1187   1.384   .     S
C1110  C836    1.404   1_655 S
C1111  O1195   1.380   .     S
C1111  C1113   1.407   .     A
C1111  C833    1.395   1_655 S
C1112  O1203   1.379   .     S
C1112  C1114   1.410   .     A
C1115  N1140   1.383   .     A
C1115  O1211   1.382   .     S
C1116  O1219   1.381   .     S
C1116  N1139   1.384   .     A
C1116  C289    1.462   1_565 S
C1117  O1227   1.412   .     S
C1117  N1140   1.385   .     A
C1118  O1235   1.392   .     S
C1118  N1139   1.372   .     A
C1118  C287    1.439   1_565 S
C1119  O1148   1.317   .     A
C1119  C1124   1.460   .     S
C1119  O1145   1.301   .     A
C1120  C1123   1.442   .     S
C1120  O1147   1.302   .     A
C1120  O1146   1.307   .     A
C1121  O1149   1.388   .     S
C1121  C1131   1.403   .     A
C1121  C1123   1.407   .     A
C1122  C1124   1.401   .     A
C1122  C1132   1.406   .     A
C1122  O1154   1.385   .     S
C1123  C1125   1.401   .     A
C1124  C1126   1.411   .     A
C1125  O1159   1.386   .     S
C1125  C1127   1.407   .     A
C1126  O1164   1.384   .     S
C1126  C1128   1.414   .     A
C1127  C1133   1.411   .     A
C1127  C1129   1.418   .     A
C1128  C1130   1.417   .     A
C1128  C1134   1.418   .     A
C1129  C1131   1.412   .     A
C1129  C2372   1.410   .     S
C1130  C1132   1.410   .     A
C1130  C2371   1.410   1_554 S
C1133  O1169   1.382   .     S
C1133  C2349   1.390   .     S
C1134  O1174   1.384   .     S
C1134  C2350   1.400   1_554 S
Cu1135 O1147   1.966   .     S
Cu1135 Cu1136  2.732   .     S
Cu1135 O1141   1.997   .     S
Cu1135 O1145   1.948   .     S
Cu1135 N1139   2.053   .     S
Cu1135 O1143   1.996   .     S
Cu1136 O1142   1.997   .     S
Cu1136 N1140   2.053   .     S
Cu1136 O1148   1.966   .     S
Cu1136 O1144   1.996   .     S
Cu1136 O1146   1.948   .     S
O1149  C1150   1.409   .     S
C1150  H1153   1.112   .     S
C1150  H1152   1.109   .     S
C1150  H1151   1.109   .     S
O1154  C1155   1.418   .     S
C1155  H1156   1.116   .     S
C1155  H1157   1.095   .     S
C1155  H1158   1.109   .     S
O1159  C1160   1.411   .     S
C1160  H1161   1.110   .     S
C1160  H1163   1.112   .     S
C1160  H1162   1.109   .     S
O1164  C1165   1.412   .     S
C1165  H1167   1.107   .     S
C1165  H1168   1.107   .     S
C1165  H1166   1.116   .     S
O1169  C1170   1.410   .     S
C1170  H1172   1.114   .     S
C1170  H1173   1.113   .     S
C1170  H1171   1.108   .     S
O1174  C1175   1.411   .     S
C1175  H1178   1.112   .     S
C1175  H1176   1.110   .     S
C1175  H1177   1.114   .     S
O1179  C1180   1.413   .     S
C1180  C1183   1.528   .     S
C1180  H1182   1.111   .     S
C1180  H1181   1.107   .     S
C1183  H1185   1.109   .     S
H1184  C907    1.109   1_655 S
H1186  C907    1.105   1_655 S
O1187  C1188   1.414   .     S
C1188  C1191   1.517   .     S
C1188  H1189   1.112   .     S
C1188  H1190   1.107   .     S
C1191  H1192   1.108   .     S
C1191  H1193   1.108   .     S
C1191  H1194   1.110   .     S
O1195  C1196   1.409   .     S
C1196  C1199   1.514   .     S
C1196  H1198   1.116   .     S
C1196  H1197   1.103   .     S
C1199  H1202   1.100   .     S
C1199  H1201   1.109   .     S
H1200  C371    1.100   1_565 S
O1203  C1204   1.410   .     S
C1204  H1205   1.111   .     S
C1204  H1206   1.111   .     S
C1204  C1207   1.518   .     S
C1207  H1210   1.103   .     S
C1207  H380    1.101   1_565 S
C1207  H381    1.110   1_565 S
O1211  C1212   1.427   .     S
C1212  H1213   1.110   .     S
C1212  C1215   1.516   .     S
H1214  C384    1.107   1_565 S
C1215  H1217   1.110   .     S
C1215  H1216   1.103   .     S
C1215  H1218   1.110   .     S
O1219  C1220   1.424   .     S
C1220  H1222   1.114   .     S
C1220  C1223   1.530   .     S
C1220  H1221   1.104   .     S
C1223  H1225   1.107   .     S
C1223  H1226   1.110   .     S
C1223  H1224   1.111   .     S
O1227  C1228   1.418   .     S
C1228  C1231   1.519   .     S
C1228  H1230   1.099   .     S
C1228  H1229   1.109   .     S
C1231  H1233   1.111   .     S
C1231  H1232   1.102   .     S
C1231  H1234   1.105   .     S
O1235  C1236   1.413   .     S
C1236  H1237   1.110   .     S
C1236  C1239   1.520   .     S
C1236  H1238   1.107   .     S
C1239  H1242   1.109   .     S
C1239  H1240   1.103   .     S
C1239  H1241   1.111   .     S
C1243  O1282   1.315   .     A
C1243  O1279   1.313   .     A
C1243  C1252   1.480   .     S
C1244  O1281   1.312   .     A
C1244  O1280   1.314   .     A
C1244  C1251   1.477   .     S
C1245  H1275   1.082   .     S
C1245  C1270   1.403   .     A
C1246  H1276   1.083   .     S
C1246  C1269   1.400   .     A
C1246  C30     1.400   1_556 S
C1247  O1317   1.381   .     S
C1247  C1252   1.410   .     A
C1247  C1525   1.395   1_455 S
C1248  C1251   1.409   .     A
C1248  O1325   1.384   .     S
C1248  C1388   1.404   .     S
C1249  O1333   1.380   .     S
C1249  C1251   1.407   .     A
C1249  C1385   1.395   .     S
C1250  O1341   1.379   .     S
C1250  C1252   1.410   .     A
C1250  C1524   1.404   1_455 S
C1253  N1278   1.383   .     A
C1253  O1349   1.382   .     S
C1253  C2084   1.439   1_545 S
C1254  O1357   1.381   .     S
C1254  N1277   1.384   .     A
C1254  C1669   1.462   .     S
C1255  O1365   1.412   .     S
C1255  N1278   1.385   .     A
C1255  C2082   1.462   1_545 S
C1256  O1373   1.392   .     S
C1256  N1277   1.372   .     A
C1256  C1667   1.439   .     S
C1257  O1286   1.317   .     A
C1257  C1262   1.460   .     S
C1257  O1283   1.301   .     A
C1258  C1261   1.442   .     S
C1258  O1285   1.302   .     A
C1258  O1284   1.307   .     A
C1259  O1287   1.388   .     S
C1259  C1269   1.403   .     A
C1259  C1261   1.407   .     A
C1260  C1262   1.401   .     A
C1260  C1270   1.406   .     A
C1260  O1292   1.385   .     S
C1261  C1263   1.401   .     A
C1262  C1264   1.411   .     A
C1263  O1297   1.386   .     S
C1263  C1265   1.407   .     A
C1264  O1302   1.384   .     S
C1264  C1266   1.414   .     A
C1265  C1271   1.411   .     A
C1265  C1267   1.418   .     A
C1266  C1268   1.417   .     A
C1266  C1272   1.418   .     A
C1267  C1269   1.412   .     A
C1267  C26     1.410   1_556 S
C1268  C1270   1.410   .     A
C1271  O1307   1.382   .     S
C1271  C3      1.390   1_556 S
C1272  O1312   1.384   .     S
Cu1273 O1285   1.966   .     S
Cu1273 Cu1274  2.732   .     S
Cu1273 O1279   1.997   .     S
Cu1273 O1283   1.948   .     S
Cu1273 N1277   2.053   .     S
Cu1273 O1281   1.996   .     S
Cu1274 O1280   1.997   .     S
Cu1274 N1278   2.053   .     S
Cu1274 O1286   1.966   .     S
Cu1274 O1282   1.996   .     S
Cu1274 O1284   1.948   .     S
O1287  C1288   1.409   .     S
C1288  H1291   1.112   .     S
C1288  H1290   1.109   .     S
C1288  H1289   1.109   .     S
O1292  C1293   1.418   .     S
C1293  H1294   1.116   .     S
C1293  H1295   1.095   .     S
C1293  H1296   1.109   .     S
O1297  C1298   1.411   .     S
C1298  H1299   1.110   .     S
C1298  H1301   1.112   .     S
C1298  H1300   1.109   .     S
O1302  C1303   1.412   .     S
C1303  H1305   1.107   .     S
C1303  H1306   1.107   .     S
C1303  H1304   1.116   .     S
O1307  C1308   1.410   .     S
C1308  H1310   1.114   .     S
C1308  H1311   1.113   .     S
C1308  H1309   1.108   .     S
O1312  C1313   1.411   .     S
C1313  H1316   1.112   .     S
C1313  H1314   1.110   .     S
C1313  H1315   1.114   .     S
O1317  C1318   1.413   .     S
C1318  C1321   1.528   .     S
C1318  H1320   1.111   .     S
C1318  H1319   1.107   .     S
C1321  H1323   1.109   .     S
C1321  H1598   1.109   1_455 S
C1321  H1600   1.105   1_455 S
H1322  C1459   1.109   .     S
H1324  C1459   1.105   .     S
O1325  C1326   1.414   .     S
C1326  C1329   1.517   .     S
C1326  H1327   1.112   .     S
C1326  H1328   1.107   .     S
C1329  H1330   1.108   .     S
C1329  H1331   1.108   .     S
C1329  H1332   1.110   .     S
O1333  C1334   1.409   .     S
C1334  C1337   1.514   .     S
C1334  H1336   1.116   .     S
C1334  H1335   1.103   .     S
C1337  H1340   1.100   .     S
C1337  H1339   1.109   .     S
C1337  H2166   1.100   1_545 S
H1338  C1751   1.100   .     S
O1341  C1342   1.410   .     S
C1342  H1343   1.111   .     S
C1342  H1344   1.111   .     S
C1342  C1345   1.518   .     S
C1345  H1348   1.103   .     S
C1345  H1760   1.101   .     S
C1345  H1761   1.110   .     S
H1346  C2173   1.101   1_545 S
H1347  C2173   1.110   1_545 S
O1349  C1350   1.427   .     S
C1350  H1351   1.110   .     S
C1350  C1353   1.516   .     S
C1350  H2180   1.107   1_545 S
H1352  C1764   1.107   .     S
C1353  H1355   1.110   .     S
C1353  H1354   1.103   .     S
C1353  H1356   1.110   .     S
O1357  C1358   1.424   .     S
C1358  H1360   1.114   .     S
C1358  C1361   1.530   .     S
C1358  H1359   1.104   .     S
C1361  H1363   1.107   .     S
C1361  H1364   1.110   .     S
C1361  H1362   1.111   .     S
O1365  C1366   1.418   .     S
C1366  C1369   1.519   .     S
C1366  H1368   1.099   .     S
C1366  H1367   1.109   .     S
C1369  H1371   1.111   .     S
C1369  H1370   1.102   .     S
C1369  H1372   1.105   .     S
O1373  C1374   1.413   .     S
C1374  H1375   1.110   .     S
C1374  C1377   1.520   .     S
C1374  H1376   1.107   .     S
C1377  H1380   1.109   .     S
C1377  H1378   1.103   .     S
C1377  H1379   1.111   .     S
C1381  O1420   1.315   .     A
C1381  O1417   1.313   .     A
C1381  C1390   1.480   .     S
C1382  O1419   1.312   .     A
C1382  O1418   1.314   .     A
C1382  C1389   1.477   .     S
C1383  H1413   1.082   .     S
C1383  C1408   1.403   .     A
C1384  H1414   1.083   .     S
C1384  C1407   1.400   .     A
C1384  C168    1.400   1_556 S
C1385  O1455   1.381   .     S
C1385  C1390   1.410   .     A
C1386  C1389   1.409   .     A
C1386  O1463   1.384   .     S
C1386  C1526   1.404   .     S
C1387  O1471   1.380   .     S
C1387  C1389   1.407   .     A
C1387  C1523   1.395   .     S
C1388  O1479   1.379   .     S
C1388  C1390   1.410   .     A
C1391  N1416   1.383   .     A
C1391  O1487   1.382   .     S
C1391  C2222   1.439   1_545 S
C1392  O1495   1.381   .     S
C1392  N1415   1.384   .     A
C1392  C1807   1.462   .     S
C1393  O1503   1.412   .     S
C1393  N1416   1.385   .     A
C1393  C2220   1.462   1_545 S
C1394  O1511   1.392   .     S
C1394  N1415   1.372   .     A
C1394  C1805   1.439   .     S
C1395  O1424   1.317   .     A
C1395  C1400   1.460   .     S
C1395  O1421   1.301   .     A
C1396  C1399   1.442   .     S
C1396  O1423   1.302   .     A
C1396  O1422   1.307   .     A
C1397  O1425   1.388   .     S
C1397  C1407   1.403   .     A
C1397  C1399   1.407   .     A
C1398  C1400   1.401   .     A
C1398  C1408   1.406   .     A
C1398  O1430   1.385   .     S
C1399  C1401   1.401   .     A
C1400  C1402   1.411   .     A
C1401  O1435   1.386   .     S
C1401  C1403   1.407   .     A
C1402  O1440   1.384   .     S
C1402  C1404   1.414   .     A
C1403  C1409   1.411   .     A
C1403  C1405   1.418   .     A
C1404  C1406   1.417   .     A
C1404  C1410   1.418   .     A
C1405  C1407   1.412   .     A
C1405  C164    1.410   1_556 S
C1406  C1408   1.410   .     A
C1409  O1445   1.382   .     S
C1409  C141    1.390   1_556 S
C1410  O1450   1.384   .     S
Cu1411 O1423   1.966   .     S
Cu1411 Cu1412  2.732   .     S
Cu1411 O1417   1.997   .     S
Cu1411 O1421   1.948   .     S
Cu1411 N1415   2.053   .     S
Cu1411 O1419   1.996   .     S
Cu1412 O1418   1.997   .     S
Cu1412 N1416   2.053   .     S
Cu1412 O1424   1.966   .     S
Cu1412 O1420   1.996   .     S
Cu1412 O1422   1.948   .     S
O1425  C1426   1.409   .     S
C1426  H1429   1.112   .     S
C1426  H1428   1.109   .     S
C1426  H1427   1.109   .     S
O1430  C1431   1.418   .     S
C1431  H1432   1.116   .     S
C1431  H1433   1.095   .     S
C1431  H1434   1.109   .     S
O1435  C1436   1.411   .     S
C1436  H1437   1.110   .     S
C1436  H1439   1.112   .     S
C1436  H1438   1.109   .     S
O1440  C1441   1.412   .     S
C1441  H1443   1.107   .     S
C1441  H1444   1.107   .     S
C1441  H1442   1.116   .     S
O1445  C1446   1.410   .     S
C1446  H1448   1.114   .     S
C1446  H1449   1.113   .     S
C1446  H1447   1.108   .     S
O1450  C1451   1.411   .     S
C1451  H1454   1.112   .     S
C1451  H1452   1.110   .     S
C1451  H1453   1.114   .     S
O1455  C1456   1.413   .     S
C1456  C1459   1.528   .     S
C1456  H1458   1.111   .     S
C1456  H1457   1.107   .     S
C1459  H1461   1.109   .     S
H1460  C1597   1.109   .     S
H1462  C1597   1.105   .     S
O1463  C1464   1.414   .     S
C1464  C1467   1.517   .     S
C1464  H1465   1.112   .     S
C1464  H1466   1.107   .     S
C1467  H1468   1.108   .     S
C1467  H1469   1.108   .     S
C1467  H1470   1.110   .     S
O1471  C1472   1.409   .     S
C1472  C1475   1.514   .     S
C1472  H1474   1.116   .     S
C1472  H1473   1.103   .     S
C1475  H1478   1.100   .     S
C1475  H1477   1.109   .     S
C1475  H2304   1.100   1_545 S
H1476  C1889   1.100   .     S
O1479  C1480   1.410   .     S
C1480  H1481   1.111   .     S
C1480  H1482   1.111   .     S
C1480  C1483   1.518   .     S
C1483  H1486   1.103   .     S
C1483  H1898   1.101   .     S
C1483  H1899   1.110   .     S
H1484  C2311   1.101   1_545 S
H1485  C2311   1.110   1_545 S
O1487  C1488   1.427   .     S
C1488  H1489   1.110   .     S
C1488  C1491   1.516   .     S
C1488  H2318   1.107   1_545 S
H1490  C1902   1.107   .     S
C1491  H1493   1.110   .     S
C1491  H1492   1.103   .     S
C1491  H1494   1.110   .     S
O1495  C1496   1.424   .     S
C1496  H1498   1.114   .     S
C1496  C1499   1.530   .     S
C1496  H1497   1.104   .     S
C1499  H1501   1.107   .     S
C1499  H1502   1.110   .     S
C1499  H1500   1.111   .     S
O1503  C1504   1.418   .     S
C1504  C1507   1.519   .     S
C1504  H1506   1.099   .     S
C1504  H1505   1.109   .     S
C1507  H1509   1.111   .     S
C1507  H1508   1.102   .     S
C1507  H1510   1.105   .     S
O1511  C1512   1.413   .     S
C1512  H1513   1.110   .     S
C1512  C1515   1.520   .     S
C1512  H1514   1.107   .     S
C1515  H1518   1.109   .     S
C1515  H1516   1.103   .     S
C1515  H1517   1.111   .     S
C1519  O1558   1.315   .     A
C1519  O1555   1.313   .     A
C1519  C1528   1.480   .     S
C1520  O1557   1.312   .     A
C1520  O1556   1.314   .     A
C1520  C1527   1.477   .     S
C1521  H1551   1.082   .     S
C1521  C1546   1.403   .     A
C1522  H1552   1.083   .     S
C1522  C1545   1.400   .     A
C1522  C306    1.400   1_556 S
C1523  O1593   1.381   .     S
C1523  C1528   1.410   .     A
C1524  C1527   1.409   .     A
C1524  O1601   1.384   .     S
C1524  C1250   1.404   1_655 S
C1525  O1609   1.380   .     S
C1525  C1527   1.407   .     A
C1525  C1247   1.395   1_655 S
C1526  O1617   1.379   .     S
C1526  C1528   1.410   .     A
C1529  N1554   1.383   .     A
C1529  O1625   1.382   .     S
C1529  C2360   1.439   1_545 S
C1530  O1633   1.381   .     S
C1530  N1553   1.384   .     A
C1530  C1945   1.462   .     S
C1531  O1641   1.412   .     S
C1531  N1554   1.385   .     A
C1531  C2358   1.462   1_545 S
C1532  O1649   1.392   .     S
C1532  N1553   1.372   .     A
C1532  C1943   1.439   .     S
C1533  O1562   1.317   .     A
C1533  C1538   1.460   .     S
C1533  O1559   1.301   .     A
C1534  C1537   1.442   .     S
C1534  O1561   1.302   .     A
C1534  O1560   1.307   .     A
C1535  O1563   1.388   .     S
C1535  C1545   1.403   .     A
C1535  C1537   1.407   .     A
C1536  C1538   1.401   .     A
C1536  C1546   1.406   .     A
C1536  O1568   1.385   .     S
C1537  C1539   1.401   .     A
C1538  C1540   1.411   .     A
C1539  O1573   1.386   .     S
C1539  C1541   1.407   .     A
C1540  O1578   1.384   .     S
C1540  C1542   1.414   .     A
C1541  C1547   1.411   .     A
C1541  C1543   1.418   .     A
C1542  C1544   1.417   .     A
C1542  C1548   1.418   .     A
C1543  C1545   1.412   .     A
C1543  C302    1.410   1_556 S
C1544  C1546   1.410   .     A
C1547  O1583   1.382   .     S
C1547  C279    1.390   1_556 S
C1548  O1588   1.384   .     S
Cu1549 O1561   1.966   .     S
Cu1549 Cu1550  2.732   .     S
Cu1549 O1555   1.997   .     S
Cu1549 O1559   1.948   .     S
Cu1549 N1553   2.053   .     S
Cu1549 O1557   1.996   .     S
Cu1550 O1556   1.997   .     S
Cu1550 N1554   2.053   .     S
Cu1550 O1562   1.966   .     S
Cu1550 O1558   1.996   .     S
Cu1550 O1560   1.948   .     S
O1563  C1564   1.409   .     S
C1564  H1567   1.112   .     S
C1564  H1566   1.109   .     S
C1564  H1565   1.109   .     S
O1568  C1569   1.418   .     S
C1569  H1570   1.116   .     S
C1569  H1571   1.095   .     S
C1569  H1572   1.109   .     S
O1573  C1574   1.411   .     S
C1574  H1575   1.110   .     S
C1574  H1577   1.112   .     S
C1574  H1576   1.109   .     S
O1578  C1579   1.412   .     S
C1579  H1581   1.107   .     S
C1579  H1582   1.107   .     S
C1579  H1580   1.116   .     S
O1583  C1584   1.410   .     S
C1584  H1586   1.114   .     S
C1584  H1587   1.113   .     S
C1584  H1585   1.108   .     S
O1588  C1589   1.411   .     S
C1589  H1592   1.112   .     S
C1589  H1590   1.110   .     S
C1589  H1591   1.114   .     S
O1593  C1594   1.413   .     S
C1594  C1597   1.528   .     S
C1594  H1596   1.111   .     S
C1594  H1595   1.107   .     S
C1597  H1599   1.109   .     S
H1598  C1321   1.109   1_655 S
H1600  C1321   1.105   1_655 S
O1601  C1602   1.414   .     S
C1602  C1605   1.517   .     S
C1602  H1603   1.112   .     S
C1602  H1604   1.107   .     S
C1605  H1606   1.108   .     S
C1605  H1607   1.108   .     S
C1605  H1608   1.110   .     S
O1609  C1610   1.409   .     S
C1610  C1613   1.514   .     S
C1610  H1612   1.116   .     S
C1610  H1611   1.103   .     S
C1613  H1616   1.100   .     S
C1613  H1615   1.109   .     S
C1613  H2442   1.100   1_545 S
H1614  C2027   1.100   .     S
O1617  C1618   1.410   .     S
C1618  H1619   1.111   .     S
C1618  H1620   1.111   .     S
C1618  C1621   1.518   .     S
C1621  H1624   1.103   .     S
C1621  H2036   1.101   .     S
C1621  H2037   1.110   .     S
H1622  C2449   1.101   1_545 S
H1623  C2449   1.110   1_545 S
O1625  C1626   1.427   .     S
C1626  H1627   1.110   .     S
C1626  C1629   1.516   .     S
C1626  H2456   1.107   1_545 S
H1628  C2040   1.107   .     S
C1629  H1631   1.110   .     S
C1629  H1630   1.103   .     S
C1629  H1632   1.110   .     S
O1633  C1634   1.424   .     S
C1634  H1636   1.114   .     S
C1634  C1637   1.530   .     S
C1634  H1635   1.104   .     S
C1637  H1639   1.107   .     S
C1637  H1640   1.110   .     S
C1637  H1638   1.111   .     S
O1641  C1642   1.418   .     S
C1642  C1645   1.519   .     S
C1642  H1644   1.099   .     S
C1642  H1643   1.109   .     S
C1645  H1647   1.111   .     S
C1645  H1646   1.102   .     S
C1645  H1648   1.105   .     S
O1649  C1650   1.413   .     S
C1650  H1651   1.110   .     S
C1650  C1653   1.520   .     S
C1650  H1652   1.107   .     S
C1653  H1656   1.109   .     S
C1653  H1654   1.103   .     S
C1653  H1655   1.111   .     S
C1657  O1696   1.315   .     A
C1657  O1693   1.313   .     A
C1657  C1666   1.480   .     S
C1658  O1695   1.312   .     A
C1658  O1694   1.314   .     A
C1658  C1665   1.477   .     S
C1659  H1689   1.082   .     S
C1659  C1684   1.403   .     A
C1660  H1690   1.083   .     S
C1660  C1683   1.400   .     A
C1660  C444    1.400   1_556 S
C1661  O1731   1.381   .     S
C1661  C1666   1.410   .     A
C1661  C1939   1.395   1_455 S
C1662  C1665   1.409   .     A
C1662  O1739   1.384   .     S
C1662  C1802   1.404   .     S
C1663  O1747   1.380   .     S
C1663  C1665   1.407   .     A
C1663  C1799   1.395   .     S
C1664  O1755   1.379   .     S
C1664  C1666   1.410   .     A
C1664  C1938   1.404   1_455 S
C1667  N1692   1.383   .     A
C1667  O1763   1.382   .     S
C1668  O1771   1.381   .     S
C1668  N1691   1.384   .     A
C1668  C2083   1.462   .     S
C1669  O1779   1.412   .     S
C1669  N1692   1.385   .     A
C1670  O1787   1.392   .     S
C1670  N1691   1.372   .     A
C1670  C2081   1.439   .     S
C1671  O1700   1.317   .     A
C1671  C1676   1.460   .     S
C1671  O1697   1.301   .     A
C1672  C1675   1.442   .     S
C1672  O1699   1.302   .     A
C1672  O1698   1.307   .     A
C1673  O1701   1.388   .     S
C1673  C1683   1.403   .     A
C1673  C1675   1.407   .     A
C1674  C1676   1.401   .     A
C1674  C1684   1.406   .     A
C1674  O1706   1.385   .     S
C1675  C1677   1.401   .     A
C1676  C1678   1.411   .     A
C1677  O1711   1.386   .     S
C1677  C1679   1.407   .     A
C1678  O1716   1.384   .     S
C1678  C1680   1.414   .     A
C1679  C1685   1.411   .     A
C1679  C1681   1.418   .     A
C1680  C1682   1.417   .     A
C1680  C1686   1.418   .     A
C1681  C1683   1.412   .     A
C1681  C440    1.410   1_556 S
C1682  C1684   1.410   .     A
C1685  O1721   1.382   .     S
C1685  C417    1.390   1_556 S
C1686  O1726   1.384   .     S
Cu1687 O1699   1.966   .     S
Cu1687 Cu1688  2.732   .     S
Cu1687 O1693   1.997   .     S
Cu1687 O1697   1.948   .     S
Cu1687 N1691   2.053   .     S
Cu1687 O1695   1.996   .     S
Cu1688 O1694   1.997   .     S
Cu1688 N1692   2.053   .     S
Cu1688 O1700   1.966   .     S
Cu1688 O1696   1.996   .     S
Cu1688 O1698   1.948   .     S
O1701  C1702   1.409   .     S
C1702  H1705   1.112   .     S
C1702  H1704   1.109   .     S
C1702  H1703   1.109   .     S
O1706  C1707   1.418   .     S
C1707  H1708   1.116   .     S
C1707  H1709   1.095   .     S
C1707  H1710   1.109   .     S
O1711  C1712   1.411   .     S
C1712  H1713   1.110   .     S
C1712  H1715   1.112   .     S
C1712  H1714   1.109   .     S
O1716  C1717   1.412   .     S
C1717  H1719   1.107   .     S
C1717  H1720   1.107   .     S
C1717  H1718   1.116   .     S
O1721  C1722   1.410   .     S
C1722  H1724   1.114   .     S
C1722  H1725   1.113   .     S
C1722  H1723   1.108   .     S
O1726  C1727   1.411   .     S
C1727  H1730   1.112   .     S
C1727  H1728   1.110   .     S
C1727  H1729   1.114   .     S
O1731  C1732   1.413   .     S
C1732  C1735   1.528   .     S
C1732  H1734   1.111   .     S
C1732  H1733   1.107   .     S
C1735  H1737   1.109   .     S
C1735  H2012   1.109   1_455 S
C1735  H2014   1.105   1_455 S
H1736  C1873   1.109   .     S
H1738  C1873   1.105   .     S
O1739  C1740   1.414   .     S
C1740  C1743   1.517   .     S
C1740  H1741   1.112   .     S
C1740  H1742   1.107   .     S
C1743  H1744   1.108   .     S
C1743  H1745   1.108   .     S
C1743  H1746   1.110   .     S
O1747  C1748   1.409   .     S
C1748  C1751   1.514   .     S
C1748  H1750   1.116   .     S
C1748  H1749   1.103   .     S
C1751  H1754   1.100   .     S
C1751  H1753   1.109   .     S
H1752  C2165   1.100   .     S
O1755  C1756   1.410   .     S
C1756  H1757   1.111   .     S
C1756  H1758   1.111   .     S
C1756  C1759   1.518   .     S
C1759  H1762   1.103   .     S
C1759  H2174   1.101   .     S
C1759  H2175   1.110   .     S
O1763  C1764   1.427   .     S
C1764  H1765   1.110   .     S
C1764  C1767   1.516   .     S
H1766  C2178   1.107   .     S
C1767  H1769   1.110   .     S
C1767  H1768   1.103   .     S
C1767  H1770   1.110   .     S
O1771  C1772   1.424   .     S
C1772  H1774   1.114   .     S
C1772  C1775   1.530   .     S
C1772  H1773   1.104   .     S
C1775  H1777   1.107   .     S
C1775  H1778   1.110   .     S
C1775  H1776   1.111   .     S
O1779  C1780   1.418   .     S
C1780  C1783   1.519   .     S
C1780  H1782   1.099   .     S
C1780  H1781   1.109   .     S
C1783  H1785   1.111   .     S
C1783  H1784   1.102   .     S
C1783  H1786   1.105   .     S
O1787  C1788   1.413   .     S
C1788  H1789   1.110   .     S
C1788  C1791   1.520   .     S
C1788  H1790   1.107   .     S
C1791  H1794   1.109   .     S
C1791  H1792   1.103   .     S
C1791  H1793   1.111   .     S
C1795  O1834   1.315   .     A
C1795  O1831   1.313   .     A
C1795  C1804   1.480   .     S
C1796  O1833   1.312   .     A
C1796  O1832   1.314   .     A
C1796  C1803   1.477   .     S
C1797  H1827   1.082   .     S
C1797  C1822   1.403   .     A
C1798  H1828   1.083   .     S
C1798  C1821   1.400   .     A
C1798  C582    1.400   1_556 S
C1799  O1869   1.381   .     S
C1799  C1804   1.410   .     A
C1800  C1803   1.409   .     A
C1800  O1877   1.384   .     S
C1800  C1940   1.404   .     S
C1801  O1885   1.380   .     S
C1801  C1803   1.407   .     A
C1801  C1937   1.395   .     S
C1802  O1893   1.379   .     S
C1802  C1804   1.410   .     A
C1805  N1830   1.383   .     A
C1805  O1901   1.382   .     S
C1806  O1909   1.381   .     S
C1806  N1829   1.384   .     A
C1806  C2221   1.462   .     S
C1807  O1917   1.412   .     S
C1807  N1830   1.385   .     A
C1808  O1925   1.392   .     S
C1808  N1829   1.372   .     A
C1808  C2219   1.439   .     S
C1809  O1838   1.317   .     A
C1809  C1814   1.460   .     S
C1809  O1835   1.301   .     A
C1810  C1813   1.442   .     S
C1810  O1837   1.302   .     A
C1810  O1836   1.307   .     A
C1811  O1839   1.388   .     S
C1811  C1821   1.403   .     A
C1811  C1813   1.407   .     A
C1812  C1814   1.401   .     A
C1812  C1822   1.406   .     A
C1812  O1844   1.385   .     S
C1813  C1815   1.401   .     A
C1814  C1816   1.411   .     A
C1815  O1849   1.386   .     S
C1815  C1817   1.407   .     A
C1816  O1854   1.384   .     S
C1816  C1818   1.414   .     A
C1817  C1823   1.411   .     A
C1817  C1819   1.418   .     A
C1818  C1820   1.417   .     A
C1818  C1824   1.418   .     A
C1819  C1821   1.412   .     A
C1819  C578    1.410   1_556 S
C1820  C1822   1.410   .     A
C1823  O1859   1.382   .     S
C1823  C555    1.390   1_556 S
C1824  O1864   1.384   .     S
Cu1825 O1837   1.966   .     S
Cu1825 Cu1826  2.732   .     S
Cu1825 O1831   1.997   .     S
Cu1825 O1835   1.948   .     S
Cu1825 N1829   2.053   .     S
Cu1825 O1833   1.996   .     S
Cu1826 O1832   1.997   .     S
Cu1826 N1830   2.053   .     S
Cu1826 O1838   1.966   .     S
Cu1826 O1834   1.996   .     S
Cu1826 O1836   1.948   .     S
O1839  C1840   1.409   .     S
C1840  H1843   1.112   .     S
C1840  H1842   1.109   .     S
C1840  H1841   1.109   .     S
O1844  C1845   1.418   .     S
C1845  H1846   1.116   .     S
C1845  H1847   1.095   .     S
C1845  H1848   1.109   .     S
O1849  C1850   1.411   .     S
C1850  H1851   1.110   .     S
C1850  H1853   1.112   .     S
C1850  H1852   1.109   .     S
O1854  C1855   1.412   .     S
C1855  H1857   1.107   .     S
C1855  H1858   1.107   .     S
C1855  H1856   1.116   .     S
O1859  C1860   1.410   .     S
C1860  H1862   1.114   .     S
C1860  H1863   1.113   .     S
C1860  H1861   1.108   .     S
O1864  C1865   1.411   .     S
C1865  H1868   1.112   .     S
C1865  H1866   1.110   .     S
C1865  H1867   1.114   .     S
O1869  C1870   1.413   .     S
C1870  C1873   1.528   .     S
C1870  H1872   1.111   .     S
C1870  H1871   1.107   .     S
C1873  H1875   1.109   .     S
H1874  C2011   1.109   .     S
H1876  C2011   1.105   .     S
O1877  C1878   1.414   .     S
C1878  C1881   1.517   .     S
C1878  H1879   1.112   .     S
C1878  H1880   1.107   .     S
C1881  H1882   1.108   .     S
C1881  H1883   1.108   .     S
C1881  H1884   1.110   .     S
O1885  C1886   1.409   .     S
C1886  C1889   1.514   .     S
C1886  H1888   1.116   .     S
C1886  H1887   1.103   .     S
C1889  H1892   1.100   .     S
C1889  H1891   1.109   .     S
H1890  C2303   1.100   .     S
O1893  C1894   1.410   .     S
C1894  H1895   1.111   .     S
C1894  H1896   1.111   .     S
C1894  C1897   1.518   .     S
C1897  H1900   1.103   .     S
C1897  H2312   1.101   .     S
C1897  H2313   1.110   .     S
O1901  C1902   1.427   .     S
C1902  H1903   1.110   .     S
C1902  C1905   1.516   .     S
H1904  C2316   1.107   .     S
C1905  H1907   1.110   .     S
C1905  H1906   1.103   .     S
C1905  H1908   1.110   .     S
O1909  C1910   1.424   .     S
C1910  H1912   1.114   .     S
C1910  C1913   1.530   .     S
C1910  H1911   1.104   .     S
C1913  H1915   1.107   .     S
C1913  H1916   1.110   .     S
C1913  H1914   1.111   .     S
O1917  C1918   1.418   .     S
C1918  C1921   1.519   .     S
C1918  H1920   1.099   .     S
C1918  H1919   1.109   .     S
C1921  H1923   1.111   .     S
C1921  H1922   1.102   .     S
C1921  H1924   1.105   .     S
O1925  C1926   1.413   .     S
C1926  H1927   1.110   .     S
C1926  C1929   1.520   .     S
C1926  H1928   1.107   .     S
C1929  H1932   1.109   .     S
C1929  H1930   1.103   .     S
C1929  H1931   1.111   .     S
C1933  O1972   1.315   .     A
C1933  O1969   1.313   .     A
C1933  C1942   1.480   .     S
C1934  O1971   1.312   .     A
C1934  O1970   1.314   .     A
C1934  C1941   1.477   .     S
C1935  H1965   1.082   .     S
C1935  C1960   1.403   .     A
C1936  H1966   1.083   .     S
C1936  C1959   1.400   .     A
C1936  C720    1.400   1_556 S
C1937  O2007   1.381   .     S
C1937  C1942   1.410   .     A
C1938  C1941   1.409   .     A
C1938  O2015   1.384   .     S
C1938  C1664   1.404   1_655 S
C1939  O2023   1.380   .     S
C1939  C1941   1.407   .     A
C1939  C1661   1.395   1_655 S
C1940  O2031   1.379   .     S
C1940  C1942   1.410   .     A
C1943  N1968   1.383   .     A
C1943  O2039   1.382   .     S
C1944  O2047   1.381   .     S
C1944  N1967   1.384   .     A
C1944  C2359   1.462   .     S
C1945  O2055   1.412   .     S
C1945  N1968   1.385   .     A
C1946  O2063   1.392   .     S
C1946  N1967   1.372   .     A
C1946  C2357   1.439   .     S
C1947  O1976   1.317   .     A
C1947  C1952   1.460   .     S
C1947  O1973   1.301   .     A
C1948  C1951   1.442   .     S
C1948  O1975   1.302   .     A
C1948  O1974   1.307   .     A
C1949  O1977   1.388   .     S
C1949  C1959   1.403   .     A
C1949  C1951   1.407   .     A
C1950  C1952   1.401   .     A
C1950  C1960   1.406   .     A
C1950  O1982   1.385   .     S
C1951  C1953   1.401   .     A
C1952  C1954   1.411   .     A
C1953  O1987   1.386   .     S
C1953  C1955   1.407   .     A
C1954  O1992   1.384   .     S
C1954  C1956   1.414   .     A
C1955  C1961   1.411   .     A
C1955  C1957   1.418   .     A
C1956  C1958   1.417   .     A
C1956  C1962   1.418   .     A
C1957  C1959   1.412   .     A
C1957  C716    1.410   1_556 S
C1958  C1960   1.410   .     A
C1961  O1997   1.382   .     S
C1961  C693    1.390   1_556 S
C1962  O2002   1.384   .     S
Cu1963 O1975   1.966   .     S
Cu1963 Cu1964  2.732   .     S
Cu1963 O1969   1.997   .     S
Cu1963 O1973   1.948   .     S
Cu1963 N1967   2.053   .     S
Cu1963 O1971   1.996   .     S
Cu1964 O1970   1.997   .     S
Cu1964 N1968   2.053   .     S
Cu1964 O1976   1.966   .     S
Cu1964 O1972   1.996   .     S
Cu1964 O1974   1.948   .     S
O1977  C1978   1.409   .     S
C1978  H1981   1.112   .     S
C1978  H1980   1.109   .     S
C1978  H1979   1.109   .     S
O1982  C1983   1.418   .     S
C1983  H1984   1.116   .     S
C1983  H1985   1.095   .     S
C1983  H1986   1.109   .     S
O1987  C1988   1.411   .     S
C1988  H1989   1.110   .     S
C1988  H1991   1.112   .     S
C1988  H1990   1.109   .     S
O1992  C1993   1.412   .     S
C1993  H1995   1.107   .     S
C1993  H1996   1.107   .     S
C1993  H1994   1.116   .     S
O1997  C1998   1.410   .     S
C1998  H2000   1.114   .     S
C1998  H2001   1.113   .     S
C1998  H1999   1.108   .     S
O2002  C2003   1.411   .     S
C2003  H2006   1.112   .     S
C2003  H2004   1.110   .     S
C2003  H2005   1.114   .     S
O2007  C2008   1.413   .     S
C2008  C2011   1.528   .     S
C2008  H2010   1.111   .     S
C2008  H2009   1.107   .     S
C2011  H2013   1.109   .     S
H2012  C1735   1.109   1_655 S
H2014  C1735   1.105   1_655 S
O2015  C2016   1.414   .     S
C2016  C2019   1.517   .     S
C2016  H2017   1.112   .     S
C2016  H2018   1.107   .     S
C2019  H2020   1.108   .     S
C2019  H2021   1.108   .     S
C2019  H2022   1.110   .     S
O2023  C2024   1.409   .     S
C2024  C2027   1.514   .     S
C2024  H2026   1.116   .     S
C2024  H2025   1.103   .     S
C2027  H2030   1.100   .     S
C2027  H2029   1.109   .     S
H2028  C2441   1.100   .     S
O2031  C2032   1.410   .     S
C2032  H2033   1.111   .     S
C2032  H2034   1.111   .     S
C2032  C2035   1.518   .     S
C2035  H2038   1.103   .     S
C2035  H2450   1.101   .     S
C2035  H2451   1.110   .     S
O2039  C2040   1.427   .     S
C2040  H2041   1.110   .     S
C2040  C2043   1.516   .     S
H2042  C2454   1.107   .     S
C2043  H2045   1.110   .     S
C2043  H2044   1.103   .     S
C2043  H2046   1.110   .     S
O2047  C2048   1.424   .     S
C2048  H2050   1.114   .     S
C2048  C2051   1.530   .     S
C2048  H2049   1.104   .     S
C2051  H2053   1.107   .     S
C2051  H2054   1.110   .     S
C2051  H2052   1.111   .     S
O2055  C2056   1.418   .     S
C2056  C2059   1.519   .     S
C2056  H2058   1.099   .     S
C2056  H2057   1.109   .     S
C2059  H2061   1.111   .     S
C2059  H2060   1.102   .     S
C2059  H2062   1.105   .     S
O2063  C2064   1.413   .     S
C2064  H2065   1.110   .     S
C2064  C2067   1.520   .     S
C2064  H2066   1.107   .     S
C2067  H2070   1.109   .     S
C2067  H2068   1.103   .     S
C2067  H2069   1.111   .     S
C2071  O2110   1.315   .     A
C2071  O2107   1.313   .     A
C2071  C2080   1.480   .     S
C2072  O2109   1.312   .     A
C2072  O2108   1.314   .     A
C2072  C2079   1.477   .     S
C2073  H2103   1.082   .     S
C2073  C2098   1.403   .     A
C2074  H2104   1.083   .     S
C2074  C2097   1.400   .     A
C2074  C858    1.400   1_556 S
C2075  O2145   1.381   .     S
C2075  C2080   1.410   .     A
C2075  C2353   1.395   1_455 S
C2076  C2079   1.409   .     A
C2076  O2153   1.384   .     S
C2076  C2216   1.404   .     S
C2077  O2161   1.380   .     S
C2077  C2079   1.407   .     A
C2077  C2213   1.395   .     S
C2078  O2169   1.379   .     S
C2078  C2080   1.410   .     A
C2078  C2352   1.404   1_455 S
C2081  N2106   1.383   .     A
C2081  O2177   1.382   .     S
C2082  O2185   1.381   .     S
C2082  N2105   1.384   .     A
C2082  C1255   1.462   1_565 S
C2083  O2193   1.412   .     S
C2083  N2106   1.385   .     A
C2084  O2201   1.392   .     S
C2084  N2105   1.372   .     A
C2084  C1253   1.439   1_565 S
C2085  O2114   1.317   .     A
C2085  C2090   1.460   .     S
C2085  O2111   1.301   .     A
C2086  C2089   1.442   .     S
C2086  O2113   1.302   .     A
C2086  O2112   1.307   .     A
C2087  O2115   1.388   .     S
C2087  C2097   1.403   .     A
C2087  C2089   1.407   .     A
C2088  C2090   1.401   .     A
C2088  C2098   1.406   .     A
C2088  O2120   1.385   .     S
C2089  C2091   1.401   .     A
C2090  C2092   1.411   .     A
C2091  O2125   1.386   .     S
C2091  C2093   1.407   .     A
C2092  O2130   1.384   .     S
C2092  C2094   1.414   .     A
C2093  C2099   1.411   .     A
C2093  C2095   1.418   .     A
C2094  C2096   1.417   .     A
C2094  C2100   1.418   .     A
C2095  C2097   1.412   .     A
C2095  C854    1.410   1_556 S
C2096  C2098   1.410   .     A
C2099  O2135   1.382   .     S
C2099  C831    1.390   1_556 S
C2100  O2140   1.384   .     S
Cu2101 O2113   1.966   .     S
Cu2101 Cu2102  2.732   .     S
Cu2101 O2107   1.997   .     S
Cu2101 O2111   1.948   .     S
Cu2101 N2105   2.053   .     S
Cu2101 O2109   1.996   .     S
Cu2102 O2108   1.997   .     S
Cu2102 N2106   2.053   .     S
Cu2102 O2114   1.966   .     S
Cu2102 O2110   1.996   .     S
Cu2102 O2112   1.948   .     S
O2115  C2116   1.409   .     S
C2116  H2119   1.112   .     S
C2116  H2118   1.109   .     S
C2116  H2117   1.109   .     S
O2120  C2121   1.418   .     S
C2121  H2122   1.116   .     S
C2121  H2123   1.095   .     S
C2121  H2124   1.109   .     S
O2125  C2126   1.411   .     S
C2126  H2127   1.110   .     S
C2126  H2129   1.112   .     S
C2126  H2128   1.109   .     S
O2130  C2131   1.412   .     S
C2131  H2133   1.107   .     S
C2131  H2134   1.107   .     S
C2131  H2132   1.116   .     S
O2135  C2136   1.410   .     S
C2136  H2138   1.114   .     S
C2136  H2139   1.113   .     S
C2136  H2137   1.108   .     S
O2140  C2141   1.411   .     S
C2141  H2144   1.112   .     S
C2141  H2142   1.110   .     S
C2141  H2143   1.114   .     S
O2145  C2146   1.413   .     S
C2146  C2149   1.528   .     S
C2146  H2148   1.111   .     S
C2146  H2147   1.107   .     S
C2149  H2151   1.109   .     S
C2149  H2426   1.109   1_455 S
C2149  H2428   1.105   1_455 S
H2150  C2287   1.109   .     S
H2152  C2287   1.105   .     S
O2153  C2154   1.414   .     S
C2154  C2157   1.517   .     S
C2154  H2155   1.112   .     S
C2154  H2156   1.107   .     S
C2157  H2158   1.108   .     S
C2157  H2159   1.108   .     S
C2157  H2160   1.110   .     S
O2161  C2162   1.409   .     S
C2162  C2165   1.514   .     S
C2162  H2164   1.116   .     S
C2162  H2163   1.103   .     S
C2165  H2168   1.100   .     S
C2165  H2167   1.109   .     S
H2166  C1337   1.100   1_565 S
O2169  C2170   1.410   .     S
C2170  H2171   1.111   .     S
C2170  H2172   1.111   .     S
C2170  C2173   1.518   .     S
C2173  H2176   1.103   .     S
C2173  H1346   1.101   1_565 S
C2173  H1347   1.110   1_565 S
O2177  C2178   1.427   .     S
C2178  H2179   1.110   .     S
C2178  C2181   1.516   .     S
H2180  C1350   1.107   1_565 S
C2181  H2183   1.110   .     S
C2181  H2182   1.103   .     S
C2181  H2184   1.110   .     S
O2185  C2186   1.424   .     S
C2186  H2188   1.114   .     S
C2186  C2189   1.530   .     S
C2186  H2187   1.104   .     S
C2189  H2191   1.107   .     S
C2189  H2192   1.110   .     S
C2189  H2190   1.111   .     S
O2193  C2194   1.418   .     S
C2194  C2197   1.519   .     S
C2194  H2196   1.099   .     S
C2194  H2195   1.109   .     S
C2197  H2199   1.111   .     S
C2197  H2198   1.102   .     S
C2197  H2200   1.105   .     S
O2201  C2202   1.413   .     S
C2202  H2203   1.110   .     S
C2202  C2205   1.520   .     S
C2202  H2204   1.107   .     S
C2205  H2208   1.109   .     S
C2205  H2206   1.103   .     S
C2205  H2207   1.111   .     S
C2209  O2248   1.315   .     A
C2209  O2245   1.313   .     A
C2209  C2218   1.480   .     S
C2210  O2247   1.312   .     A
C2210  O2246   1.314   .     A
C2210  C2217   1.477   .     S
C2211  H2241   1.082   .     S
C2211  C2236   1.403   .     A
C2212  H2242   1.083   .     S
C2212  C2235   1.400   .     A
C2212  C996    1.400   1_556 S
C2213  O2283   1.381   .     S
C2213  C2218   1.410   .     A
C2214  C2217   1.409   .     A
C2214  O2291   1.384   .     S
C2214  C2354   1.404   .     S
C2215  O2299   1.380   .     S
C2215  C2217   1.407   .     A
C2215  C2351   1.395   .     S
C2216  O2307   1.379   .     S
C2216  C2218   1.410   .     A
C2219  N2244   1.383   .     A
C2219  O2315   1.382   .     S
C2220  O2323   1.381   .     S
C2220  N2243   1.384   .     A
C2220  C1393   1.462   1_565 S
C2221  O2331   1.412   .     S
C2221  N2244   1.385   .     A
C2222  O2339   1.392   .     S
C2222  N2243   1.372   .     A
C2222  C1391   1.439   1_565 S
C2223  O2252   1.317   .     A
C2223  C2228   1.460   .     S
C2223  O2249   1.301   .     A
C2224  C2227   1.442   .     S
C2224  O2251   1.302   .     A
C2224  O2250   1.307   .     A
C2225  O2253   1.388   .     S
C2225  C2235   1.403   .     A
C2225  C2227   1.407   .     A
C2226  C2228   1.401   .     A
C2226  C2236   1.406   .     A
C2226  O2258   1.385   .     S
C2227  C2229   1.401   .     A
C2228  C2230   1.411   .     A
C2229  O2263   1.386   .     S
C2229  C2231   1.407   .     A
C2230  O2268   1.384   .     S
C2230  C2232   1.414   .     A
C2231  C2237   1.411   .     A
C2231  C2233   1.418   .     A
C2232  C2234   1.417   .     A
C2232  C2238   1.418   .     A
C2233  C2235   1.412   .     A
C2233  C992    1.410   1_556 S
C2234  C2236   1.410   .     A
C2237  O2273   1.382   .     S
C2237  C969    1.390   1_556 S
C2238  O2278   1.384   .     S
Cu2239 O2251   1.966   .     S
Cu2239 Cu2240  2.732   .     S
Cu2239 O2245   1.997   .     S
Cu2239 O2249   1.948   .     S
Cu2239 N2243   2.053   .     S
Cu2239 O2247   1.996   .     S
Cu2240 O2246   1.997   .     S
Cu2240 N2244   2.053   .     S
Cu2240 O2252   1.966   .     S
Cu2240 O2248   1.996   .     S
Cu2240 O2250   1.948   .     S
O2253  C2254   1.409   .     S
C2254  H2257   1.112   .     S
C2254  H2256   1.109   .     S
C2254  H2255   1.109   .     S
O2258  C2259   1.418   .     S
C2259  H2260   1.116   .     S
C2259  H2261   1.095   .     S
C2259  H2262   1.109   .     S
O2263  C2264   1.411   .     S
C2264  H2265   1.110   .     S
C2264  H2267   1.112   .     S
C2264  H2266   1.109   .     S
O2268  C2269   1.412   .     S
C2269  H2271   1.107   .     S
C2269  H2272   1.107   .     S
C2269  H2270   1.116   .     S
O2273  C2274   1.410   .     S
C2274  H2276   1.114   .     S
C2274  H2277   1.113   .     S
C2274  H2275   1.108   .     S
O2278  C2279   1.411   .     S
C2279  H2282   1.112   .     S
C2279  H2280   1.110   .     S
C2279  H2281   1.114   .     S
O2283  C2284   1.413   .     S
C2284  C2287   1.528   .     S
C2284  H2286   1.111   .     S
C2284  H2285   1.107   .     S
C2287  H2289   1.109   .     S
H2288  C2425   1.109   .     S
H2290  C2425   1.105   .     S
O2291  C2292   1.414   .     S
C2292  C2295   1.517   .     S
C2292  H2293   1.112   .     S
C2292  H2294   1.107   .     S
C2295  H2296   1.108   .     S
C2295  H2297   1.108   .     S
C2295  H2298   1.110   .     S
O2299  C2300   1.409   .     S
C2300  C2303   1.514   .     S
C2300  H2302   1.116   .     S
C2300  H2301   1.103   .     S
C2303  H2306   1.100   .     S
C2303  H2305   1.109   .     S
H2304  C1475   1.100   1_565 S
O2307  C2308   1.410   .     S
C2308  H2309   1.111   .     S
C2308  H2310   1.111   .     S
C2308  C2311   1.518   .     S
C2311  H2314   1.103   .     S
C2311  H1484   1.101   1_565 S
C2311  H1485   1.110   1_565 S
O2315  C2316   1.427   .     S
C2316  H2317   1.110   .     S
C2316  C2319   1.516   .     S
H2318  C1488   1.107   1_565 S
C2319  H2321   1.110   .     S
C2319  H2320   1.103   .     S
C2319  H2322   1.110   .     S
O2323  C2324   1.424   .     S
C2324  H2326   1.114   .     S
C2324  C2327   1.530   .     S
C2324  H2325   1.104   .     S
C2327  H2329   1.107   .     S
C2327  H2330   1.110   .     S
C2327  H2328   1.111   .     S
O2331  C2332   1.418   .     S
C2332  C2335   1.519   .     S
C2332  H2334   1.099   .     S
C2332  H2333   1.109   .     S
C2335  H2337   1.111   .     S
C2335  H2336   1.102   .     S
C2335  H2338   1.105   .     S
O2339  C2340   1.413   .     S
C2340  H2341   1.110   .     S
C2340  C2343   1.520   .     S
C2340  H2342   1.107   .     S
C2343  H2346   1.109   .     S
C2343  H2344   1.103   .     S
C2343  H2345   1.111   .     S
C2347  O2386   1.315   .     A
C2347  O2383   1.313   .     A
C2347  C2356   1.480   .     S
C2348  O2385   1.312   .     A
C2348  O2384   1.314   .     A
C2348  C2355   1.477   .     S
C2349  H2379   1.082   .     S
C2349  C2374   1.403   .     A
C2350  H2380   1.083   .     S
C2350  C2373   1.400   .     A
C2350  C1134   1.400   1_556 S
C2351  O2421   1.381   .     S
C2351  C2356   1.410   .     A
C2352  C2355   1.409   .     A
C2352  O2429   1.384   .     S
C2352  C2078   1.404   1_655 S
C2353  O2437   1.380   .     S
C2353  C2355   1.407   .     A
C2353  C2075   1.395   1_655 S
C2354  O2445   1.379   .     S
C2354  C2356   1.410   .     A
C2357  N2382   1.383   .     A
C2357  O2453   1.382   .     S
C2358  O2461   1.381   .     S
C2358  N2381   1.384   .     A
C2358  C1531   1.462   1_565 S
C2359  O2469   1.412   .     S
C2359  N2382   1.385   .     A
C2360  O2477   1.392   .     S
C2360  N2381   1.372   .     A
C2360  C1529   1.439   1_565 S
C2361  O2390   1.317   .     A
C2361  C2366   1.460   .     S
C2361  O2387   1.301   .     A
C2362  C2365   1.442   .     S
C2362  O2389   1.302   .     A
C2362  O2388   1.307   .     A
C2363  O2391   1.388   .     S
C2363  C2373   1.403   .     A
C2363  C2365   1.407   .     A
C2364  C2366   1.401   .     A
C2364  C2374   1.406   .     A
C2364  O2396   1.385   .     S
C2365  C2367   1.401   .     A
C2366  C2368   1.411   .     A
C2367  O2401   1.386   .     S
C2367  C2369   1.407   .     A
C2368  O2406   1.384   .     S
C2368  C2370   1.414   .     A
C2369  C2375   1.411   .     A
C2369  C2371   1.418   .     A
C2370  C2372   1.417   .     A
C2370  C2376   1.418   .     A
C2371  C2373   1.412   .     A
C2371  C1130   1.410   1_556 S
C2372  C2374   1.410   .     A
C2375  O2411   1.382   .     S
C2375  C1107   1.390   1_556 S
C2376  O2416   1.384   .     S
Cu2377 O2389   1.966   .     S
Cu2377 Cu2378  2.732   .     S
Cu2377 O2383   1.997   .     S
Cu2377 O2387   1.948   .     S
Cu2377 N2381   2.053   .     S
Cu2377 O2385   1.996   .     S
Cu2378 O2384   1.997   .     S
Cu2378 N2382   2.053   .     S
Cu2378 O2390   1.966   .     S
Cu2378 O2386   1.996   .     S
Cu2378 O2388   1.948   .     S
O2391  C2392   1.409   .     S
C2392  H2395   1.112   .     S
C2392  H2394   1.109   .     S
C2392  H2393   1.109   .     S
O2396  C2397   1.418   .     S
C2397  H2398   1.116   .     S
C2397  H2399   1.095   .     S
C2397  H2400   1.109   .     S
O2401  C2402   1.411   .     S
C2402  H2403   1.110   .     S
C2402  H2405   1.112   .     S
C2402  H2404   1.109   .     S
O2406  C2407   1.412   .     S
C2407  H2409   1.107   .     S
C2407  H2410   1.107   .     S
C2407  H2408   1.116   .     S
O2411  C2412   1.410   .     S
C2412  H2414   1.114   .     S
C2412  H2415   1.113   .     S
C2412  H2413   1.108   .     S
O2416  C2417   1.411   .     S
C2417  H2420   1.112   .     S
C2417  H2418   1.110   .     S
C2417  H2419   1.114   .     S
O2421  C2422   1.413   .     S
C2422  C2425   1.528   .     S
C2422  H2424   1.111   .     S
C2422  H2423   1.107   .     S
C2425  H2427   1.109   .     S
H2426  C2149   1.109   1_655 S
H2428  C2149   1.105   1_655 S
O2429  C2430   1.414   .     S
C2430  C2433   1.517   .     S
C2430  H2431   1.112   .     S
C2430  H2432   1.107   .     S
C2433  H2434   1.108   .     S
C2433  H2435   1.108   .     S
C2433  H2436   1.110   .     S
O2437  C2438   1.409   .     S
C2438  C2441   1.514   .     S
C2438  H2440   1.116   .     S
C2438  H2439   1.103   .     S
C2441  H2444   1.100   .     S
C2441  H2443   1.109   .     S
H2442  C1613   1.100   1_565 S
O2445  C2446   1.410   .     S
C2446  H2447   1.111   .     S
C2446  H2448   1.111   .     S
C2446  C2449   1.518   .     S
C2449  H2452   1.103   .     S
C2449  H1622   1.101   1_565 S
C2449  H1623   1.110   1_565 S
O2453  C2454   1.427   .     S
C2454  H2455   1.110   .     S
C2454  C2457   1.516   .     S
H2456  C1626   1.107   1_565 S
C2457  H2459   1.110   .     S
C2457  H2458   1.103   .     S
C2457  H2460   1.110   .     S
O2461  C2462   1.424   .     S
C2462  H2464   1.114   .     S
C2462  C2465   1.530   .     S
C2462  H2463   1.104   .     S
C2465  H2467   1.107   .     S
C2465  H2468   1.110   .     S
C2465  H2466   1.111   .     S
O2469  C2470   1.418   .     S
C2470  C2473   1.519   .     S
C2470  H2472   1.099   .     S
C2470  H2471   1.109   .     S
C2473  H2475   1.111   .     S
C2473  H2474   1.102   .     S
C2473  H2476   1.105   .     S
O2477  C2478   1.413   .     S
C2478  H2479   1.110   .     S
C2478  C2481   1.520   .     S
C2478  H2480   1.107   .     S
C2481  H2484   1.109   .     S
C2481  H2482   1.103   .     S
C2481  H2483   1.111   .     S
