data_str_m2_o1_o16_pcu_sym.242
_audit_creation_date              2020-01-03
_audit_creation_method            'Materials Studio'
_symmetry_space_group_name_H-M    'P1'
_symmetry_Int_Tables_number       1
_symmetry_cell_setting            triclinic
loop_
_symmetry_equiv_pos_as_xyz
  x,y,z
_cell_length_a                    28.8132
_cell_length_b                    32.5805
_cell_length_c                    26.9035
_cell_angle_alpha                 94.5505
_cell_angle_beta                  73.4911
_cell_angle_gamma                 91.1727
loop_
_atom_site_label
_atom_site_type_symbol
_atom_site_fract_x
_atom_site_fract_y
_atom_site_fract_z
_atom_site_U_iso_or_equiv
_atom_site_adp_type
_atom_site_occupancy
O1     O     0.12708   0.22678   0.25000   0.00000  Uiso   1.00
O2     O     0.20627   0.22679   0.25000   0.00000  Uiso   1.00
C3     C     0.16676   0.24600   0.25192   0.00000  Uiso   1.00
O4     O     0.10775   0.16665   0.32549   0.00000  Uiso   1.00
O5     O     0.18694   0.16666   0.32549   0.00000  Uiso   1.00
C6     C     0.14067   0.16769   0.34981   0.00000  Uiso   1.00
Cu7    Cu    0.11978   0.16666   0.25000   0.00000  Uiso   1.00
Cu8    Cu    0.21355   0.16667   0.25000   0.00000  Uiso   1.00
O9     O     0.12706   0.10654   0.24999   0.00000  Uiso   1.00
O10    O     0.20625   0.10655   0.24999   0.00000  Uiso   1.00
O11    O     0.14640   0.16667   0.17451   0.00000  Uiso   1.00
O12    O     0.22559   0.16668   0.17451   0.00000  Uiso   1.00
C13    C     0.16716   0.08739   0.24660   0.00000  Uiso   1.00
C14    C     0.19257   0.16617   0.15000   0.00000  Uiso   1.00
C15    C     0.24517   0.11517   0.01663   0.00000  Uiso   1.00
H16    H     0.27305   0.09268   0.49764   0.00000  Uiso   1.00
C17    C     0.20703   0.15971   0.09272   0.00000  Uiso   1.00
C18    C     0.08673   0.20096   0.43024   0.00000  Uiso   1.00
C19    C     0.07413   0.21014   0.48368   0.00000  Uiso   1.00
C20    C     0.10104   0.19479   0.01397   0.00000  Uiso   1.00
C21    C     0.14208   0.16911   0.49034   0.00000  Uiso   1.00
C22    C     0.14891   0.15345   0.43780   0.00000  Uiso   1.00
C23    C     0.17613   0.15772   0.01667   0.00000  Uiso   1.00
C24    C     0.21007   0.12578   0.49296   0.00000  Uiso   1.00
C25    C     0.20867   0.10418   0.44628   0.00000  Uiso   1.00
C26    C     0.17919   0.11867   0.41765   0.00000  Uiso   1.00
C27    C     0.17981   0.17807   0.06427   0.00000  Uiso   1.00
C28    C     0.24315   0.13089   0.06652   0.00000  Uiso   1.00
C29    C     0.12449   0.17277   0.40690   0.00000  Uiso   1.00
H30    H     0.04309   0.22976   0.00206   0.00000  Uiso   1.00
C31    C     0.20987   0.31097   0.22379   0.00000  Uiso   1.00
C32    C     0.20701   0.01913   0.21535   0.00000  Uiso   1.00
C33    C     0.16683   0.04264   0.24519   0.00000  Uiso   1.00
C34    C     0.12726   0.02349   0.27783   0.00000  Uiso   1.00
H35    H     0.09650   0.04159   0.30127   0.00000  Uiso   1.00
C36    C     0.12689   0.31456   0.28153   0.00000  Uiso   1.00
C37    C     0.16812   0.29097   0.25328   0.00000  Uiso   1.00
C38    C     0.30022   0.19008   0.28745   0.00000  Uiso   1.00
C39    C     0.01673   0.19136   0.28512   0.00000  Uiso   1.00
H40    H     0.02894   0.21055   0.31365   0.00000  Uiso   1.00
N41    N     0.04931   0.16666   0.24998   0.00000  Uiso   1.00
C42    C     0.03264   0.14085   0.21543   0.00000  Uiso   1.00
C43    C     0.31715   0.14269   0.21403   0.00000  Uiso   1.00
H44    H     0.30535   0.12354   0.18540   0.00000  Uiso   1.00
N45    N     0.28402   0.16669   0.24999   0.00000  Uiso   1.00
O46    O     0.27736   0.11767   0.08813   0.00000  Uiso   1.00
H47    H     0.26001   0.10964   0.12312   0.00000  Uiso   1.00
C48    C     0.23810   0.03174   0.16507   0.00000  Uiso   1.00
C49    C     0.22364   0.01943   0.12049   0.00000  Uiso   1.00
C50    C     0.25633   0.01920   0.07098   0.00000  Uiso   1.00
C51    C     0.30440   0.03020   0.06557   0.00000  Uiso   1.00
C52    C     0.31927   0.04209   0.10966   0.00000  Uiso   1.00
C53    C     0.28642   0.04291   0.15933   0.00000  Uiso   1.00
H54    H     0.18816   0.00648   0.12463   0.00000  Uiso   1.00
H55    H     0.24479   0.00916   0.03705   0.00000  Uiso   1.00
H56    H     0.33009   0.02963   0.02733   0.00000  Uiso   1.00
H57    H     0.02286   0.05071   0.10507   0.00000  Uiso   1.00
H58    H     0.29899   0.05020   0.19324   0.00000  Uiso   1.00
O59    O     0.08660   0.29808   0.31504   0.00000  Uiso   1.00
H60    H     0.09623   0.27281   0.32769   0.00000  Uiso   1.00
C61    C     0.26776   0.21004   0.33604   0.00000  Uiso   1.00
C62    C     0.26774   0.19496   0.38367   0.00000  Uiso   1.00
C63    C     0.24565   0.21732   0.43072   0.00000  Uiso   1.00
C64    C     0.22119   0.25390   0.43116   0.00000  Uiso   1.00
C65    C     0.22100   0.26926   0.38428   0.00000  Uiso   1.00
C66    C     0.24549   0.24811   0.33713   0.00000  Uiso   1.00
H67    H     0.28684   0.16678   0.38424   0.00000  Uiso   1.00
H68    H     0.24822   0.20662   0.46683   0.00000  Uiso   1.00
H69    H     0.20354   0.27086   0.46770   0.00000  Uiso   1.00
H70    H     0.20353   0.29838   0.38439   0.00000  Uiso   1.00
H71    H     0.24864   0.26255   0.30212   0.00000  Uiso   1.00
C72    C     0.06299   0.10790   0.18176   0.00000  Uiso   1.00
C73    C     0.08630   0.11372   0.12956   0.00000  Uiso   1.00
C74    C     0.11071   0.08118   0.09597   0.00000  Uiso   1.00
C75    C     0.11057   0.04215   0.11394   0.00000  Uiso   1.00
C76    C     0.08673   0.03576   0.16575   0.00000  Uiso   1.00
C77    C     0.06236   0.06836   0.19940   0.00000  Uiso   1.00
H78    H     0.08489   0.14328   0.11499   0.00000  Uiso   1.00
H79    H     0.12799   0.08569   0.05554   0.00000  Uiso   1.00
H80    H     0.12766   0.01664   0.08722   0.00000  Uiso   1.00
H81    H     0.08637   0.00541   0.17950   0.00000  Uiso   1.00
H82    H     0.04267   0.06278   0.23901   0.00000  Uiso   1.00
O83    O     0.23630   0.06882   0.42972   0.00000  Uiso   1.00
H84    H     0.21910   0.04920   0.41114   0.00000  Uiso   1.00
O85    O     0.16285   0.21793   0.07860   0.00000  Uiso   1.00
H86    H     0.17294   0.22932   0.10914   0.00000  Uiso   1.00
O87    O     0.06248   0.21922   0.40013   0.00000  Uiso   1.00
H88    H     0.03716   0.23809   0.42257   0.00000  Uiso   1.00
O89    O     0.08408   0.20165   0.06703   0.00000  Uiso   1.00
H90    H     0.06339   0.22655   0.07509   0.00000  Uiso   1.00
O91    O     0.17719   0.09768   0.37163   0.00000  Uiso   1.00
H92    H     0.20993   0.08694   0.35285   0.00000  Uiso   1.00
C93    C     0.25770   0.29001   0.20271   0.00000  Uiso   1.00
C94    C     0.26594   0.25905   0.16184   0.00000  Uiso   1.00
C95    C     0.30865   0.23595   0.14839   0.00000  Uiso   1.00
C96    C     0.01077   0.24492   0.17404   0.00000  Uiso   1.00
C97    C     0.00447   0.27795   0.21158   0.00000  Uiso   1.00
C98    C     0.29498   0.30075   0.22550   0.00000  Uiso   1.00
H99    H     0.23830   0.25143   0.14264   0.00000  Uiso   1.00
H100   H     0.31368   0.21049   0.11895   0.00000  Uiso   1.00
H101   H     0.04308   0.22622   0.16525   0.00000  Uiso   1.00
H102   H     0.03210   0.28509   0.23103   0.00000  Uiso   1.00
H103   H     0.28970   0.32533   0.25617   0.00000  Uiso   1.00
O104   O     0.46042   0.22678   0.25000   0.00000  Uiso   1.00
O105   O     0.53961   0.22679   0.25000   0.00000  Uiso   1.00
C106   C     0.50010   0.24600   0.25192   0.00000  Uiso   1.00
O107   O     0.44108   0.16665   0.32549   0.00000  Uiso   1.00
O108   O     0.52027   0.16666   0.32549   0.00000  Uiso   1.00
C109   C     0.47401   0.16769   0.34981   0.00000  Uiso   1.00
Cu110  Cu    0.45311   0.16666   0.25000   0.00000  Uiso   1.00
Cu111  Cu    0.54689   0.16667   0.25000   0.00000  Uiso   1.00
O112   O     0.46039   0.10654   0.24999   0.00000  Uiso   1.00
O113   O     0.53958   0.10655   0.24999   0.00000  Uiso   1.00
O114   O     0.47973   0.16667   0.17451   0.00000  Uiso   1.00
O115   O     0.55892   0.16668   0.17451   0.00000  Uiso   1.00
C116   C     0.50050   0.08739   0.24660   0.00000  Uiso   1.00
C117   C     0.52590   0.16617   0.15000   0.00000  Uiso   1.00
C118   C     0.57851   0.11517   0.01663   0.00000  Uiso   1.00
H119   H     0.60638   0.09268   0.49764   0.00000  Uiso   1.00
C120   C     0.54036   0.15971   0.09272   0.00000  Uiso   1.00
C121   C     0.42006   0.20096   0.43024   0.00000  Uiso   1.00
C122   C     0.40746   0.21014   0.48368   0.00000  Uiso   1.00
C123   C     0.43437   0.19479   0.01397   0.00000  Uiso   1.00
C124   C     0.47541   0.16911   0.49034   0.00000  Uiso   1.00
C125   C     0.48225   0.15345   0.43780   0.00000  Uiso   1.00
C126   C     0.50946   0.15772   0.01667   0.00000  Uiso   1.00
C127   C     0.54341   0.12578   0.49296   0.00000  Uiso   1.00
C128   C     0.54201   0.10418   0.44628   0.00000  Uiso   1.00
C129   C     0.51252   0.11867   0.41765   0.00000  Uiso   1.00
C130   C     0.51314   0.17807   0.06427   0.00000  Uiso   1.00
C131   C     0.57648   0.13089   0.06652   0.00000  Uiso   1.00
C132   C     0.45782   0.17277   0.40690   0.00000  Uiso   1.00
H133   H     0.37643   0.22976   0.00206   0.00000  Uiso   1.00
C134   C     0.54321   0.31097   0.22379   0.00000  Uiso   1.00
C135   C     0.54035   0.01913   0.21535   0.00000  Uiso   1.00
C136   C     0.50016   0.04264   0.24519   0.00000  Uiso   1.00
C137   C     0.46059   0.02349   0.27783   0.00000  Uiso   1.00
H138   H     0.42984   0.04159   0.30127   0.00000  Uiso   1.00
C139   C     0.46023   0.31456   0.28153   0.00000  Uiso   1.00
C140   C     0.50145   0.29097   0.25328   0.00000  Uiso   1.00
C141   C     0.63355   0.19008   0.28745   0.00000  Uiso   1.00
C142   C     0.35006   0.19136   0.28512   0.00000  Uiso   1.00
H143   H     0.36227   0.21055   0.31365   0.00000  Uiso   1.00
N144   N     0.38265   0.16666   0.24998   0.00000  Uiso   1.00
C145   C     0.36598   0.14085   0.21543   0.00000  Uiso   1.00
C146   C     0.65048   0.14269   0.21403   0.00000  Uiso   1.00
H147   H     0.63868   0.12354   0.18540   0.00000  Uiso   1.00
N148   N     0.61735   0.16669   0.24999   0.00000  Uiso   1.00
O149   O     0.61069   0.11767   0.08813   0.00000  Uiso   1.00
H150   H     0.59334   0.10964   0.12312   0.00000  Uiso   1.00
C151   C     0.57143   0.03174   0.16507   0.00000  Uiso   1.00
C152   C     0.55697   0.01943   0.12049   0.00000  Uiso   1.00
C153   C     0.58967   0.01920   0.07098   0.00000  Uiso   1.00
C154   C     0.63774   0.03020   0.06557   0.00000  Uiso   1.00
C155   C     0.65261   0.04209   0.10966   0.00000  Uiso   1.00
C156   C     0.61976   0.04291   0.15933   0.00000  Uiso   1.00
H157   H     0.52149   0.00648   0.12463   0.00000  Uiso   1.00
H158   H     0.57812   0.00916   0.03705   0.00000  Uiso   1.00
H159   H     0.66342   0.02963   0.02733   0.00000  Uiso   1.00
H160   H     0.35620   0.05071   0.10507   0.00000  Uiso   1.00
H161   H     0.63233   0.05020   0.19324   0.00000  Uiso   1.00
O162   O     0.41993   0.29808   0.31504   0.00000  Uiso   1.00
H163   H     0.42956   0.27281   0.32769   0.00000  Uiso   1.00
C164   C     0.60109   0.21004   0.33604   0.00000  Uiso   1.00
C165   C     0.60107   0.19496   0.38367   0.00000  Uiso   1.00
C166   C     0.57898   0.21732   0.43072   0.00000  Uiso   1.00
C167   C     0.55452   0.25390   0.43116   0.00000  Uiso   1.00
C168   C     0.55434   0.26926   0.38428   0.00000  Uiso   1.00
C169   C     0.57883   0.24811   0.33713   0.00000  Uiso   1.00
H170   H     0.62018   0.16678   0.38424   0.00000  Uiso   1.00
H171   H     0.58155   0.20662   0.46683   0.00000  Uiso   1.00
H172   H     0.53687   0.27086   0.46770   0.00000  Uiso   1.00
H173   H     0.53686   0.29838   0.38439   0.00000  Uiso   1.00
H174   H     0.58197   0.26255   0.30212   0.00000  Uiso   1.00
C175   C     0.39633   0.10790   0.18176   0.00000  Uiso   1.00
C176   C     0.41963   0.11372   0.12956   0.00000  Uiso   1.00
C177   C     0.44404   0.08118   0.09597   0.00000  Uiso   1.00
C178   C     0.44390   0.04215   0.11394   0.00000  Uiso   1.00
C179   C     0.42007   0.03576   0.16575   0.00000  Uiso   1.00
C180   C     0.39569   0.06836   0.19940   0.00000  Uiso   1.00
H181   H     0.41822   0.14328   0.11499   0.00000  Uiso   1.00
H182   H     0.46132   0.08569   0.05554   0.00000  Uiso   1.00
H183   H     0.46099   0.01664   0.08722   0.00000  Uiso   1.00
H184   H     0.41970   0.00541   0.17950   0.00000  Uiso   1.00
H185   H     0.37600   0.06278   0.23901   0.00000  Uiso   1.00
O186   O     0.56963   0.06882   0.42972   0.00000  Uiso   1.00
H187   H     0.55244   0.04920   0.41114   0.00000  Uiso   1.00
O188   O     0.49618   0.21793   0.07860   0.00000  Uiso   1.00
H189   H     0.50628   0.22932   0.10914   0.00000  Uiso   1.00
O190   O     0.39581   0.21922   0.40013   0.00000  Uiso   1.00
H191   H     0.37049   0.23809   0.42257   0.00000  Uiso   1.00
O192   O     0.41742   0.20165   0.06703   0.00000  Uiso   1.00
H193   H     0.39673   0.22655   0.07509   0.00000  Uiso   1.00
O194   O     0.51052   0.09768   0.37163   0.00000  Uiso   1.00
H195   H     0.54326   0.08694   0.35285   0.00000  Uiso   1.00
C196   C     0.59104   0.29001   0.20271   0.00000  Uiso   1.00
C197   C     0.59928   0.25905   0.16184   0.00000  Uiso   1.00
C198   C     0.64199   0.23595   0.14839   0.00000  Uiso   1.00
C199   C     0.34410   0.24492   0.17404   0.00000  Uiso   1.00
C200   C     0.33780   0.27795   0.21158   0.00000  Uiso   1.00
C201   C     0.62832   0.30075   0.22550   0.00000  Uiso   1.00
H202   H     0.57163   0.25143   0.14264   0.00000  Uiso   1.00
H203   H     0.64702   0.21049   0.11895   0.00000  Uiso   1.00
H204   H     0.37641   0.22622   0.16525   0.00000  Uiso   1.00
H205   H     0.36544   0.28509   0.23103   0.00000  Uiso   1.00
H206   H     0.62303   0.32533   0.25617   0.00000  Uiso   1.00
O207   O     0.79375   0.22678   0.25000   0.00000  Uiso   1.00
O208   O     0.87294   0.22679   0.25000   0.00000  Uiso   1.00
C209   C     0.83343   0.24600   0.25192   0.00000  Uiso   1.00
O210   O     0.77441   0.16665   0.32549   0.00000  Uiso   1.00
O211   O     0.85360   0.16666   0.32549   0.00000  Uiso   1.00
C212   C     0.80734   0.16769   0.34981   0.00000  Uiso   1.00
Cu213  Cu    0.78645   0.16666   0.25000   0.00000  Uiso   1.00
Cu214  Cu    0.88022   0.16667   0.25000   0.00000  Uiso   1.00
O215   O     0.79373   0.10654   0.24999   0.00000  Uiso   1.00
O216   O     0.87292   0.10655   0.24999   0.00000  Uiso   1.00
O217   O     0.81306   0.16667   0.17451   0.00000  Uiso   1.00
O218   O     0.89225   0.16668   0.17451   0.00000  Uiso   1.00
C219   C     0.83383   0.08739   0.24660   0.00000  Uiso   1.00
C220   C     0.85924   0.16617   0.15000   0.00000  Uiso   1.00
C221   C     0.91184   0.11517   0.01663   0.00000  Uiso   1.00
H222   H     0.93972   0.09268   0.49764   0.00000  Uiso   1.00
C223   C     0.87369   0.15971   0.09272   0.00000  Uiso   1.00
C224   C     0.75339   0.20096   0.43024   0.00000  Uiso   1.00
C225   C     0.74080   0.21014   0.48368   0.00000  Uiso   1.00
C226   C     0.76770   0.19479   0.01397   0.00000  Uiso   1.00
C227   C     0.80874   0.16911   0.49034   0.00000  Uiso   1.00
C228   C     0.81558   0.15345   0.43780   0.00000  Uiso   1.00
C229   C     0.84280   0.15772   0.01667   0.00000  Uiso   1.00
C230   C     0.87674   0.12578   0.49296   0.00000  Uiso   1.00
C231   C     0.87534   0.10418   0.44628   0.00000  Uiso   1.00
C232   C     0.84585   0.11867   0.41765   0.00000  Uiso   1.00
C233   C     0.84648   0.17807   0.06427   0.00000  Uiso   1.00
C234   C     0.90981   0.13089   0.06652   0.00000  Uiso   1.00
C235   C     0.79115   0.17277   0.40690   0.00000  Uiso   1.00
H236   H     0.70976   0.22976   0.00206   0.00000  Uiso   1.00
C237   C     0.87654   0.31097   0.22379   0.00000  Uiso   1.00
C238   C     0.87368   0.01913   0.21535   0.00000  Uiso   1.00
C239   C     0.83350   0.04264   0.24519   0.00000  Uiso   1.00
C240   C     0.79392   0.02349   0.27783   0.00000  Uiso   1.00
H241   H     0.76317   0.04159   0.30127   0.00000  Uiso   1.00
C242   C     0.79356   0.31456   0.28153   0.00000  Uiso   1.00
C243   C     0.83479   0.29097   0.25328   0.00000  Uiso   1.00
C244   C     0.96689   0.19008   0.28745   0.00000  Uiso   1.00
C245   C     0.68340   0.19136   0.28512   0.00000  Uiso   1.00
H246   H     0.69561   0.21055   0.31365   0.00000  Uiso   1.00
N247   N     0.71598   0.16666   0.24998   0.00000  Uiso   1.00
C248   C     0.69931   0.14085   0.21543   0.00000  Uiso   1.00
C249   C     0.98382   0.14269   0.21403   0.00000  Uiso   1.00
H250   H     0.97202   0.12354   0.18540   0.00000  Uiso   1.00
N251   N     0.95069   0.16669   0.24999   0.00000  Uiso   1.00
O252   O     0.94403   0.11767   0.08813   0.00000  Uiso   1.00
H253   H     0.92668   0.10964   0.12312   0.00000  Uiso   1.00
C254   C     0.90476   0.03174   0.16507   0.00000  Uiso   1.00
C255   C     0.89031   0.01943   0.12049   0.00000  Uiso   1.00
C256   C     0.92300   0.01920   0.07098   0.00000  Uiso   1.00
C257   C     0.97107   0.03020   0.06557   0.00000  Uiso   1.00
C258   C     0.98594   0.04209   0.10966   0.00000  Uiso   1.00
C259   C     0.95309   0.04291   0.15933   0.00000  Uiso   1.00
H260   H     0.85482   0.00648   0.12463   0.00000  Uiso   1.00
H261   H     0.91145   0.00916   0.03705   0.00000  Uiso   1.00
H262   H     0.99675   0.02963   0.02733   0.00000  Uiso   1.00
H263   H     0.68953   0.05071   0.10507   0.00000  Uiso   1.00
H264   H     0.96566   0.05020   0.19324   0.00000  Uiso   1.00
O265   O     0.75327   0.29808   0.31504   0.00000  Uiso   1.00
H266   H     0.76289   0.27281   0.32769   0.00000  Uiso   1.00
C267   C     0.93442   0.21004   0.33604   0.00000  Uiso   1.00
C268   C     0.93441   0.19496   0.38367   0.00000  Uiso   1.00
C269   C     0.91232   0.21732   0.43072   0.00000  Uiso   1.00
C270   C     0.88785   0.25390   0.43116   0.00000  Uiso   1.00
C271   C     0.88767   0.26926   0.38428   0.00000  Uiso   1.00
C272   C     0.91216   0.24811   0.33713   0.00000  Uiso   1.00
H273   H     0.95351   0.16678   0.38424   0.00000  Uiso   1.00
H274   H     0.91489   0.20662   0.46683   0.00000  Uiso   1.00
H275   H     0.87020   0.27086   0.46770   0.00000  Uiso   1.00
H276   H     0.87020   0.29838   0.38439   0.00000  Uiso   1.00
H277   H     0.91531   0.26255   0.30212   0.00000  Uiso   1.00
C278   C     0.72966   0.10790   0.18176   0.00000  Uiso   1.00
C279   C     0.75296   0.11372   0.12956   0.00000  Uiso   1.00
C280   C     0.77737   0.08118   0.09597   0.00000  Uiso   1.00
C281   C     0.77724   0.04215   0.11394   0.00000  Uiso   1.00
C282   C     0.75340   0.03576   0.16575   0.00000  Uiso   1.00
C283   C     0.72902   0.06836   0.19940   0.00000  Uiso   1.00
H284   H     0.75155   0.14328   0.11499   0.00000  Uiso   1.00
H285   H     0.79465   0.08569   0.05554   0.00000  Uiso   1.00
H286   H     0.79433   0.01664   0.08722   0.00000  Uiso   1.00
H287   H     0.75304   0.00541   0.17950   0.00000  Uiso   1.00
H288   H     0.70933   0.06278   0.23901   0.00000  Uiso   1.00
O289   O     0.90297   0.06882   0.42972   0.00000  Uiso   1.00
H290   H     0.88577   0.04920   0.41114   0.00000  Uiso   1.00
O291   O     0.82951   0.21793   0.07860   0.00000  Uiso   1.00
H292   H     0.83961   0.22932   0.10914   0.00000  Uiso   1.00
O293   O     0.72914   0.21922   0.40013   0.00000  Uiso   1.00
H294   H     0.70383   0.23809   0.42257   0.00000  Uiso   1.00
O295   O     0.75075   0.20165   0.06703   0.00000  Uiso   1.00
H296   H     0.73006   0.22655   0.07509   0.00000  Uiso   1.00
O297   O     0.84385   0.09768   0.37163   0.00000  Uiso   1.00
H298   H     0.87660   0.08694   0.35285   0.00000  Uiso   1.00
C299   C     0.92437   0.29001   0.20271   0.00000  Uiso   1.00
C300   C     0.93261   0.25905   0.16184   0.00000  Uiso   1.00
C301   C     0.97532   0.23595   0.14839   0.00000  Uiso   1.00
C302   C     0.67743   0.24492   0.17404   0.00000  Uiso   1.00
C303   C     0.67113   0.27795   0.21158   0.00000  Uiso   1.00
C304   C     0.96165   0.30075   0.22550   0.00000  Uiso   1.00
H305   H     0.90497   0.25143   0.14264   0.00000  Uiso   1.00
H306   H     0.98035   0.21049   0.11895   0.00000  Uiso   1.00
H307   H     0.70975   0.22622   0.16525   0.00000  Uiso   1.00
H308   H     0.69877   0.28509   0.23103   0.00000  Uiso   1.00
H309   H     0.95637   0.32533   0.25617   0.00000  Uiso   1.00
O310   O     0.12708   0.56011   0.25000   0.00000  Uiso   1.00
O311   O     0.20627   0.56012   0.25000   0.00000  Uiso   1.00
C312   C     0.16676   0.57933   0.25192   0.00000  Uiso   1.00
O313   O     0.10775   0.49998   0.32549   0.00000  Uiso   1.00
O314   O     0.18694   0.49999   0.32549   0.00000  Uiso   1.00
C315   C     0.14067   0.50102   0.34981   0.00000  Uiso   1.00
Cu316  Cu    0.11978   0.49999   0.25000   0.00000  Uiso   1.00
Cu317  Cu    0.21355   0.50001   0.25000   0.00000  Uiso   1.00
O318   O     0.12706   0.43988   0.24999   0.00000  Uiso   1.00
O319   O     0.20625   0.43989   0.24999   0.00000  Uiso   1.00
O320   O     0.14640   0.50001   0.17451   0.00000  Uiso   1.00
O321   O     0.22559   0.50002   0.17451   0.00000  Uiso   1.00
C322   C     0.16716   0.42072   0.24660   0.00000  Uiso   1.00
C323   C     0.19257   0.49950   0.15000   0.00000  Uiso   1.00
C324   C     0.24517   0.44850   0.01663   0.00000  Uiso   1.00
H325   H     0.27305   0.42601   0.49764   0.00000  Uiso   1.00
C326   C     0.20703   0.49304   0.09272   0.00000  Uiso   1.00
C327   C     0.08673   0.53429   0.43024   0.00000  Uiso   1.00
C328   C     0.07413   0.54347   0.48368   0.00000  Uiso   1.00
C329   C     0.10104   0.52812   0.01397   0.00000  Uiso   1.00
C330   C     0.14208   0.50244   0.49034   0.00000  Uiso   1.00
C331   C     0.14891   0.48679   0.43780   0.00000  Uiso   1.00
C332   C     0.17613   0.49105   0.01667   0.00000  Uiso   1.00
C333   C     0.21007   0.45911   0.49296   0.00000  Uiso   1.00
C334   C     0.20867   0.43752   0.44628   0.00000  Uiso   1.00
C335   C     0.17919   0.45201   0.41765   0.00000  Uiso   1.00
C336   C     0.17981   0.51141   0.06427   0.00000  Uiso   1.00
C337   C     0.24315   0.46423   0.06652   0.00000  Uiso   1.00
C338   C     0.12449   0.50610   0.40690   0.00000  Uiso   1.00
H339   H     0.04309   0.56310   0.00206   0.00000  Uiso   1.00
C340   C     0.20987   0.64430   0.22379   0.00000  Uiso   1.00
C341   C     0.20701   0.35247   0.21535   0.00000  Uiso   1.00
C342   C     0.16683   0.37597   0.24519   0.00000  Uiso   1.00
C343   C     0.12726   0.35682   0.27783   0.00000  Uiso   1.00
H344   H     0.09650   0.37492   0.30127   0.00000  Uiso   1.00
C345   C     0.12689   0.64789   0.28153   0.00000  Uiso   1.00
C346   C     0.16812   0.62431   0.25328   0.00000  Uiso   1.00
C347   C     0.30022   0.52341   0.28745   0.00000  Uiso   1.00
C348   C     0.01673   0.52469   0.28512   0.00000  Uiso   1.00
H349   H     0.02894   0.54389   0.31365   0.00000  Uiso   1.00
N350   N     0.04931   0.49999   0.24998   0.00000  Uiso   1.00
C351   C     0.03264   0.47418   0.21543   0.00000  Uiso   1.00
C352   C     0.31715   0.47602   0.21403   0.00000  Uiso   1.00
H353   H     0.30535   0.45687   0.18540   0.00000  Uiso   1.00
N354   N     0.28402   0.50002   0.24999   0.00000  Uiso   1.00
O355   O     0.27736   0.45101   0.08813   0.00000  Uiso   1.00
H356   H     0.26001   0.44297   0.12312   0.00000  Uiso   1.00
C357   C     0.23810   0.36507   0.16507   0.00000  Uiso   1.00
C358   C     0.22364   0.35276   0.12049   0.00000  Uiso   1.00
C359   C     0.25633   0.35253   0.07098   0.00000  Uiso   1.00
C360   C     0.30440   0.36354   0.06557   0.00000  Uiso   1.00
C361   C     0.31927   0.37542   0.10966   0.00000  Uiso   1.00
C362   C     0.28642   0.37624   0.15933   0.00000  Uiso   1.00
H363   H     0.18816   0.33982   0.12463   0.00000  Uiso   1.00
H364   H     0.24479   0.34250   0.03705   0.00000  Uiso   1.00
H365   H     0.33009   0.36296   0.02733   0.00000  Uiso   1.00
H366   H     0.02286   0.38404   0.10507   0.00000  Uiso   1.00
H367   H     0.29899   0.38353   0.19324   0.00000  Uiso   1.00
O368   O     0.08660   0.63141   0.31504   0.00000  Uiso   1.00
H369   H     0.09623   0.60615   0.32769   0.00000  Uiso   1.00
C370   C     0.26776   0.54337   0.33604   0.00000  Uiso   1.00
C371   C     0.26774   0.52829   0.38367   0.00000  Uiso   1.00
C372   C     0.24565   0.55065   0.43072   0.00000  Uiso   1.00
C373   C     0.22119   0.58723   0.43116   0.00000  Uiso   1.00
C374   C     0.22100   0.60259   0.38428   0.00000  Uiso   1.00
C375   C     0.24549   0.58144   0.33713   0.00000  Uiso   1.00
H376   H     0.28684   0.50011   0.38424   0.00000  Uiso   1.00
H377   H     0.24822   0.53995   0.46683   0.00000  Uiso   1.00
H378   H     0.20354   0.60419   0.46770   0.00000  Uiso   1.00
H379   H     0.20353   0.63172   0.38439   0.00000  Uiso   1.00
H380   H     0.24864   0.59588   0.30212   0.00000  Uiso   1.00
C381   C     0.06299   0.44123   0.18176   0.00000  Uiso   1.00
C382   C     0.08630   0.44705   0.12956   0.00000  Uiso   1.00
C383   C     0.11071   0.41451   0.09597   0.00000  Uiso   1.00
C384   C     0.11057   0.37548   0.11394   0.00000  Uiso   1.00
C385   C     0.08673   0.36909   0.16575   0.00000  Uiso   1.00
C386   C     0.06236   0.40170   0.19940   0.00000  Uiso   1.00
H387   H     0.08489   0.47662   0.11499   0.00000  Uiso   1.00
H388   H     0.12799   0.41902   0.05554   0.00000  Uiso   1.00
H389   H     0.12766   0.34997   0.08722   0.00000  Uiso   1.00
H390   H     0.08637   0.33874   0.17950   0.00000  Uiso   1.00
H391   H     0.04267   0.39611   0.23901   0.00000  Uiso   1.00
O392   O     0.23630   0.40215   0.42972   0.00000  Uiso   1.00
H393   H     0.21910   0.38254   0.41114   0.00000  Uiso   1.00
O394   O     0.16285   0.55126   0.07860   0.00000  Uiso   1.00
H395   H     0.17294   0.56266   0.10914   0.00000  Uiso   1.00
O396   O     0.06248   0.55255   0.40013   0.00000  Uiso   1.00
H397   H     0.03716   0.57143   0.42257   0.00000  Uiso   1.00
O398   O     0.08408   0.53498   0.06703   0.00000  Uiso   1.00
H399   H     0.06339   0.55989   0.07509   0.00000  Uiso   1.00
O400   O     0.17719   0.43101   0.37163   0.00000  Uiso   1.00
H401   H     0.20993   0.42028   0.35285   0.00000  Uiso   1.00
C402   C     0.25770   0.62335   0.20271   0.00000  Uiso   1.00
C403   C     0.26594   0.59239   0.16184   0.00000  Uiso   1.00
C404   C     0.30865   0.56928   0.14839   0.00000  Uiso   1.00
C405   C     0.01077   0.57825   0.17404   0.00000  Uiso   1.00
C406   C     0.00447   0.61129   0.21158   0.00000  Uiso   1.00
C407   C     0.29498   0.63408   0.22550   0.00000  Uiso   1.00
H408   H     0.23830   0.58476   0.14264   0.00000  Uiso   1.00
H409   H     0.31368   0.54383   0.11895   0.00000  Uiso   1.00
H410   H     0.04308   0.55955   0.16525   0.00000  Uiso   1.00
H411   H     0.03210   0.61842   0.23103   0.00000  Uiso   1.00
H412   H     0.28970   0.65866   0.25617   0.00000  Uiso   1.00
O413   O     0.46042   0.56011   0.25000   0.00000  Uiso   1.00
O414   O     0.53961   0.56012   0.25000   0.00000  Uiso   1.00
C415   C     0.50010   0.57933   0.25192   0.00000  Uiso   1.00
O416   O     0.44108   0.49998   0.32549   0.00000  Uiso   1.00
O417   O     0.52027   0.49999   0.32549   0.00000  Uiso   1.00
C418   C     0.47401   0.50102   0.34981   0.00000  Uiso   1.00
Cu419  Cu    0.45311   0.49999   0.25000   0.00000  Uiso   1.00
Cu420  Cu    0.54689   0.50001   0.25000   0.00000  Uiso   1.00
O421   O     0.46039   0.43988   0.24999   0.00000  Uiso   1.00
O422   O     0.53958   0.43989   0.24999   0.00000  Uiso   1.00
O423   O     0.47973   0.50001   0.17451   0.00000  Uiso   1.00
O424   O     0.55892   0.50002   0.17451   0.00000  Uiso   1.00
C425   C     0.50050   0.42072   0.24660   0.00000  Uiso   1.00
C426   C     0.52590   0.49950   0.15000   0.00000  Uiso   1.00
C427   C     0.57851   0.44850   0.01663   0.00000  Uiso   1.00
H428   H     0.60638   0.42601   0.49764   0.00000  Uiso   1.00
C429   C     0.54036   0.49304   0.09272   0.00000  Uiso   1.00
C430   C     0.42006   0.53429   0.43024   0.00000  Uiso   1.00
C431   C     0.40746   0.54347   0.48368   0.00000  Uiso   1.00
C432   C     0.43437   0.52812   0.01397   0.00000  Uiso   1.00
C433   C     0.47541   0.50244   0.49034   0.00000  Uiso   1.00
C434   C     0.48225   0.48679   0.43780   0.00000  Uiso   1.00
C435   C     0.50946   0.49105   0.01667   0.00000  Uiso   1.00
C436   C     0.54341   0.45911   0.49296   0.00000  Uiso   1.00
C437   C     0.54201   0.43752   0.44628   0.00000  Uiso   1.00
C438   C     0.51252   0.45201   0.41765   0.00000  Uiso   1.00
C439   C     0.51314   0.51141   0.06427   0.00000  Uiso   1.00
C440   C     0.57648   0.46423   0.06652   0.00000  Uiso   1.00
C441   C     0.45782   0.50610   0.40690   0.00000  Uiso   1.00
H442   H     0.37643   0.56310   0.00206   0.00000  Uiso   1.00
C443   C     0.54321   0.64430   0.22379   0.00000  Uiso   1.00
C444   C     0.54035   0.35247   0.21535   0.00000  Uiso   1.00
C445   C     0.50016   0.37597   0.24519   0.00000  Uiso   1.00
C446   C     0.46059   0.35682   0.27783   0.00000  Uiso   1.00
H447   H     0.42984   0.37492   0.30127   0.00000  Uiso   1.00
C448   C     0.46023   0.64789   0.28153   0.00000  Uiso   1.00
C449   C     0.50145   0.62431   0.25328   0.00000  Uiso   1.00
C450   C     0.63355   0.52341   0.28745   0.00000  Uiso   1.00
C451   C     0.35006   0.52469   0.28512   0.00000  Uiso   1.00
H452   H     0.36227   0.54389   0.31365   0.00000  Uiso   1.00
N453   N     0.38265   0.49999   0.24998   0.00000  Uiso   1.00
C454   C     0.36598   0.47418   0.21543   0.00000  Uiso   1.00
C455   C     0.65048   0.47602   0.21403   0.00000  Uiso   1.00
H456   H     0.63868   0.45687   0.18540   0.00000  Uiso   1.00
N457   N     0.61735   0.50002   0.24999   0.00000  Uiso   1.00
O458   O     0.61069   0.45101   0.08813   0.00000  Uiso   1.00
H459   H     0.59334   0.44297   0.12312   0.00000  Uiso   1.00
C460   C     0.57143   0.36507   0.16507   0.00000  Uiso   1.00
C461   C     0.55697   0.35276   0.12049   0.00000  Uiso   1.00
C462   C     0.58967   0.35253   0.07098   0.00000  Uiso   1.00
C463   C     0.63774   0.36354   0.06557   0.00000  Uiso   1.00
C464   C     0.65261   0.37542   0.10966   0.00000  Uiso   1.00
C465   C     0.61976   0.37624   0.15933   0.00000  Uiso   1.00
H466   H     0.52149   0.33982   0.12463   0.00000  Uiso   1.00
H467   H     0.57812   0.34250   0.03705   0.00000  Uiso   1.00
H468   H     0.66342   0.36296   0.02733   0.00000  Uiso   1.00
H469   H     0.35620   0.38404   0.10507   0.00000  Uiso   1.00
H470   H     0.63233   0.38353   0.19324   0.00000  Uiso   1.00
O471   O     0.41993   0.63141   0.31504   0.00000  Uiso   1.00
H472   H     0.42956   0.60615   0.32769   0.00000  Uiso   1.00
C473   C     0.60109   0.54337   0.33604   0.00000  Uiso   1.00
C474   C     0.60107   0.52829   0.38367   0.00000  Uiso   1.00
C475   C     0.57898   0.55065   0.43072   0.00000  Uiso   1.00
C476   C     0.55452   0.58723   0.43116   0.00000  Uiso   1.00
C477   C     0.55434   0.60259   0.38428   0.00000  Uiso   1.00
C478   C     0.57883   0.58144   0.33713   0.00000  Uiso   1.00
H479   H     0.62018   0.50011   0.38424   0.00000  Uiso   1.00
H480   H     0.58155   0.53995   0.46683   0.00000  Uiso   1.00
H481   H     0.53687   0.60419   0.46770   0.00000  Uiso   1.00
H482   H     0.53686   0.63172   0.38439   0.00000  Uiso   1.00
H483   H     0.58197   0.59588   0.30212   0.00000  Uiso   1.00
C484   C     0.39633   0.44123   0.18176   0.00000  Uiso   1.00
C485   C     0.41963   0.44705   0.12956   0.00000  Uiso   1.00
C486   C     0.44404   0.41451   0.09597   0.00000  Uiso   1.00
C487   C     0.44390   0.37548   0.11394   0.00000  Uiso   1.00
C488   C     0.42007   0.36909   0.16575   0.00000  Uiso   1.00
C489   C     0.39569   0.40170   0.19940   0.00000  Uiso   1.00
H490   H     0.41822   0.47662   0.11499   0.00000  Uiso   1.00
H491   H     0.46132   0.41902   0.05554   0.00000  Uiso   1.00
H492   H     0.46099   0.34997   0.08722   0.00000  Uiso   1.00
H493   H     0.41970   0.33874   0.17950   0.00000  Uiso   1.00
H494   H     0.37600   0.39611   0.23901   0.00000  Uiso   1.00
O495   O     0.56963   0.40215   0.42972   0.00000  Uiso   1.00
H496   H     0.55244   0.38254   0.41114   0.00000  Uiso   1.00
O497   O     0.49618   0.55126   0.07860   0.00000  Uiso   1.00
H498   H     0.50628   0.56266   0.10914   0.00000  Uiso   1.00
O499   O     0.39581   0.55255   0.40013   0.00000  Uiso   1.00
H500   H     0.37049   0.57143   0.42257   0.00000  Uiso   1.00
O501   O     0.41742   0.53498   0.06703   0.00000  Uiso   1.00
H502   H     0.39673   0.55989   0.07509   0.00000  Uiso   1.00
O503   O     0.51052   0.43101   0.37163   0.00000  Uiso   1.00
H504   H     0.54326   0.42028   0.35285   0.00000  Uiso   1.00
C505   C     0.59104   0.62335   0.20271   0.00000  Uiso   1.00
C506   C     0.59928   0.59239   0.16184   0.00000  Uiso   1.00
C507   C     0.64199   0.56928   0.14839   0.00000  Uiso   1.00
C508   C     0.34410   0.57825   0.17404   0.00000  Uiso   1.00
C509   C     0.33780   0.61129   0.21158   0.00000  Uiso   1.00
C510   C     0.62832   0.63408   0.22550   0.00000  Uiso   1.00
H511   H     0.57163   0.58476   0.14264   0.00000  Uiso   1.00
H512   H     0.64702   0.54383   0.11895   0.00000  Uiso   1.00
H513   H     0.37641   0.55955   0.16525   0.00000  Uiso   1.00
H514   H     0.36544   0.61842   0.23103   0.00000  Uiso   1.00
H515   H     0.62303   0.65866   0.25617   0.00000  Uiso   1.00
O516   O     0.79375   0.56011   0.25000   0.00000  Uiso   1.00
O517   O     0.87294   0.56012   0.25000   0.00000  Uiso   1.00
C518   C     0.83343   0.57933   0.25192   0.00000  Uiso   1.00
O519   O     0.77441   0.49998   0.32549   0.00000  Uiso   1.00
O520   O     0.85360   0.49999   0.32549   0.00000  Uiso   1.00
C521   C     0.80734   0.50102   0.34981   0.00000  Uiso   1.00
Cu522  Cu    0.78645   0.49999   0.25000   0.00000  Uiso   1.00
Cu523  Cu    0.88022   0.50001   0.25000   0.00000  Uiso   1.00
O524   O     0.79373   0.43988   0.24999   0.00000  Uiso   1.00
O525   O     0.87292   0.43989   0.24999   0.00000  Uiso   1.00
O526   O     0.81306   0.50001   0.17451   0.00000  Uiso   1.00
O527   O     0.89225   0.50002   0.17451   0.00000  Uiso   1.00
C528   C     0.83383   0.42072   0.24660   0.00000  Uiso   1.00
C529   C     0.85924   0.49950   0.15000   0.00000  Uiso   1.00
C530   C     0.91184   0.44850   0.01663   0.00000  Uiso   1.00
H531   H     0.93972   0.42601   0.49764   0.00000  Uiso   1.00
C532   C     0.87369   0.49304   0.09272   0.00000  Uiso   1.00
C533   C     0.75339   0.53429   0.43024   0.00000  Uiso   1.00
C534   C     0.74080   0.54347   0.48368   0.00000  Uiso   1.00
C535   C     0.76770   0.52812   0.01397   0.00000  Uiso   1.00
C536   C     0.80874   0.50244   0.49034   0.00000  Uiso   1.00
C537   C     0.81558   0.48679   0.43780   0.00000  Uiso   1.00
C538   C     0.84280   0.49105   0.01667   0.00000  Uiso   1.00
C539   C     0.87674   0.45911   0.49296   0.00000  Uiso   1.00
C540   C     0.87534   0.43752   0.44628   0.00000  Uiso   1.00
C541   C     0.84585   0.45201   0.41765   0.00000  Uiso   1.00
C542   C     0.84648   0.51141   0.06427   0.00000  Uiso   1.00
C543   C     0.90981   0.46423   0.06652   0.00000  Uiso   1.00
C544   C     0.79115   0.50610   0.40690   0.00000  Uiso   1.00
H545   H     0.70976   0.56310   0.00206   0.00000  Uiso   1.00
C546   C     0.87654   0.64430   0.22379   0.00000  Uiso   1.00
C547   C     0.87368   0.35247   0.21535   0.00000  Uiso   1.00
C548   C     0.83350   0.37597   0.24519   0.00000  Uiso   1.00
C549   C     0.79392   0.35682   0.27783   0.00000  Uiso   1.00
H550   H     0.76317   0.37492   0.30127   0.00000  Uiso   1.00
C551   C     0.79356   0.64789   0.28153   0.00000  Uiso   1.00
C552   C     0.83479   0.62431   0.25328   0.00000  Uiso   1.00
C553   C     0.96689   0.52341   0.28745   0.00000  Uiso   1.00
C554   C     0.68340   0.52469   0.28512   0.00000  Uiso   1.00
H555   H     0.69561   0.54389   0.31365   0.00000  Uiso   1.00
N556   N     0.71598   0.49999   0.24998   0.00000  Uiso   1.00
C557   C     0.69931   0.47418   0.21543   0.00000  Uiso   1.00
C558   C     0.98382   0.47602   0.21403   0.00000  Uiso   1.00
H559   H     0.97202   0.45687   0.18540   0.00000  Uiso   1.00
N560   N     0.95069   0.50002   0.24999   0.00000  Uiso   1.00
O561   O     0.94403   0.45101   0.08813   0.00000  Uiso   1.00
H562   H     0.92668   0.44297   0.12312   0.00000  Uiso   1.00
C563   C     0.90476   0.36507   0.16507   0.00000  Uiso   1.00
C564   C     0.89031   0.35276   0.12049   0.00000  Uiso   1.00
C565   C     0.92300   0.35253   0.07098   0.00000  Uiso   1.00
C566   C     0.97107   0.36354   0.06557   0.00000  Uiso   1.00
C567   C     0.98594   0.37542   0.10966   0.00000  Uiso   1.00
C568   C     0.95309   0.37624   0.15933   0.00000  Uiso   1.00
H569   H     0.85482   0.33982   0.12463   0.00000  Uiso   1.00
H570   H     0.91145   0.34250   0.03705   0.00000  Uiso   1.00
H571   H     0.99675   0.36296   0.02733   0.00000  Uiso   1.00
H572   H     0.68953   0.38404   0.10507   0.00000  Uiso   1.00
H573   H     0.96566   0.38353   0.19324   0.00000  Uiso   1.00
O574   O     0.75327   0.63141   0.31504   0.00000  Uiso   1.00
H575   H     0.76289   0.60615   0.32769   0.00000  Uiso   1.00
C576   C     0.93442   0.54337   0.33604   0.00000  Uiso   1.00
C577   C     0.93441   0.52829   0.38367   0.00000  Uiso   1.00
C578   C     0.91232   0.55065   0.43072   0.00000  Uiso   1.00
C579   C     0.88785   0.58723   0.43116   0.00000  Uiso   1.00
C580   C     0.88767   0.60259   0.38428   0.00000  Uiso   1.00
C581   C     0.91216   0.58144   0.33713   0.00000  Uiso   1.00
H582   H     0.95351   0.50011   0.38424   0.00000  Uiso   1.00
H583   H     0.91489   0.53995   0.46683   0.00000  Uiso   1.00
H584   H     0.87020   0.60419   0.46770   0.00000  Uiso   1.00
H585   H     0.87020   0.63172   0.38439   0.00000  Uiso   1.00
H586   H     0.91531   0.59588   0.30212   0.00000  Uiso   1.00
C587   C     0.72966   0.44123   0.18176   0.00000  Uiso   1.00
C588   C     0.75296   0.44705   0.12956   0.00000  Uiso   1.00
C589   C     0.77737   0.41451   0.09597   0.00000  Uiso   1.00
C590   C     0.77724   0.37548   0.11394   0.00000  Uiso   1.00
C591   C     0.75340   0.36909   0.16575   0.00000  Uiso   1.00
C592   C     0.72902   0.40170   0.19940   0.00000  Uiso   1.00
H593   H     0.75155   0.47662   0.11499   0.00000  Uiso   1.00
H594   H     0.79465   0.41902   0.05554   0.00000  Uiso   1.00
H595   H     0.79433   0.34997   0.08722   0.00000  Uiso   1.00
H596   H     0.75304   0.33874   0.17950   0.00000  Uiso   1.00
H597   H     0.70933   0.39611   0.23901   0.00000  Uiso   1.00
O598   O     0.90297   0.40215   0.42972   0.00000  Uiso   1.00
H599   H     0.88577   0.38254   0.41114   0.00000  Uiso   1.00
O600   O     0.82951   0.55126   0.07860   0.00000  Uiso   1.00
H601   H     0.83961   0.56266   0.10914   0.00000  Uiso   1.00
O602   O     0.72914   0.55255   0.40013   0.00000  Uiso   1.00
H603   H     0.70383   0.57143   0.42257   0.00000  Uiso   1.00
O604   O     0.75075   0.53498   0.06703   0.00000  Uiso   1.00
H605   H     0.73006   0.55989   0.07509   0.00000  Uiso   1.00
O606   O     0.84385   0.43101   0.37163   0.00000  Uiso   1.00
H607   H     0.87660   0.42028   0.35285   0.00000  Uiso   1.00
C608   C     0.92437   0.62335   0.20271   0.00000  Uiso   1.00
C609   C     0.93261   0.59239   0.16184   0.00000  Uiso   1.00
C610   C     0.97532   0.56928   0.14839   0.00000  Uiso   1.00
C611   C     0.67743   0.57825   0.17404   0.00000  Uiso   1.00
C612   C     0.67113   0.61129   0.21158   0.00000  Uiso   1.00
C613   C     0.96165   0.63408   0.22550   0.00000  Uiso   1.00
H614   H     0.90497   0.58476   0.14264   0.00000  Uiso   1.00
H615   H     0.98035   0.54383   0.11895   0.00000  Uiso   1.00
H616   H     0.70975   0.55955   0.16525   0.00000  Uiso   1.00
H617   H     0.69877   0.61842   0.23103   0.00000  Uiso   1.00
H618   H     0.95637   0.65866   0.25617   0.00000  Uiso   1.00
O619   O     0.12708   0.89345   0.25000   0.00000  Uiso   1.00
O620   O     0.20627   0.89346   0.25000   0.00000  Uiso   1.00
C621   C     0.16676   0.91266   0.25192   0.00000  Uiso   1.00
O622   O     0.10775   0.83332   0.32549   0.00000  Uiso   1.00
O623   O     0.18694   0.83333   0.32549   0.00000  Uiso   1.00
C624   C     0.14067   0.83436   0.34981   0.00000  Uiso   1.00
Cu625  Cu    0.11978   0.83333   0.25000   0.00000  Uiso   1.00
Cu626  Cu    0.21355   0.83334   0.25000   0.00000  Uiso   1.00
O627   O     0.12706   0.77321   0.24999   0.00000  Uiso   1.00
O628   O     0.20625   0.77322   0.24999   0.00000  Uiso   1.00
O629   O     0.14640   0.83334   0.17451   0.00000  Uiso   1.00
O630   O     0.22559   0.83335   0.17451   0.00000  Uiso   1.00
C631   C     0.16716   0.75405   0.24660   0.00000  Uiso   1.00
C632   C     0.19257   0.83284   0.15000   0.00000  Uiso   1.00
C633   C     0.24517   0.78184   0.01663   0.00000  Uiso   1.00
H634   H     0.27305   0.75934   0.49764   0.00000  Uiso   1.00
C635   C     0.20703   0.82637   0.09272   0.00000  Uiso   1.00
C636   C     0.08673   0.86762   0.43024   0.00000  Uiso   1.00
C637   C     0.07413   0.87680   0.48368   0.00000  Uiso   1.00
C638   C     0.10104   0.86146   0.01397   0.00000  Uiso   1.00
C639   C     0.14208   0.83577   0.49034   0.00000  Uiso   1.00
C640   C     0.14891   0.82012   0.43780   0.00000  Uiso   1.00
C641   C     0.17613   0.82439   0.01667   0.00000  Uiso   1.00
C642   C     0.21007   0.79244   0.49296   0.00000  Uiso   1.00
C643   C     0.20867   0.77085   0.44628   0.00000  Uiso   1.00
C644   C     0.17919   0.78534   0.41765   0.00000  Uiso   1.00
C645   C     0.17981   0.84474   0.06427   0.00000  Uiso   1.00
C646   C     0.24315   0.79756   0.06652   0.00000  Uiso   1.00
C647   C     0.12449   0.83943   0.40690   0.00000  Uiso   1.00
H648   H     0.04309   0.89643   0.00206   0.00000  Uiso   1.00
C649   C     0.20987   0.97763   0.22379   0.00000  Uiso   1.00
C650   C     0.20701   0.68580   0.21535   0.00000  Uiso   1.00
C651   C     0.16683   0.70931   0.24519   0.00000  Uiso   1.00
C652   C     0.12726   0.69015   0.27783   0.00000  Uiso   1.00
H653   H     0.09650   0.70825   0.30127   0.00000  Uiso   1.00
C654   C     0.12689   0.98123   0.28153   0.00000  Uiso   1.00
C655   C     0.16812   0.95764   0.25328   0.00000  Uiso   1.00
C656   C     0.30022   0.85674   0.28745   0.00000  Uiso   1.00
C657   C     0.01673   0.85803   0.28512   0.00000  Uiso   1.00
H658   H     0.02894   0.87722   0.31365   0.00000  Uiso   1.00
N659   N     0.04931   0.83332   0.24998   0.00000  Uiso   1.00
C660   C     0.03264   0.80752   0.21543   0.00000  Uiso   1.00
C661   C     0.31715   0.80936   0.21403   0.00000  Uiso   1.00
H662   H     0.30535   0.79020   0.18540   0.00000  Uiso   1.00
N663   N     0.28402   0.83335   0.24999   0.00000  Uiso   1.00
O664   O     0.27736   0.78434   0.08813   0.00000  Uiso   1.00
H665   H     0.26001   0.77631   0.12312   0.00000  Uiso   1.00
C666   C     0.23810   0.69841   0.16507   0.00000  Uiso   1.00
C667   C     0.22364   0.68609   0.12049   0.00000  Uiso   1.00
C668   C     0.25633   0.68586   0.07098   0.00000  Uiso   1.00
C669   C     0.30440   0.69687   0.06557   0.00000  Uiso   1.00
C670   C     0.31927   0.70876   0.10966   0.00000  Uiso   1.00
C671   C     0.28642   0.70958   0.15933   0.00000  Uiso   1.00
H672   H     0.18816   0.67315   0.12463   0.00000  Uiso   1.00
H673   H     0.24479   0.67583   0.03705   0.00000  Uiso   1.00
H674   H     0.33009   0.69630   0.02733   0.00000  Uiso   1.00
H675   H     0.02286   0.71737   0.10507   0.00000  Uiso   1.00
H676   H     0.29899   0.71687   0.19324   0.00000  Uiso   1.00
O677   O     0.08660   0.96475   0.31504   0.00000  Uiso   1.00
H678   H     0.09623   0.93948   0.32769   0.00000  Uiso   1.00
C679   C     0.26776   0.87670   0.33604   0.00000  Uiso   1.00
C680   C     0.26774   0.86163   0.38367   0.00000  Uiso   1.00
C681   C     0.24565   0.88399   0.43072   0.00000  Uiso   1.00
C682   C     0.22119   0.92057   0.43116   0.00000  Uiso   1.00
C683   C     0.22100   0.93593   0.38428   0.00000  Uiso   1.00
C684   C     0.24549   0.91478   0.33713   0.00000  Uiso   1.00
H685   H     0.28684   0.83344   0.38424   0.00000  Uiso   1.00
H686   H     0.24822   0.87329   0.46683   0.00000  Uiso   1.00
H687   H     0.20354   0.93753   0.46770   0.00000  Uiso   1.00
H688   H     0.20353   0.96505   0.38439   0.00000  Uiso   1.00
H689   H     0.24864   0.92922   0.30212   0.00000  Uiso   1.00
C690   C     0.06299   0.77457   0.18176   0.00000  Uiso   1.00
C691   C     0.08630   0.78038   0.12956   0.00000  Uiso   1.00
C692   C     0.11071   0.74784   0.09597   0.00000  Uiso   1.00
C693   C     0.11057   0.70882   0.11394   0.00000  Uiso   1.00
C694   C     0.08673   0.70243   0.16575   0.00000  Uiso   1.00
C695   C     0.06236   0.73503   0.19940   0.00000  Uiso   1.00
H696   H     0.08489   0.80995   0.11499   0.00000  Uiso   1.00
H697   H     0.12799   0.75235   0.05554   0.00000  Uiso   1.00
H698   H     0.12766   0.68331   0.08722   0.00000  Uiso   1.00
H699   H     0.08637   0.67207   0.17950   0.00000  Uiso   1.00
H700   H     0.04267   0.72944   0.23901   0.00000  Uiso   1.00
O701   O     0.23630   0.73548   0.42972   0.00000  Uiso   1.00
H702   H     0.21910   0.71587   0.41114   0.00000  Uiso   1.00
O703   O     0.16285   0.88460   0.07860   0.00000  Uiso   1.00
H704   H     0.17294   0.89599   0.10914   0.00000  Uiso   1.00
O705   O     0.06248   0.88589   0.40013   0.00000  Uiso   1.00
H706   H     0.03716   0.90476   0.42257   0.00000  Uiso   1.00
O707   O     0.08408   0.86832   0.06703   0.00000  Uiso   1.00
H708   H     0.06339   0.89322   0.07509   0.00000  Uiso   1.00
O709   O     0.17719   0.76434   0.37163   0.00000  Uiso   1.00
H710   H     0.20993   0.75361   0.35285   0.00000  Uiso   1.00
C711   C     0.25770   0.95668   0.20271   0.00000  Uiso   1.00
C712   C     0.26594   0.92572   0.16184   0.00000  Uiso   1.00
C713   C     0.30865   0.90262   0.14839   0.00000  Uiso   1.00
C714   C     0.01077   0.91158   0.17404   0.00000  Uiso   1.00
C715   C     0.00447   0.94462   0.21158   0.00000  Uiso   1.00
C716   C     0.29498   0.96742   0.22550   0.00000  Uiso   1.00
H717   H     0.23830   0.91809   0.14264   0.00000  Uiso   1.00
H718   H     0.31368   0.87716   0.11895   0.00000  Uiso   1.00
H719   H     0.04308   0.89288   0.16525   0.00000  Uiso   1.00
H720   H     0.03210   0.95175   0.23103   0.00000  Uiso   1.00
H721   H     0.28970   0.99200   0.25617   0.00000  Uiso   1.00
O722   O     0.46042   0.89345   0.25000   0.00000  Uiso   1.00
O723   O     0.53961   0.89346   0.25000   0.00000  Uiso   1.00
C724   C     0.50010   0.91266   0.25192   0.00000  Uiso   1.00
O725   O     0.44108   0.83332   0.32549   0.00000  Uiso   1.00
O726   O     0.52027   0.83333   0.32549   0.00000  Uiso   1.00
C727   C     0.47401   0.83436   0.34981   0.00000  Uiso   1.00
Cu728  Cu    0.45311   0.83333   0.25000   0.00000  Uiso   1.00
Cu729  Cu    0.54689   0.83334   0.25000   0.00000  Uiso   1.00
O730   O     0.46039   0.77321   0.24999   0.00000  Uiso   1.00
O731   O     0.53958   0.77322   0.24999   0.00000  Uiso   1.00
O732   O     0.47973   0.83334   0.17451   0.00000  Uiso   1.00
O733   O     0.55892   0.83335   0.17451   0.00000  Uiso   1.00
C734   C     0.50050   0.75405   0.24660   0.00000  Uiso   1.00
C735   C     0.52590   0.83284   0.15000   0.00000  Uiso   1.00
C736   C     0.57851   0.78184   0.01663   0.00000  Uiso   1.00
H737   H     0.60638   0.75934   0.49764   0.00000  Uiso   1.00
C738   C     0.54036   0.82637   0.09272   0.00000  Uiso   1.00
C739   C     0.42006   0.86762   0.43024   0.00000  Uiso   1.00
C740   C     0.40746   0.87680   0.48368   0.00000  Uiso   1.00
C741   C     0.43437   0.86146   0.01397   0.00000  Uiso   1.00
C742   C     0.47541   0.83577   0.49034   0.00000  Uiso   1.00
C743   C     0.48225   0.82012   0.43780   0.00000  Uiso   1.00
C744   C     0.50946   0.82439   0.01667   0.00000  Uiso   1.00
C745   C     0.54341   0.79244   0.49296   0.00000  Uiso   1.00
C746   C     0.54201   0.77085   0.44628   0.00000  Uiso   1.00
C747   C     0.51252   0.78534   0.41765   0.00000  Uiso   1.00
C748   C     0.51314   0.84474   0.06427   0.00000  Uiso   1.00
C749   C     0.57648   0.79756   0.06652   0.00000  Uiso   1.00
C750   C     0.45782   0.83943   0.40690   0.00000  Uiso   1.00
H751   H     0.37643   0.89643   0.00206   0.00000  Uiso   1.00
C752   C     0.54321   0.97763   0.22379   0.00000  Uiso   1.00
C753   C     0.54035   0.68580   0.21535   0.00000  Uiso   1.00
C754   C     0.50016   0.70931   0.24519   0.00000  Uiso   1.00
C755   C     0.46059   0.69015   0.27783   0.00000  Uiso   1.00
H756   H     0.42984   0.70825   0.30127   0.00000  Uiso   1.00
C757   C     0.46023   0.98123   0.28153   0.00000  Uiso   1.00
C758   C     0.50145   0.95764   0.25328   0.00000  Uiso   1.00
C759   C     0.63355   0.85674   0.28745   0.00000  Uiso   1.00
C760   C     0.35006   0.85803   0.28512   0.00000  Uiso   1.00
H761   H     0.36227   0.87722   0.31365   0.00000  Uiso   1.00
N762   N     0.38265   0.83332   0.24998   0.00000  Uiso   1.00
C763   C     0.36598   0.80752   0.21543   0.00000  Uiso   1.00
C764   C     0.65048   0.80936   0.21403   0.00000  Uiso   1.00
H765   H     0.63868   0.79020   0.18540   0.00000  Uiso   1.00
N766   N     0.61735   0.83335   0.24999   0.00000  Uiso   1.00
O767   O     0.61069   0.78434   0.08813   0.00000  Uiso   1.00
H768   H     0.59334   0.77631   0.12312   0.00000  Uiso   1.00
C769   C     0.57143   0.69841   0.16507   0.00000  Uiso   1.00
C770   C     0.55697   0.68609   0.12049   0.00000  Uiso   1.00
C771   C     0.58967   0.68586   0.07098   0.00000  Uiso   1.00
C772   C     0.63774   0.69687   0.06557   0.00000  Uiso   1.00
C773   C     0.65261   0.70876   0.10966   0.00000  Uiso   1.00
C774   C     0.61976   0.70958   0.15933   0.00000  Uiso   1.00
H775   H     0.52149   0.67315   0.12463   0.00000  Uiso   1.00
H776   H     0.57812   0.67583   0.03705   0.00000  Uiso   1.00
H777   H     0.66342   0.69630   0.02733   0.00000  Uiso   1.00
H778   H     0.35620   0.71737   0.10507   0.00000  Uiso   1.00
H779   H     0.63233   0.71687   0.19324   0.00000  Uiso   1.00
O780   O     0.41993   0.96475   0.31504   0.00000  Uiso   1.00
H781   H     0.42956   0.93948   0.32769   0.00000  Uiso   1.00
C782   C     0.60109   0.87670   0.33604   0.00000  Uiso   1.00
C783   C     0.60107   0.86163   0.38367   0.00000  Uiso   1.00
C784   C     0.57898   0.88399   0.43072   0.00000  Uiso   1.00
C785   C     0.55452   0.92057   0.43116   0.00000  Uiso   1.00
C786   C     0.55434   0.93593   0.38428   0.00000  Uiso   1.00
C787   C     0.57883   0.91478   0.33713   0.00000  Uiso   1.00
H788   H     0.62018   0.83344   0.38424   0.00000  Uiso   1.00
H789   H     0.58155   0.87329   0.46683   0.00000  Uiso   1.00
H790   H     0.53687   0.93753   0.46770   0.00000  Uiso   1.00
H791   H     0.53686   0.96505   0.38439   0.00000  Uiso   1.00
H792   H     0.58197   0.92922   0.30212   0.00000  Uiso   1.00
C793   C     0.39633   0.77457   0.18176   0.00000  Uiso   1.00
C794   C     0.41963   0.78038   0.12956   0.00000  Uiso   1.00
C795   C     0.44404   0.74784   0.09597   0.00000  Uiso   1.00
C796   C     0.44390   0.70882   0.11394   0.00000  Uiso   1.00
C797   C     0.42007   0.70243   0.16575   0.00000  Uiso   1.00
C798   C     0.39569   0.73503   0.19940   0.00000  Uiso   1.00
H799   H     0.41822   0.80995   0.11499   0.00000  Uiso   1.00
H800   H     0.46132   0.75235   0.05554   0.00000  Uiso   1.00
H801   H     0.46099   0.68331   0.08722   0.00000  Uiso   1.00
H802   H     0.41970   0.67207   0.17950   0.00000  Uiso   1.00
H803   H     0.37600   0.72944   0.23901   0.00000  Uiso   1.00
O804   O     0.56963   0.73548   0.42972   0.00000  Uiso   1.00
H805   H     0.55244   0.71587   0.41114   0.00000  Uiso   1.00
O806   O     0.49618   0.88460   0.07860   0.00000  Uiso   1.00
H807   H     0.50628   0.89599   0.10914   0.00000  Uiso   1.00
O808   O     0.39581   0.88589   0.40013   0.00000  Uiso   1.00
H809   H     0.37049   0.90476   0.42257   0.00000  Uiso   1.00
O810   O     0.41742   0.86832   0.06703   0.00000  Uiso   1.00
H811   H     0.39673   0.89322   0.07509   0.00000  Uiso   1.00
O812   O     0.51052   0.76434   0.37163   0.00000  Uiso   1.00
H813   H     0.54326   0.75361   0.35285   0.00000  Uiso   1.00
C814   C     0.59104   0.95668   0.20271   0.00000  Uiso   1.00
C815   C     0.59928   0.92572   0.16184   0.00000  Uiso   1.00
C816   C     0.64199   0.90262   0.14839   0.00000  Uiso   1.00
C817   C     0.34410   0.91158   0.17404   0.00000  Uiso   1.00
C818   C     0.33780   0.94462   0.21158   0.00000  Uiso   1.00
C819   C     0.62832   0.96742   0.22550   0.00000  Uiso   1.00
H820   H     0.57163   0.91809   0.14264   0.00000  Uiso   1.00
H821   H     0.64702   0.87716   0.11895   0.00000  Uiso   1.00
H822   H     0.37641   0.89288   0.16525   0.00000  Uiso   1.00
H823   H     0.36544   0.95175   0.23103   0.00000  Uiso   1.00
H824   H     0.62303   0.99200   0.25617   0.00000  Uiso   1.00
O825   O     0.79375   0.89345   0.25000   0.00000  Uiso   1.00
O826   O     0.87294   0.89346   0.25000   0.00000  Uiso   1.00
C827   C     0.83343   0.91266   0.25192   0.00000  Uiso   1.00
O828   O     0.77441   0.83332   0.32549   0.00000  Uiso   1.00
O829   O     0.85360   0.83333   0.32549   0.00000  Uiso   1.00
C830   C     0.80734   0.83436   0.34981   0.00000  Uiso   1.00
Cu831  Cu    0.78645   0.83333   0.25000   0.00000  Uiso   1.00
Cu832  Cu    0.88022   0.83334   0.25000   0.00000  Uiso   1.00
O833   O     0.79373   0.77321   0.24999   0.00000  Uiso   1.00
O834   O     0.87292   0.77322   0.24999   0.00000  Uiso   1.00
O835   O     0.81306   0.83334   0.17451   0.00000  Uiso   1.00
O836   O     0.89225   0.83335   0.17451   0.00000  Uiso   1.00
C837   C     0.83383   0.75405   0.24660   0.00000  Uiso   1.00
C838   C     0.85924   0.83284   0.15000   0.00000  Uiso   1.00
C839   C     0.91184   0.78184   0.01663   0.00000  Uiso   1.00
H840   H     0.93972   0.75934   0.49764   0.00000  Uiso   1.00
C841   C     0.87369   0.82637   0.09272   0.00000  Uiso   1.00
C842   C     0.75339   0.86762   0.43024   0.00000  Uiso   1.00
C843   C     0.74080   0.87680   0.48368   0.00000  Uiso   1.00
C844   C     0.76770   0.86146   0.01397   0.00000  Uiso   1.00
C845   C     0.80874   0.83577   0.49034   0.00000  Uiso   1.00
C846   C     0.81558   0.82012   0.43780   0.00000  Uiso   1.00
C847   C     0.84280   0.82439   0.01667   0.00000  Uiso   1.00
C848   C     0.87674   0.79244   0.49296   0.00000  Uiso   1.00
C849   C     0.87534   0.77085   0.44628   0.00000  Uiso   1.00
C850   C     0.84585   0.78534   0.41765   0.00000  Uiso   1.00
C851   C     0.84648   0.84474   0.06427   0.00000  Uiso   1.00
C852   C     0.90981   0.79756   0.06652   0.00000  Uiso   1.00
C853   C     0.79115   0.83943   0.40690   0.00000  Uiso   1.00
H854   H     0.70976   0.89643   0.00206   0.00000  Uiso   1.00
C855   C     0.87654   0.97763   0.22379   0.00000  Uiso   1.00
C856   C     0.87368   0.68580   0.21535   0.00000  Uiso   1.00
C857   C     0.83350   0.70931   0.24519   0.00000  Uiso   1.00
C858   C     0.79392   0.69015   0.27783   0.00000  Uiso   1.00
H859   H     0.76317   0.70825   0.30127   0.00000  Uiso   1.00
C860   C     0.79356   0.98123   0.28153   0.00000  Uiso   1.00
C861   C     0.83479   0.95764   0.25328   0.00000  Uiso   1.00
C862   C     0.96689   0.85674   0.28745   0.00000  Uiso   1.00
C863   C     0.68340   0.85803   0.28512   0.00000  Uiso   1.00
H864   H     0.69561   0.87722   0.31365   0.00000  Uiso   1.00
N865   N     0.71598   0.83332   0.24998   0.00000  Uiso   1.00
C866   C     0.69931   0.80752   0.21543   0.00000  Uiso   1.00
C867   C     0.98382   0.80936   0.21403   0.00000  Uiso   1.00
H868   H     0.97202   0.79020   0.18540   0.00000  Uiso   1.00
N869   N     0.95069   0.83335   0.24999   0.00000  Uiso   1.00
O870   O     0.94403   0.78434   0.08813   0.00000  Uiso   1.00
H871   H     0.92668   0.77631   0.12312   0.00000  Uiso   1.00
C872   C     0.90476   0.69841   0.16507   0.00000  Uiso   1.00
C873   C     0.89031   0.68609   0.12049   0.00000  Uiso   1.00
C874   C     0.92300   0.68586   0.07098   0.00000  Uiso   1.00
C875   C     0.97107   0.69687   0.06557   0.00000  Uiso   1.00
C876   C     0.98594   0.70876   0.10966   0.00000  Uiso   1.00
C877   C     0.95309   0.70958   0.15933   0.00000  Uiso   1.00
H878   H     0.85482   0.67315   0.12463   0.00000  Uiso   1.00
H879   H     0.91145   0.67583   0.03705   0.00000  Uiso   1.00
H880   H     0.99675   0.69630   0.02733   0.00000  Uiso   1.00
H881   H     0.68953   0.71737   0.10507   0.00000  Uiso   1.00
H882   H     0.96566   0.71687   0.19324   0.00000  Uiso   1.00
O883   O     0.75327   0.96475   0.31504   0.00000  Uiso   1.00
H884   H     0.76289   0.93948   0.32769   0.00000  Uiso   1.00
C885   C     0.93442   0.87670   0.33604   0.00000  Uiso   1.00
C886   C     0.93441   0.86163   0.38367   0.00000  Uiso   1.00
C887   C     0.91232   0.88399   0.43072   0.00000  Uiso   1.00
C888   C     0.88785   0.92057   0.43116   0.00000  Uiso   1.00
C889   C     0.88767   0.93593   0.38428   0.00000  Uiso   1.00
C890   C     0.91216   0.91478   0.33713   0.00000  Uiso   1.00
H891   H     0.95351   0.83344   0.38424   0.00000  Uiso   1.00
H892   H     0.91489   0.87329   0.46683   0.00000  Uiso   1.00
H893   H     0.87020   0.93753   0.46770   0.00000  Uiso   1.00
H894   H     0.87020   0.96505   0.38439   0.00000  Uiso   1.00
H895   H     0.91531   0.92922   0.30212   0.00000  Uiso   1.00
C896   C     0.72966   0.77457   0.18176   0.00000  Uiso   1.00
C897   C     0.75296   0.78038   0.12956   0.00000  Uiso   1.00
C898   C     0.77737   0.74784   0.09597   0.00000  Uiso   1.00
C899   C     0.77724   0.70882   0.11394   0.00000  Uiso   1.00
C900   C     0.75340   0.70243   0.16575   0.00000  Uiso   1.00
C901   C     0.72902   0.73503   0.19940   0.00000  Uiso   1.00
H902   H     0.75155   0.80995   0.11499   0.00000  Uiso   1.00
H903   H     0.79465   0.75235   0.05554   0.00000  Uiso   1.00
H904   H     0.79433   0.68331   0.08722   0.00000  Uiso   1.00
H905   H     0.75304   0.67207   0.17950   0.00000  Uiso   1.00
H906   H     0.70933   0.72944   0.23901   0.00000  Uiso   1.00
O907   O     0.90297   0.73548   0.42972   0.00000  Uiso   1.00
H908   H     0.88577   0.71587   0.41114   0.00000  Uiso   1.00
O909   O     0.82951   0.88460   0.07860   0.00000  Uiso   1.00
H910   H     0.83961   0.89599   0.10914   0.00000  Uiso   1.00
O911   O     0.72914   0.88589   0.40013   0.00000  Uiso   1.00
H912   H     0.70383   0.90476   0.42257   0.00000  Uiso   1.00
O913   O     0.75075   0.86832   0.06703   0.00000  Uiso   1.00
H914   H     0.73006   0.89322   0.07509   0.00000  Uiso   1.00
O915   O     0.84385   0.76434   0.37163   0.00000  Uiso   1.00
H916   H     0.87660   0.75361   0.35285   0.00000  Uiso   1.00
C917   C     0.92437   0.95668   0.20271   0.00000  Uiso   1.00
C918   C     0.93261   0.92572   0.16184   0.00000  Uiso   1.00
C919   C     0.97532   0.90262   0.14839   0.00000  Uiso   1.00
C920   C     0.67743   0.91158   0.17404   0.00000  Uiso   1.00
C921   C     0.67113   0.94462   0.21158   0.00000  Uiso   1.00
C922   C     0.96165   0.96742   0.22550   0.00000  Uiso   1.00
H923   H     0.90497   0.91809   0.14264   0.00000  Uiso   1.00
H924   H     0.98035   0.87716   0.11895   0.00000  Uiso   1.00
H925   H     0.70975   0.89288   0.16525   0.00000  Uiso   1.00
H926   H     0.69877   0.95175   0.23103   0.00000  Uiso   1.00
H927   H     0.95637   0.99200   0.25617   0.00000  Uiso   1.00
O928   O     0.12708   0.22678   0.75000   0.00000  Uiso   1.00
O929   O     0.20627   0.22679   0.75000   0.00000  Uiso   1.00
C930   C     0.16676   0.24600   0.75192   0.00000  Uiso   1.00
O931   O     0.10775   0.16665   0.82549   0.00000  Uiso   1.00
O932   O     0.18694   0.16666   0.82549   0.00000  Uiso   1.00
C933   C     0.14067   0.16769   0.84981   0.00000  Uiso   1.00
Cu934  Cu    0.11978   0.16666   0.75000   0.00000  Uiso   1.00
Cu935  Cu    0.21355   0.16667   0.75000   0.00000  Uiso   1.00
O936   O     0.12706   0.10654   0.74999   0.00000  Uiso   1.00
O937   O     0.20625   0.10655   0.74999   0.00000  Uiso   1.00
O938   O     0.14640   0.16667   0.67451   0.00000  Uiso   1.00
O939   O     0.22559   0.16668   0.67451   0.00000  Uiso   1.00
C940   C     0.16716   0.08739   0.74660   0.00000  Uiso   1.00
C941   C     0.19257   0.16617   0.65000   0.00000  Uiso   1.00
C942   C     0.24517   0.11517   0.51663   0.00000  Uiso   1.00
H943   H     0.27305   0.09268   0.99764   0.00000  Uiso   1.00
C944   C     0.20703   0.15971   0.59272   0.00000  Uiso   1.00
C945   C     0.08673   0.20096   0.93024   0.00000  Uiso   1.00
C946   C     0.07413   0.21014   0.98368   0.00000  Uiso   1.00
C947   C     0.10104   0.19479   0.51397   0.00000  Uiso   1.00
C948   C     0.14208   0.16911   0.99034   0.00000  Uiso   1.00
C949   C     0.14891   0.15345   0.93780   0.00000  Uiso   1.00
C950   C     0.17613   0.15772   0.51667   0.00000  Uiso   1.00
C951   C     0.21007   0.12578   0.99296   0.00000  Uiso   1.00
C952   C     0.20867   0.10418   0.94628   0.00000  Uiso   1.00
C953   C     0.17919   0.11867   0.91765   0.00000  Uiso   1.00
C954   C     0.17981   0.17807   0.56427   0.00000  Uiso   1.00
C955   C     0.24315   0.13089   0.56652   0.00000  Uiso   1.00
C956   C     0.12449   0.17277   0.90690   0.00000  Uiso   1.00
H957   H     0.04309   0.22976   0.50206   0.00000  Uiso   1.00
C958   C     0.20987   0.31097   0.72379   0.00000  Uiso   1.00
C959   C     0.20701   0.01913   0.71535   0.00000  Uiso   1.00
C960   C     0.16683   0.04264   0.74519   0.00000  Uiso   1.00
C961   C     0.12726   0.02349   0.77783   0.00000  Uiso   1.00
H962   H     0.09650   0.04159   0.80127   0.00000  Uiso   1.00
C963   C     0.12689   0.31456   0.78153   0.00000  Uiso   1.00
C964   C     0.16812   0.29097   0.75328   0.00000  Uiso   1.00
C965   C     0.30022   0.19008   0.78745   0.00000  Uiso   1.00
C966   C     0.01673   0.19136   0.78512   0.00000  Uiso   1.00
H967   H     0.02894   0.21055   0.81365   0.00000  Uiso   1.00
N968   N     0.04931   0.16666   0.74998   0.00000  Uiso   1.00
C969   C     0.03264   0.14085   0.71543   0.00000  Uiso   1.00
C970   C     0.31715   0.14269   0.71403   0.00000  Uiso   1.00
H971   H     0.30535   0.12354   0.68540   0.00000  Uiso   1.00
N972   N     0.28402   0.16669   0.74999   0.00000  Uiso   1.00
O973   O     0.27736   0.11767   0.58813   0.00000  Uiso   1.00
H974   H     0.26001   0.10964   0.62312   0.00000  Uiso   1.00
C975   C     0.23810   0.03174   0.66507   0.00000  Uiso   1.00
C976   C     0.22364   0.01943   0.62049   0.00000  Uiso   1.00
C977   C     0.25633   0.01920   0.57098   0.00000  Uiso   1.00
C978   C     0.30440   0.03020   0.56557   0.00000  Uiso   1.00
C979   C     0.31927   0.04209   0.60966   0.00000  Uiso   1.00
C980   C     0.28642   0.04291   0.65933   0.00000  Uiso   1.00
H981   H     0.18816   0.00648   0.62463   0.00000  Uiso   1.00
H982   H     0.24479   0.00916   0.53705   0.00000  Uiso   1.00
H983   H     0.33009   0.02963   0.52733   0.00000  Uiso   1.00
H984   H     0.02286   0.05071   0.60507   0.00000  Uiso   1.00
H985   H     0.29899   0.05020   0.69324   0.00000  Uiso   1.00
O986   O     0.08660   0.29808   0.81504   0.00000  Uiso   1.00
H987   H     0.09623   0.27281   0.82769   0.00000  Uiso   1.00
C988   C     0.26776   0.21004   0.83604   0.00000  Uiso   1.00
C989   C     0.26774   0.19496   0.88367   0.00000  Uiso   1.00
C990   C     0.24565   0.21732   0.93072   0.00000  Uiso   1.00
C991   C     0.22119   0.25390   0.93116   0.00000  Uiso   1.00
C992   C     0.22100   0.26926   0.88428   0.00000  Uiso   1.00
C993   C     0.24549   0.24811   0.83713   0.00000  Uiso   1.00
H994   H     0.28684   0.16678   0.88424   0.00000  Uiso   1.00
H995   H     0.24822   0.20662   0.96683   0.00000  Uiso   1.00
H996   H     0.20354   0.27086   0.96770   0.00000  Uiso   1.00
H997   H     0.20353   0.29838   0.88439   0.00000  Uiso   1.00
H998   H     0.24864   0.26255   0.80212   0.00000  Uiso   1.00
C999   C     0.06299   0.10790   0.68176   0.00000  Uiso   1.00
C1000  C     0.08630   0.11372   0.62956   0.00000  Uiso   1.00
C1001  C     0.11071   0.08118   0.59597   0.00000  Uiso   1.00
C1002  C     0.11057   0.04215   0.61394   0.00000  Uiso   1.00
C1003  C     0.08673   0.03576   0.66575   0.00000  Uiso   1.00
C1004  C     0.06236   0.06836   0.69940   0.00000  Uiso   1.00
H1005  H     0.08489   0.14328   0.61499   0.00000  Uiso   1.00
H1006  H     0.12799   0.08569   0.55554   0.00000  Uiso   1.00
H1007  H     0.12766   0.01664   0.58722   0.00000  Uiso   1.00
H1008  H     0.08637   0.00541   0.67950   0.00000  Uiso   1.00
H1009  H     0.04267   0.06278   0.73901   0.00000  Uiso   1.00
O1010  O     0.23630   0.06882   0.92972   0.00000  Uiso   1.00
H1011  H     0.21910   0.04920   0.91114   0.00000  Uiso   1.00
O1012  O     0.16285   0.21793   0.57860   0.00000  Uiso   1.00
H1013  H     0.17294   0.22932   0.60914   0.00000  Uiso   1.00
O1014  O     0.06248   0.21922   0.90013   0.00000  Uiso   1.00
H1015  H     0.03716   0.23809   0.92257   0.00000  Uiso   1.00
O1016  O     0.08408   0.20165   0.56703   0.00000  Uiso   1.00
H1017  H     0.06339   0.22655   0.57509   0.00000  Uiso   1.00
O1018  O     0.17719   0.09768   0.87163   0.00000  Uiso   1.00
H1019  H     0.20993   0.08694   0.85285   0.00000  Uiso   1.00
C1020  C     0.25770   0.29001   0.70271   0.00000  Uiso   1.00
C1021  C     0.26594   0.25905   0.66184   0.00000  Uiso   1.00
C1022  C     0.30865   0.23595   0.64839   0.00000  Uiso   1.00
C1023  C     0.01077   0.24492   0.67404   0.00000  Uiso   1.00
C1024  C     0.00447   0.27795   0.71158   0.00000  Uiso   1.00
C1025  C     0.29498   0.30075   0.72550   0.00000  Uiso   1.00
H1026  H     0.23830   0.25143   0.64264   0.00000  Uiso   1.00
H1027  H     0.31368   0.21049   0.61895   0.00000  Uiso   1.00
H1028  H     0.04308   0.22622   0.66525   0.00000  Uiso   1.00
H1029  H     0.03210   0.28509   0.73103   0.00000  Uiso   1.00
H1030  H     0.28970   0.32533   0.75617   0.00000  Uiso   1.00
O1031  O     0.46042   0.22678   0.75000   0.00000  Uiso   1.00
O1032  O     0.53961   0.22679   0.75000   0.00000  Uiso   1.00
C1033  C     0.50010   0.24600   0.75192   0.00000  Uiso   1.00
O1034  O     0.44108   0.16665   0.82549   0.00000  Uiso   1.00
O1035  O     0.52027   0.16666   0.82549   0.00000  Uiso   1.00
C1036  C     0.47401   0.16769   0.84981   0.00000  Uiso   1.00
Cu1037 Cu    0.45311   0.16666   0.75000   0.00000  Uiso   1.00
Cu1038 Cu    0.54689   0.16667   0.75000   0.00000  Uiso   1.00
O1039  O     0.46039   0.10654   0.74999   0.00000  Uiso   1.00
O1040  O     0.53958   0.10655   0.74999   0.00000  Uiso   1.00
O1041  O     0.47973   0.16667   0.67451   0.00000  Uiso   1.00
O1042  O     0.55892   0.16668   0.67451   0.00000  Uiso   1.00
C1043  C     0.50050   0.08739   0.74660   0.00000  Uiso   1.00
C1044  C     0.52590   0.16617   0.65000   0.00000  Uiso   1.00
C1045  C     0.57851   0.11517   0.51663   0.00000  Uiso   1.00
H1046  H     0.60638   0.09268   0.99764   0.00000  Uiso   1.00
C1047  C     0.54036   0.15971   0.59272   0.00000  Uiso   1.00
C1048  C     0.42006   0.20096   0.93024   0.00000  Uiso   1.00
C1049  C     0.40746   0.21014   0.98368   0.00000  Uiso   1.00
C1050  C     0.43437   0.19479   0.51397   0.00000  Uiso   1.00
C1051  C     0.47541   0.16911   0.99034   0.00000  Uiso   1.00
C1052  C     0.48225   0.15345   0.93780   0.00000  Uiso   1.00
C1053  C     0.50946   0.15772   0.51667   0.00000  Uiso   1.00
C1054  C     0.54341   0.12578   0.99296   0.00000  Uiso   1.00
C1055  C     0.54201   0.10418   0.94628   0.00000  Uiso   1.00
C1056  C     0.51252   0.11867   0.91765   0.00000  Uiso   1.00
C1057  C     0.51314   0.17807   0.56427   0.00000  Uiso   1.00
C1058  C     0.57648   0.13089   0.56652   0.00000  Uiso   1.00
C1059  C     0.45782   0.17277   0.90690   0.00000  Uiso   1.00
H1060  H     0.37643   0.22976   0.50206   0.00000  Uiso   1.00
C1061  C     0.54321   0.31097   0.72379   0.00000  Uiso   1.00
C1062  C     0.54035   0.01913   0.71535   0.00000  Uiso   1.00
C1063  C     0.50016   0.04264   0.74519   0.00000  Uiso   1.00
C1064  C     0.46059   0.02349   0.77783   0.00000  Uiso   1.00
H1065  H     0.42984   0.04159   0.80127   0.00000  Uiso   1.00
C1066  C     0.46023   0.31456   0.78153   0.00000  Uiso   1.00
C1067  C     0.50145   0.29097   0.75328   0.00000  Uiso   1.00
C1068  C     0.63355   0.19008   0.78745   0.00000  Uiso   1.00
C1069  C     0.35006   0.19136   0.78512   0.00000  Uiso   1.00
H1070  H     0.36227   0.21055   0.81365   0.00000  Uiso   1.00
N1071  N     0.38265   0.16666   0.74998   0.00000  Uiso   1.00
C1072  C     0.36598   0.14085   0.71543   0.00000  Uiso   1.00
C1073  C     0.65048   0.14269   0.71403   0.00000  Uiso   1.00
H1074  H     0.63868   0.12354   0.68540   0.00000  Uiso   1.00
N1075  N     0.61735   0.16669   0.74999   0.00000  Uiso   1.00
O1076  O     0.61069   0.11767   0.58813   0.00000  Uiso   1.00
H1077  H     0.59334   0.10964   0.62312   0.00000  Uiso   1.00
C1078  C     0.57143   0.03174   0.66507   0.00000  Uiso   1.00
C1079  C     0.55697   0.01943   0.62049   0.00000  Uiso   1.00
C1080  C     0.58967   0.01920   0.57098   0.00000  Uiso   1.00
C1081  C     0.63774   0.03020   0.56557   0.00000  Uiso   1.00
C1082  C     0.65261   0.04209   0.60966   0.00000  Uiso   1.00
C1083  C     0.61976   0.04291   0.65933   0.00000  Uiso   1.00
H1084  H     0.52149   0.00648   0.62463   0.00000  Uiso   1.00
H1085  H     0.57812   0.00916   0.53705   0.00000  Uiso   1.00
H1086  H     0.66342   0.02963   0.52733   0.00000  Uiso   1.00
H1087  H     0.35620   0.05071   0.60507   0.00000  Uiso   1.00
H1088  H     0.63233   0.05020   0.69324   0.00000  Uiso   1.00
O1089  O     0.41993   0.29808   0.81504   0.00000  Uiso   1.00
H1090  H     0.42956   0.27281   0.82769   0.00000  Uiso   1.00
C1091  C     0.60109   0.21004   0.83604   0.00000  Uiso   1.00
C1092  C     0.60107   0.19496   0.88367   0.00000  Uiso   1.00
C1093  C     0.57898   0.21732   0.93072   0.00000  Uiso   1.00
C1094  C     0.55452   0.25390   0.93116   0.00000  Uiso   1.00
C1095  C     0.55434   0.26926   0.88428   0.00000  Uiso   1.00
C1096  C     0.57883   0.24811   0.83713   0.00000  Uiso   1.00
H1097  H     0.62018   0.16678   0.88424   0.00000  Uiso   1.00
H1098  H     0.58155   0.20662   0.96683   0.00000  Uiso   1.00
H1099  H     0.53687   0.27086   0.96770   0.00000  Uiso   1.00
H1100  H     0.53686   0.29838   0.88439   0.00000  Uiso   1.00
H1101  H     0.58197   0.26255   0.80212   0.00000  Uiso   1.00
C1102  C     0.39633   0.10790   0.68176   0.00000  Uiso   1.00
C1103  C     0.41963   0.11372   0.62956   0.00000  Uiso   1.00
C1104  C     0.44404   0.08118   0.59597   0.00000  Uiso   1.00
C1105  C     0.44390   0.04215   0.61394   0.00000  Uiso   1.00
C1106  C     0.42007   0.03576   0.66575   0.00000  Uiso   1.00
C1107  C     0.39569   0.06836   0.69940   0.00000  Uiso   1.00
H1108  H     0.41822   0.14328   0.61499   0.00000  Uiso   1.00
H1109  H     0.46132   0.08569   0.55554   0.00000  Uiso   1.00
H1110  H     0.46099   0.01664   0.58722   0.00000  Uiso   1.00
H1111  H     0.41970   0.00541   0.67950   0.00000  Uiso   1.00
H1112  H     0.37600   0.06278   0.73901   0.00000  Uiso   1.00
O1113  O     0.56963   0.06882   0.92972   0.00000  Uiso   1.00
H1114  H     0.55244   0.04920   0.91114   0.00000  Uiso   1.00
O1115  O     0.49618   0.21793   0.57860   0.00000  Uiso   1.00
H1116  H     0.50628   0.22932   0.60914   0.00000  Uiso   1.00
O1117  O     0.39581   0.21922   0.90013   0.00000  Uiso   1.00
H1118  H     0.37049   0.23809   0.92257   0.00000  Uiso   1.00
O1119  O     0.41742   0.20165   0.56703   0.00000  Uiso   1.00
H1120  H     0.39673   0.22655   0.57509   0.00000  Uiso   1.00
O1121  O     0.51052   0.09768   0.87163   0.00000  Uiso   1.00
H1122  H     0.54326   0.08694   0.85285   0.00000  Uiso   1.00
C1123  C     0.59104   0.29001   0.70271   0.00000  Uiso   1.00
C1124  C     0.59928   0.25905   0.66184   0.00000  Uiso   1.00
C1125  C     0.64199   0.23595   0.64839   0.00000  Uiso   1.00
C1126  C     0.34410   0.24492   0.67404   0.00000  Uiso   1.00
C1127  C     0.33780   0.27795   0.71158   0.00000  Uiso   1.00
C1128  C     0.62832   0.30075   0.72550   0.00000  Uiso   1.00
H1129  H     0.57163   0.25143   0.64264   0.00000  Uiso   1.00
H1130  H     0.64702   0.21049   0.61895   0.00000  Uiso   1.00
H1131  H     0.37641   0.22622   0.66525   0.00000  Uiso   1.00
H1132  H     0.36544   0.28509   0.73103   0.00000  Uiso   1.00
H1133  H     0.62303   0.32533   0.75617   0.00000  Uiso   1.00
O1134  O     0.79375   0.22678   0.75000   0.00000  Uiso   1.00
O1135  O     0.87294   0.22679   0.75000   0.00000  Uiso   1.00
C1136  C     0.83343   0.24600   0.75192   0.00000  Uiso   1.00
O1137  O     0.77441   0.16665   0.82549   0.00000  Uiso   1.00
O1138  O     0.85360   0.16666   0.82549   0.00000  Uiso   1.00
C1139  C     0.80734   0.16769   0.84981   0.00000  Uiso   1.00
Cu1140 Cu    0.78645   0.16666   0.75000   0.00000  Uiso   1.00
Cu1141 Cu    0.88022   0.16667   0.75000   0.00000  Uiso   1.00
O1142  O     0.79373   0.10654   0.74999   0.00000  Uiso   1.00
O1143  O     0.87292   0.10655   0.74999   0.00000  Uiso   1.00
O1144  O     0.81306   0.16667   0.67451   0.00000  Uiso   1.00
O1145  O     0.89225   0.16668   0.67451   0.00000  Uiso   1.00
C1146  C     0.83383   0.08739   0.74660   0.00000  Uiso   1.00
C1147  C     0.85924   0.16617   0.65000   0.00000  Uiso   1.00
C1148  C     0.91184   0.11517   0.51663   0.00000  Uiso   1.00
H1149  H     0.93972   0.09268   0.99764   0.00000  Uiso   1.00
C1150  C     0.87369   0.15971   0.59272   0.00000  Uiso   1.00
C1151  C     0.75339   0.20096   0.93024   0.00000  Uiso   1.00
C1152  C     0.74080   0.21014   0.98368   0.00000  Uiso   1.00
C1153  C     0.76770   0.19479   0.51397   0.00000  Uiso   1.00
C1154  C     0.80874   0.16911   0.99034   0.00000  Uiso   1.00
C1155  C     0.81558   0.15345   0.93780   0.00000  Uiso   1.00
C1156  C     0.84280   0.15772   0.51667   0.00000  Uiso   1.00
C1157  C     0.87674   0.12578   0.99296   0.00000  Uiso   1.00
C1158  C     0.87534   0.10418   0.94628   0.00000  Uiso   1.00
C1159  C     0.84585   0.11867   0.91765   0.00000  Uiso   1.00
C1160  C     0.84648   0.17807   0.56427   0.00000  Uiso   1.00
C1161  C     0.90981   0.13089   0.56652   0.00000  Uiso   1.00
C1162  C     0.79115   0.17277   0.90690   0.00000  Uiso   1.00
H1163  H     0.70976   0.22976   0.50206   0.00000  Uiso   1.00
C1164  C     0.87654   0.31097   0.72379   0.00000  Uiso   1.00
C1165  C     0.87368   0.01913   0.71535   0.00000  Uiso   1.00
C1166  C     0.83350   0.04264   0.74519   0.00000  Uiso   1.00
C1167  C     0.79392   0.02349   0.77783   0.00000  Uiso   1.00
H1168  H     0.76317   0.04159   0.80127   0.00000  Uiso   1.00
C1169  C     0.79356   0.31456   0.78153   0.00000  Uiso   1.00
C1170  C     0.83479   0.29097   0.75328   0.00000  Uiso   1.00
C1171  C     0.96689   0.19008   0.78745   0.00000  Uiso   1.00
C1172  C     0.68340   0.19136   0.78512   0.00000  Uiso   1.00
H1173  H     0.69561   0.21055   0.81365   0.00000  Uiso   1.00
N1174  N     0.71598   0.16666   0.74998   0.00000  Uiso   1.00
C1175  C     0.69931   0.14085   0.71543   0.00000  Uiso   1.00
C1176  C     0.98382   0.14269   0.71403   0.00000  Uiso   1.00
H1177  H     0.97202   0.12354   0.68540   0.00000  Uiso   1.00
N1178  N     0.95069   0.16669   0.74999   0.00000  Uiso   1.00
O1179  O     0.94403   0.11767   0.58813   0.00000  Uiso   1.00
H1180  H     0.92668   0.10964   0.62312   0.00000  Uiso   1.00
C1181  C     0.90476   0.03174   0.66507   0.00000  Uiso   1.00
C1182  C     0.89031   0.01943   0.62049   0.00000  Uiso   1.00
C1183  C     0.92300   0.01920   0.57098   0.00000  Uiso   1.00
C1184  C     0.97107   0.03020   0.56557   0.00000  Uiso   1.00
C1185  C     0.98594   0.04209   0.60966   0.00000  Uiso   1.00
C1186  C     0.95309   0.04291   0.65933   0.00000  Uiso   1.00
H1187  H     0.85482   0.00648   0.62463   0.00000  Uiso   1.00
H1188  H     0.91145   0.00916   0.53705   0.00000  Uiso   1.00
H1189  H     0.99675   0.02963   0.52733   0.00000  Uiso   1.00
H1190  H     0.68953   0.05071   0.60507   0.00000  Uiso   1.00
H1191  H     0.96566   0.05020   0.69324   0.00000  Uiso   1.00
O1192  O     0.75327   0.29808   0.81504   0.00000  Uiso   1.00
H1193  H     0.76289   0.27281   0.82769   0.00000  Uiso   1.00
C1194  C     0.93442   0.21004   0.83604   0.00000  Uiso   1.00
C1195  C     0.93441   0.19496   0.88367   0.00000  Uiso   1.00
C1196  C     0.91232   0.21732   0.93072   0.00000  Uiso   1.00
C1197  C     0.88785   0.25390   0.93116   0.00000  Uiso   1.00
C1198  C     0.88767   0.26926   0.88428   0.00000  Uiso   1.00
C1199  C     0.91216   0.24811   0.83713   0.00000  Uiso   1.00
H1200  H     0.95351   0.16678   0.88424   0.00000  Uiso   1.00
H1201  H     0.91489   0.20662   0.96683   0.00000  Uiso   1.00
H1202  H     0.87020   0.27086   0.96770   0.00000  Uiso   1.00
H1203  H     0.87020   0.29838   0.88439   0.00000  Uiso   1.00
H1204  H     0.91531   0.26255   0.80212   0.00000  Uiso   1.00
C1205  C     0.72966   0.10790   0.68176   0.00000  Uiso   1.00
C1206  C     0.75296   0.11372   0.62956   0.00000  Uiso   1.00
C1207  C     0.77737   0.08118   0.59597   0.00000  Uiso   1.00
C1208  C     0.77724   0.04215   0.61394   0.00000  Uiso   1.00
C1209  C     0.75340   0.03576   0.66575   0.00000  Uiso   1.00
C1210  C     0.72902   0.06836   0.69940   0.00000  Uiso   1.00
H1211  H     0.75155   0.14328   0.61499   0.00000  Uiso   1.00
H1212  H     0.79465   0.08569   0.55554   0.00000  Uiso   1.00
H1213  H     0.79433   0.01664   0.58722   0.00000  Uiso   1.00
H1214  H     0.75304   0.00541   0.67950   0.00000  Uiso   1.00
H1215  H     0.70933   0.06278   0.73901   0.00000  Uiso   1.00
O1216  O     0.90297   0.06882   0.92972   0.00000  Uiso   1.00
H1217  H     0.88577   0.04920   0.91114   0.00000  Uiso   1.00
O1218  O     0.82951   0.21793   0.57860   0.00000  Uiso   1.00
H1219  H     0.83961   0.22932   0.60914   0.00000  Uiso   1.00
O1220  O     0.72914   0.21922   0.90013   0.00000  Uiso   1.00
H1221  H     0.70383   0.23809   0.92257   0.00000  Uiso   1.00
O1222  O     0.75075   0.20165   0.56703   0.00000  Uiso   1.00
H1223  H     0.73006   0.22655   0.57509   0.00000  Uiso   1.00
O1224  O     0.84385   0.09768   0.87163   0.00000  Uiso   1.00
H1225  H     0.87660   0.08694   0.85285   0.00000  Uiso   1.00
C1226  C     0.92437   0.29001   0.70271   0.00000  Uiso   1.00
C1227  C     0.93261   0.25905   0.66184   0.00000  Uiso   1.00
C1228  C     0.97532   0.23595   0.64839   0.00000  Uiso   1.00
C1229  C     0.67743   0.24492   0.67404   0.00000  Uiso   1.00
C1230  C     0.67113   0.27795   0.71158   0.00000  Uiso   1.00
C1231  C     0.96165   0.30075   0.72550   0.00000  Uiso   1.00
H1232  H     0.90497   0.25143   0.64264   0.00000  Uiso   1.00
H1233  H     0.98035   0.21049   0.61895   0.00000  Uiso   1.00
H1234  H     0.70975   0.22622   0.66525   0.00000  Uiso   1.00
H1235  H     0.69877   0.28509   0.73103   0.00000  Uiso   1.00
H1236  H     0.95637   0.32533   0.75617   0.00000  Uiso   1.00
O1237  O     0.12708   0.56011   0.75000   0.00000  Uiso   1.00
O1238  O     0.20627   0.56012   0.75000   0.00000  Uiso   1.00
C1239  C     0.16676   0.57933   0.75192   0.00000  Uiso   1.00
O1240  O     0.10775   0.49998   0.82549   0.00000  Uiso   1.00
O1241  O     0.18694   0.49999   0.82549   0.00000  Uiso   1.00
C1242  C     0.14067   0.50102   0.84981   0.00000  Uiso   1.00
Cu1243 Cu    0.11978   0.49999   0.75000   0.00000  Uiso   1.00
Cu1244 Cu    0.21355   0.50001   0.75000   0.00000  Uiso   1.00
O1245  O     0.12706   0.43988   0.74999   0.00000  Uiso   1.00
O1246  O     0.20625   0.43989   0.74999   0.00000  Uiso   1.00
O1247  O     0.14640   0.50001   0.67451   0.00000  Uiso   1.00
O1248  O     0.22559   0.50002   0.67451   0.00000  Uiso   1.00
C1249  C     0.16716   0.42072   0.74660   0.00000  Uiso   1.00
C1250  C     0.19257   0.49950   0.65000   0.00000  Uiso   1.00
C1251  C     0.24517   0.44850   0.51663   0.00000  Uiso   1.00
H1252  H     0.27305   0.42601   0.99764   0.00000  Uiso   1.00
C1253  C     0.20703   0.49304   0.59272   0.00000  Uiso   1.00
C1254  C     0.08673   0.53429   0.93024   0.00000  Uiso   1.00
C1255  C     0.07413   0.54347   0.98368   0.00000  Uiso   1.00
C1256  C     0.10104   0.52812   0.51397   0.00000  Uiso   1.00
C1257  C     0.14208   0.50244   0.99034   0.00000  Uiso   1.00
C1258  C     0.14891   0.48679   0.93780   0.00000  Uiso   1.00
C1259  C     0.17613   0.49105   0.51667   0.00000  Uiso   1.00
C1260  C     0.21007   0.45911   0.99296   0.00000  Uiso   1.00
C1261  C     0.20867   0.43752   0.94628   0.00000  Uiso   1.00
C1262  C     0.17919   0.45201   0.91765   0.00000  Uiso   1.00
C1263  C     0.17981   0.51141   0.56427   0.00000  Uiso   1.00
C1264  C     0.24315   0.46423   0.56652   0.00000  Uiso   1.00
C1265  C     0.12449   0.50610   0.90690   0.00000  Uiso   1.00
H1266  H     0.04309   0.56310   0.50206   0.00000  Uiso   1.00
C1267  C     0.20987   0.64430   0.72379   0.00000  Uiso   1.00
C1268  C     0.20701   0.35247   0.71535   0.00000  Uiso   1.00
C1269  C     0.16683   0.37597   0.74519   0.00000  Uiso   1.00
C1270  C     0.12726   0.35682   0.77783   0.00000  Uiso   1.00
H1271  H     0.09650   0.37492   0.80127   0.00000  Uiso   1.00
C1272  C     0.12689   0.64789   0.78153   0.00000  Uiso   1.00
C1273  C     0.16812   0.62431   0.75328   0.00000  Uiso   1.00
C1274  C     0.30022   0.52341   0.78745   0.00000  Uiso   1.00
C1275  C     0.01673   0.52469   0.78512   0.00000  Uiso   1.00
H1276  H     0.02894   0.54389   0.81365   0.00000  Uiso   1.00
N1277  N     0.04931   0.49999   0.74998   0.00000  Uiso   1.00
C1278  C     0.03264   0.47418   0.71543   0.00000  Uiso   1.00
C1279  C     0.31715   0.47602   0.71403   0.00000  Uiso   1.00
H1280  H     0.30535   0.45687   0.68540   0.00000  Uiso   1.00
N1281  N     0.28402   0.50002   0.74999   0.00000  Uiso   1.00
O1282  O     0.27736   0.45101   0.58813   0.00000  Uiso   1.00
H1283  H     0.26001   0.44297   0.62312   0.00000  Uiso   1.00
C1284  C     0.23810   0.36507   0.66507   0.00000  Uiso   1.00
C1285  C     0.22364   0.35276   0.62049   0.00000  Uiso   1.00
C1286  C     0.25633   0.35253   0.57098   0.00000  Uiso   1.00
C1287  C     0.30440   0.36354   0.56557   0.00000  Uiso   1.00
C1288  C     0.31927   0.37542   0.60966   0.00000  Uiso   1.00
C1289  C     0.28642   0.37624   0.65933   0.00000  Uiso   1.00
H1290  H     0.18816   0.33982   0.62463   0.00000  Uiso   1.00
H1291  H     0.24479   0.34250   0.53705   0.00000  Uiso   1.00
H1292  H     0.33009   0.36296   0.52733   0.00000  Uiso   1.00
H1293  H     0.02286   0.38404   0.60507   0.00000  Uiso   1.00
H1294  H     0.29899   0.38353   0.69324   0.00000  Uiso   1.00
O1295  O     0.08660   0.63141   0.81504   0.00000  Uiso   1.00
H1296  H     0.09623   0.60615   0.82769   0.00000  Uiso   1.00
C1297  C     0.26776   0.54337   0.83604   0.00000  Uiso   1.00
C1298  C     0.26774   0.52829   0.88367   0.00000  Uiso   1.00
C1299  C     0.24565   0.55065   0.93072   0.00000  Uiso   1.00
C1300  C     0.22119   0.58723   0.93116   0.00000  Uiso   1.00
C1301  C     0.22100   0.60259   0.88428   0.00000  Uiso   1.00
C1302  C     0.24549   0.58144   0.83713   0.00000  Uiso   1.00
H1303  H     0.28684   0.50011   0.88424   0.00000  Uiso   1.00
H1304  H     0.24822   0.53995   0.96683   0.00000  Uiso   1.00
H1305  H     0.20354   0.60419   0.96770   0.00000  Uiso   1.00
H1306  H     0.20353   0.63172   0.88439   0.00000  Uiso   1.00
H1307  H     0.24864   0.59588   0.80212   0.00000  Uiso   1.00
C1308  C     0.06299   0.44123   0.68176   0.00000  Uiso   1.00
C1309  C     0.08630   0.44705   0.62956   0.00000  Uiso   1.00
C1310  C     0.11071   0.41451   0.59597   0.00000  Uiso   1.00
C1311  C     0.11057   0.37548   0.61394   0.00000  Uiso   1.00
C1312  C     0.08673   0.36909   0.66575   0.00000  Uiso   1.00
C1313  C     0.06236   0.40170   0.69940   0.00000  Uiso   1.00
H1314  H     0.08489   0.47662   0.61499   0.00000  Uiso   1.00
H1315  H     0.12799   0.41902   0.55554   0.00000  Uiso   1.00
H1316  H     0.12766   0.34997   0.58722   0.00000  Uiso   1.00
H1317  H     0.08637   0.33874   0.67950   0.00000  Uiso   1.00
H1318  H     0.04267   0.39611   0.73901   0.00000  Uiso   1.00
O1319  O     0.23630   0.40215   0.92972   0.00000  Uiso   1.00
H1320  H     0.21910   0.38254   0.91114   0.00000  Uiso   1.00
O1321  O     0.16285   0.55126   0.57860   0.00000  Uiso   1.00
H1322  H     0.17294   0.56266   0.60914   0.00000  Uiso   1.00
O1323  O     0.06248   0.55255   0.90013   0.00000  Uiso   1.00
H1324  H     0.03716   0.57143   0.92257   0.00000  Uiso   1.00
O1325  O     0.08408   0.53498   0.56703   0.00000  Uiso   1.00
H1326  H     0.06339   0.55989   0.57509   0.00000  Uiso   1.00
O1327  O     0.17719   0.43101   0.87163   0.00000  Uiso   1.00
H1328  H     0.20993   0.42028   0.85285   0.00000  Uiso   1.00
C1329  C     0.25770   0.62335   0.70271   0.00000  Uiso   1.00
C1330  C     0.26594   0.59239   0.66184   0.00000  Uiso   1.00
C1331  C     0.30865   0.56928   0.64839   0.00000  Uiso   1.00
C1332  C     0.01077   0.57825   0.67404   0.00000  Uiso   1.00
C1333  C     0.00447   0.61129   0.71158   0.00000  Uiso   1.00
C1334  C     0.29498   0.63408   0.72550   0.00000  Uiso   1.00
H1335  H     0.23830   0.58476   0.64264   0.00000  Uiso   1.00
H1336  H     0.31368   0.54383   0.61895   0.00000  Uiso   1.00
H1337  H     0.04308   0.55955   0.66525   0.00000  Uiso   1.00
H1338  H     0.03210   0.61842   0.73103   0.00000  Uiso   1.00
H1339  H     0.28970   0.65866   0.75617   0.00000  Uiso   1.00
O1340  O     0.46042   0.56011   0.75000   0.00000  Uiso   1.00
O1341  O     0.53961   0.56012   0.75000   0.00000  Uiso   1.00
C1342  C     0.50010   0.57933   0.75192   0.00000  Uiso   1.00
O1343  O     0.44108   0.49998   0.82549   0.00000  Uiso   1.00
O1344  O     0.52027   0.49999   0.82549   0.00000  Uiso   1.00
C1345  C     0.47401   0.50102   0.84981   0.00000  Uiso   1.00
Cu1346 Cu    0.45311   0.49999   0.75000   0.00000  Uiso   1.00
Cu1347 Cu    0.54689   0.50001   0.75000   0.00000  Uiso   1.00
O1348  O     0.46039   0.43988   0.74999   0.00000  Uiso   1.00
O1349  O     0.53958   0.43989   0.74999   0.00000  Uiso   1.00
O1350  O     0.47973   0.50001   0.67451   0.00000  Uiso   1.00
O1351  O     0.55892   0.50002   0.67451   0.00000  Uiso   1.00
C1352  C     0.50050   0.42072   0.74660   0.00000  Uiso   1.00
C1353  C     0.52590   0.49950   0.65000   0.00000  Uiso   1.00
C1354  C     0.57851   0.44850   0.51663   0.00000  Uiso   1.00
H1355  H     0.60638   0.42601   0.99764   0.00000  Uiso   1.00
C1356  C     0.54036   0.49304   0.59272   0.00000  Uiso   1.00
C1357  C     0.42006   0.53429   0.93024   0.00000  Uiso   1.00
C1358  C     0.40746   0.54347   0.98368   0.00000  Uiso   1.00
C1359  C     0.43437   0.52812   0.51397   0.00000  Uiso   1.00
C1360  C     0.47541   0.50244   0.99034   0.00000  Uiso   1.00
C1361  C     0.48225   0.48679   0.93780   0.00000  Uiso   1.00
C1362  C     0.50946   0.49105   0.51667   0.00000  Uiso   1.00
C1363  C     0.54341   0.45911   0.99296   0.00000  Uiso   1.00
C1364  C     0.54201   0.43752   0.94628   0.00000  Uiso   1.00
C1365  C     0.51252   0.45201   0.91765   0.00000  Uiso   1.00
C1366  C     0.51314   0.51141   0.56427   0.00000  Uiso   1.00
C1367  C     0.57648   0.46423   0.56652   0.00000  Uiso   1.00
C1368  C     0.45782   0.50610   0.90690   0.00000  Uiso   1.00
H1369  H     0.37643   0.56310   0.50206   0.00000  Uiso   1.00
C1370  C     0.54321   0.64430   0.72379   0.00000  Uiso   1.00
C1371  C     0.54035   0.35247   0.71535   0.00000  Uiso   1.00
C1372  C     0.50016   0.37597   0.74519   0.00000  Uiso   1.00
C1373  C     0.46059   0.35682   0.77783   0.00000  Uiso   1.00
H1374  H     0.42984   0.37492   0.80127   0.00000  Uiso   1.00
C1375  C     0.46023   0.64789   0.78153   0.00000  Uiso   1.00
C1376  C     0.50145   0.62431   0.75328   0.00000  Uiso   1.00
C1377  C     0.63355   0.52341   0.78745   0.00000  Uiso   1.00
C1378  C     0.35006   0.52469   0.78512   0.00000  Uiso   1.00
H1379  H     0.36227   0.54389   0.81365   0.00000  Uiso   1.00
N1380  N     0.38265   0.49999   0.74998   0.00000  Uiso   1.00
C1381  C     0.36598   0.47418   0.71543   0.00000  Uiso   1.00
C1382  C     0.65048   0.47602   0.71403   0.00000  Uiso   1.00
H1383  H     0.63868   0.45687   0.68540   0.00000  Uiso   1.00
N1384  N     0.61735   0.50002   0.74999   0.00000  Uiso   1.00
O1385  O     0.61069   0.45101   0.58813   0.00000  Uiso   1.00
H1386  H     0.59334   0.44297   0.62312   0.00000  Uiso   1.00
C1387  C     0.57143   0.36507   0.66507   0.00000  Uiso   1.00
C1388  C     0.55697   0.35276   0.62049   0.00000  Uiso   1.00
C1389  C     0.58967   0.35253   0.57098   0.00000  Uiso   1.00
C1390  C     0.63774   0.36354   0.56557   0.00000  Uiso   1.00
C1391  C     0.65261   0.37542   0.60966   0.00000  Uiso   1.00
C1392  C     0.61976   0.37624   0.65933   0.00000  Uiso   1.00
H1393  H     0.52149   0.33982   0.62463   0.00000  Uiso   1.00
H1394  H     0.57812   0.34250   0.53705   0.00000  Uiso   1.00
H1395  H     0.66342   0.36296   0.52733   0.00000  Uiso   1.00
H1396  H     0.35620   0.38404   0.60507   0.00000  Uiso   1.00
H1397  H     0.63233   0.38353   0.69324   0.00000  Uiso   1.00
O1398  O     0.41993   0.63141   0.81504   0.00000  Uiso   1.00
H1399  H     0.42956   0.60615   0.82769   0.00000  Uiso   1.00
C1400  C     0.60109   0.54337   0.83604   0.00000  Uiso   1.00
C1401  C     0.60107   0.52829   0.88367   0.00000  Uiso   1.00
C1402  C     0.57898   0.55065   0.93072   0.00000  Uiso   1.00
C1403  C     0.55452   0.58723   0.93116   0.00000  Uiso   1.00
C1404  C     0.55434   0.60259   0.88428   0.00000  Uiso   1.00
C1405  C     0.57883   0.58144   0.83713   0.00000  Uiso   1.00
H1406  H     0.62018   0.50011   0.88424   0.00000  Uiso   1.00
H1407  H     0.58155   0.53995   0.96683   0.00000  Uiso   1.00
H1408  H     0.53687   0.60419   0.96770   0.00000  Uiso   1.00
H1409  H     0.53686   0.63172   0.88439   0.00000  Uiso   1.00
H1410  H     0.58197   0.59588   0.80212   0.00000  Uiso   1.00
C1411  C     0.39633   0.44123   0.68176   0.00000  Uiso   1.00
C1412  C     0.41963   0.44705   0.62956   0.00000  Uiso   1.00
C1413  C     0.44404   0.41451   0.59597   0.00000  Uiso   1.00
C1414  C     0.44390   0.37548   0.61394   0.00000  Uiso   1.00
C1415  C     0.42007   0.36909   0.66575   0.00000  Uiso   1.00
C1416  C     0.39569   0.40170   0.69940   0.00000  Uiso   1.00
H1417  H     0.41822   0.47662   0.61499   0.00000  Uiso   1.00
H1418  H     0.46132   0.41902   0.55554   0.00000  Uiso   1.00
H1419  H     0.46099   0.34997   0.58722   0.00000  Uiso   1.00
H1420  H     0.41970   0.33874   0.67950   0.00000  Uiso   1.00
H1421  H     0.37600   0.39611   0.73901   0.00000  Uiso   1.00
O1422  O     0.56963   0.40215   0.92972   0.00000  Uiso   1.00
H1423  H     0.55244   0.38254   0.91114   0.00000  Uiso   1.00
O1424  O     0.49618   0.55126   0.57860   0.00000  Uiso   1.00
H1425  H     0.50628   0.56266   0.60914   0.00000  Uiso   1.00
O1426  O     0.39581   0.55255   0.90013   0.00000  Uiso   1.00
H1427  H     0.37049   0.57143   0.92257   0.00000  Uiso   1.00
O1428  O     0.41742   0.53498   0.56703   0.00000  Uiso   1.00
H1429  H     0.39673   0.55989   0.57509   0.00000  Uiso   1.00
O1430  O     0.51052   0.43101   0.87163   0.00000  Uiso   1.00
H1431  H     0.54326   0.42028   0.85285   0.00000  Uiso   1.00
C1432  C     0.59104   0.62335   0.70271   0.00000  Uiso   1.00
C1433  C     0.59928   0.59239   0.66184   0.00000  Uiso   1.00
C1434  C     0.64199   0.56928   0.64839   0.00000  Uiso   1.00
C1435  C     0.34410   0.57825   0.67404   0.00000  Uiso   1.00
C1436  C     0.33780   0.61129   0.71158   0.00000  Uiso   1.00
C1437  C     0.62832   0.63408   0.72550   0.00000  Uiso   1.00
H1438  H     0.57163   0.58476   0.64264   0.00000  Uiso   1.00
H1439  H     0.64702   0.54383   0.61895   0.00000  Uiso   1.00
H1440  H     0.37641   0.55955   0.66525   0.00000  Uiso   1.00
H1441  H     0.36544   0.61842   0.73103   0.00000  Uiso   1.00
H1442  H     0.62303   0.65866   0.75617   0.00000  Uiso   1.00
O1443  O     0.79375   0.56011   0.75000   0.00000  Uiso   1.00
O1444  O     0.87294   0.56012   0.75000   0.00000  Uiso   1.00
C1445  C     0.83343   0.57933   0.75192   0.00000  Uiso   1.00
O1446  O     0.77441   0.49998   0.82549   0.00000  Uiso   1.00
O1447  O     0.85360   0.49999   0.82549   0.00000  Uiso   1.00
C1448  C     0.80734   0.50102   0.84981   0.00000  Uiso   1.00
Cu1449 Cu    0.78645   0.49999   0.75000   0.00000  Uiso   1.00
Cu1450 Cu    0.88022   0.50001   0.75000   0.00000  Uiso   1.00
O1451  O     0.79373   0.43988   0.74999   0.00000  Uiso   1.00
O1452  O     0.87292   0.43989   0.74999   0.00000  Uiso   1.00
O1453  O     0.81306   0.50001   0.67451   0.00000  Uiso   1.00
O1454  O     0.89225   0.50002   0.67451   0.00000  Uiso   1.00
C1455  C     0.83383   0.42072   0.74660   0.00000  Uiso   1.00
C1456  C     0.85924   0.49950   0.65000   0.00000  Uiso   1.00
C1457  C     0.91184   0.44850   0.51663   0.00000  Uiso   1.00
H1458  H     0.93972   0.42601   0.99764   0.00000  Uiso   1.00
C1459  C     0.87369   0.49304   0.59272   0.00000  Uiso   1.00
C1460  C     0.75339   0.53429   0.93024   0.00000  Uiso   1.00
C1461  C     0.74080   0.54347   0.98368   0.00000  Uiso   1.00
C1462  C     0.76770   0.52812   0.51397   0.00000  Uiso   1.00
C1463  C     0.80874   0.50244   0.99034   0.00000  Uiso   1.00
C1464  C     0.81558   0.48679   0.93780   0.00000  Uiso   1.00
C1465  C     0.84280   0.49105   0.51667   0.00000  Uiso   1.00
C1466  C     0.87674   0.45911   0.99296   0.00000  Uiso   1.00
C1467  C     0.87534   0.43752   0.94628   0.00000  Uiso   1.00
C1468  C     0.84585   0.45201   0.91765   0.00000  Uiso   1.00
C1469  C     0.84648   0.51141   0.56427   0.00000  Uiso   1.00
C1470  C     0.90981   0.46423   0.56652   0.00000  Uiso   1.00
C1471  C     0.79115   0.50610   0.90690   0.00000  Uiso   1.00
H1472  H     0.70976   0.56310   0.50206   0.00000  Uiso   1.00
C1473  C     0.87654   0.64430   0.72379   0.00000  Uiso   1.00
C1474  C     0.87368   0.35247   0.71535   0.00000  Uiso   1.00
C1475  C     0.83350   0.37597   0.74519   0.00000  Uiso   1.00
C1476  C     0.79392   0.35682   0.77783   0.00000  Uiso   1.00
H1477  H     0.76317   0.37492   0.80127   0.00000  Uiso   1.00
C1478  C     0.79356   0.64789   0.78153   0.00000  Uiso   1.00
C1479  C     0.83479   0.62431   0.75328   0.00000  Uiso   1.00
C1480  C     0.96689   0.52341   0.78745   0.00000  Uiso   1.00
C1481  C     0.68340   0.52469   0.78512   0.00000  Uiso   1.00
H1482  H     0.69561   0.54389   0.81365   0.00000  Uiso   1.00
N1483  N     0.71598   0.49999   0.74998   0.00000  Uiso   1.00
C1484  C     0.69931   0.47418   0.71543   0.00000  Uiso   1.00
C1485  C     0.98382   0.47602   0.71403   0.00000  Uiso   1.00
H1486  H     0.97202   0.45687   0.68540   0.00000  Uiso   1.00
N1487  N     0.95069   0.50002   0.74999   0.00000  Uiso   1.00
O1488  O     0.94403   0.45101   0.58813   0.00000  Uiso   1.00
H1489  H     0.92668   0.44297   0.62312   0.00000  Uiso   1.00
C1490  C     0.90476   0.36507   0.66507   0.00000  Uiso   1.00
C1491  C     0.89031   0.35276   0.62049   0.00000  Uiso   1.00
C1492  C     0.92300   0.35253   0.57098   0.00000  Uiso   1.00
C1493  C     0.97107   0.36354   0.56557   0.00000  Uiso   1.00
C1494  C     0.98594   0.37542   0.60966   0.00000  Uiso   1.00
C1495  C     0.95309   0.37624   0.65933   0.00000  Uiso   1.00
H1496  H     0.85482   0.33982   0.62463   0.00000  Uiso   1.00
H1497  H     0.91145   0.34250   0.53705   0.00000  Uiso   1.00
H1498  H     0.99675   0.36296   0.52733   0.00000  Uiso   1.00
H1499  H     0.68953   0.38404   0.60507   0.00000  Uiso   1.00
H1500  H     0.96566   0.38353   0.69324   0.00000  Uiso   1.00
O1501  O     0.75327   0.63141   0.81504   0.00000  Uiso   1.00
H1502  H     0.76289   0.60615   0.82769   0.00000  Uiso   1.00
C1503  C     0.93442   0.54337   0.83604   0.00000  Uiso   1.00
C1504  C     0.93441   0.52829   0.88367   0.00000  Uiso   1.00
C1505  C     0.91232   0.55065   0.93072   0.00000  Uiso   1.00
C1506  C     0.88785   0.58723   0.93116   0.00000  Uiso   1.00
C1507  C     0.88767   0.60259   0.88428   0.00000  Uiso   1.00
C1508  C     0.91216   0.58144   0.83713   0.00000  Uiso   1.00
H1509  H     0.95351   0.50011   0.88424   0.00000  Uiso   1.00
H1510  H     0.91489   0.53995   0.96683   0.00000  Uiso   1.00
H1511  H     0.87020   0.60419   0.96770   0.00000  Uiso   1.00
H1512  H     0.87020   0.63172   0.88439   0.00000  Uiso   1.00
H1513  H     0.91531   0.59588   0.80212   0.00000  Uiso   1.00
C1514  C     0.72966   0.44123   0.68176   0.00000  Uiso   1.00
C1515  C     0.75296   0.44705   0.62956   0.00000  Uiso   1.00
C1516  C     0.77737   0.41451   0.59597   0.00000  Uiso   1.00
C1517  C     0.77724   0.37548   0.61394   0.00000  Uiso   1.00
C1518  C     0.75340   0.36909   0.66575   0.00000  Uiso   1.00
C1519  C     0.72902   0.40170   0.69940   0.00000  Uiso   1.00
H1520  H     0.75155   0.47662   0.61499   0.00000  Uiso   1.00
H1521  H     0.79465   0.41902   0.55554   0.00000  Uiso   1.00
H1522  H     0.79433   0.34997   0.58722   0.00000  Uiso   1.00
H1523  H     0.75304   0.33874   0.67950   0.00000  Uiso   1.00
H1524  H     0.70933   0.39611   0.73901   0.00000  Uiso   1.00
O1525  O     0.90297   0.40215   0.92972   0.00000  Uiso   1.00
H1526  H     0.88577   0.38254   0.91114   0.00000  Uiso   1.00
O1527  O     0.82951   0.55126   0.57860   0.00000  Uiso   1.00
H1528  H     0.83961   0.56266   0.60914   0.00000  Uiso   1.00
O1529  O     0.72914   0.55255   0.90013   0.00000  Uiso   1.00
H1530  H     0.70383   0.57143   0.92257   0.00000  Uiso   1.00
O1531  O     0.75075   0.53498   0.56703   0.00000  Uiso   1.00
H1532  H     0.73006   0.55989   0.57509   0.00000  Uiso   1.00
O1533  O     0.84385   0.43101   0.87163   0.00000  Uiso   1.00
H1534  H     0.87660   0.42028   0.85285   0.00000  Uiso   1.00
C1535  C     0.92437   0.62335   0.70271   0.00000  Uiso   1.00
C1536  C     0.93261   0.59239   0.66184   0.00000  Uiso   1.00
C1537  C     0.97532   0.56928   0.64839   0.00000  Uiso   1.00
C1538  C     0.67743   0.57825   0.67404   0.00000  Uiso   1.00
C1539  C     0.67113   0.61129   0.71158   0.00000  Uiso   1.00
C1540  C     0.96165   0.63408   0.72550   0.00000  Uiso   1.00
H1541  H     0.90497   0.58476   0.64264   0.00000  Uiso   1.00
H1542  H     0.98035   0.54383   0.61895   0.00000  Uiso   1.00
H1543  H     0.70975   0.55955   0.66525   0.00000  Uiso   1.00
H1544  H     0.69877   0.61842   0.73103   0.00000  Uiso   1.00
H1545  H     0.95637   0.65866   0.75617   0.00000  Uiso   1.00
O1546  O     0.12708   0.89345   0.75000   0.00000  Uiso   1.00
O1547  O     0.20627   0.89346   0.75000   0.00000  Uiso   1.00
C1548  C     0.16676   0.91266   0.75192   0.00000  Uiso   1.00
O1549  O     0.10775   0.83332   0.82549   0.00000  Uiso   1.00
O1550  O     0.18694   0.83333   0.82549   0.00000  Uiso   1.00
C1551  C     0.14067   0.83436   0.84981   0.00000  Uiso   1.00
Cu1552 Cu    0.11978   0.83333   0.75000   0.00000  Uiso   1.00
Cu1553 Cu    0.21355   0.83334   0.75000   0.00000  Uiso   1.00
O1554  O     0.12706   0.77321   0.74999   0.00000  Uiso   1.00
O1555  O     0.20625   0.77322   0.74999   0.00000  Uiso   1.00
O1556  O     0.14640   0.83334   0.67451   0.00000  Uiso   1.00
O1557  O     0.22559   0.83335   0.67451   0.00000  Uiso   1.00
C1558  C     0.16716   0.75405   0.74660   0.00000  Uiso   1.00
C1559  C     0.19257   0.83284   0.65000   0.00000  Uiso   1.00
C1560  C     0.24517   0.78184   0.51663   0.00000  Uiso   1.00
H1561  H     0.27305   0.75934   0.99764   0.00000  Uiso   1.00
C1562  C     0.20703   0.82637   0.59272   0.00000  Uiso   1.00
C1563  C     0.08673   0.86762   0.93024   0.00000  Uiso   1.00
C1564  C     0.07413   0.87680   0.98368   0.00000  Uiso   1.00
C1565  C     0.10104   0.86146   0.51397   0.00000  Uiso   1.00
C1566  C     0.14208   0.83577   0.99034   0.00000  Uiso   1.00
C1567  C     0.14891   0.82012   0.93780   0.00000  Uiso   1.00
C1568  C     0.17613   0.82439   0.51667   0.00000  Uiso   1.00
C1569  C     0.21007   0.79244   0.99296   0.00000  Uiso   1.00
C1570  C     0.20867   0.77085   0.94628   0.00000  Uiso   1.00
C1571  C     0.17919   0.78534   0.91765   0.00000  Uiso   1.00
C1572  C     0.17981   0.84474   0.56427   0.00000  Uiso   1.00
C1573  C     0.24315   0.79756   0.56652   0.00000  Uiso   1.00
C1574  C     0.12449   0.83943   0.90690   0.00000  Uiso   1.00
H1575  H     0.04309   0.89643   0.50206   0.00000  Uiso   1.00
C1576  C     0.20987   0.97763   0.72379   0.00000  Uiso   1.00
C1577  C     0.20701   0.68580   0.71535   0.00000  Uiso   1.00
C1578  C     0.16683   0.70931   0.74519   0.00000  Uiso   1.00
C1579  C     0.12726   0.69015   0.77783   0.00000  Uiso   1.00
H1580  H     0.09650   0.70825   0.80127   0.00000  Uiso   1.00
C1581  C     0.12689   0.98123   0.78153   0.00000  Uiso   1.00
C1582  C     0.16812   0.95764   0.75328   0.00000  Uiso   1.00
C1583  C     0.30022   0.85674   0.78745   0.00000  Uiso   1.00
C1584  C     0.01673   0.85803   0.78512   0.00000  Uiso   1.00
H1585  H     0.02894   0.87722   0.81365   0.00000  Uiso   1.00
N1586  N     0.04931   0.83332   0.74998   0.00000  Uiso   1.00
C1587  C     0.03264   0.80752   0.71543   0.00000  Uiso   1.00
C1588  C     0.31715   0.80936   0.71403   0.00000  Uiso   1.00
H1589  H     0.30535   0.79020   0.68540   0.00000  Uiso   1.00
N1590  N     0.28402   0.83335   0.74999   0.00000  Uiso   1.00
O1591  O     0.27736   0.78434   0.58813   0.00000  Uiso   1.00
H1592  H     0.26001   0.77631   0.62312   0.00000  Uiso   1.00
C1593  C     0.23810   0.69841   0.66507   0.00000  Uiso   1.00
C1594  C     0.22364   0.68609   0.62049   0.00000  Uiso   1.00
C1595  C     0.25633   0.68586   0.57098   0.00000  Uiso   1.00
C1596  C     0.30440   0.69687   0.56557   0.00000  Uiso   1.00
C1597  C     0.31927   0.70876   0.60966   0.00000  Uiso   1.00
C1598  C     0.28642   0.70958   0.65933   0.00000  Uiso   1.00
H1599  H     0.18816   0.67315   0.62463   0.00000  Uiso   1.00
H1600  H     0.24479   0.67583   0.53705   0.00000  Uiso   1.00
H1601  H     0.33009   0.69630   0.52733   0.00000  Uiso   1.00
H1602  H     0.02286   0.71737   0.60507   0.00000  Uiso   1.00
H1603  H     0.29899   0.71687   0.69324   0.00000  Uiso   1.00
O1604  O     0.08660   0.96475   0.81504   0.00000  Uiso   1.00
H1605  H     0.09623   0.93948   0.82769   0.00000  Uiso   1.00
C1606  C     0.26776   0.87670   0.83604   0.00000  Uiso   1.00
C1607  C     0.26774   0.86163   0.88367   0.00000  Uiso   1.00
C1608  C     0.24565   0.88399   0.93072   0.00000  Uiso   1.00
C1609  C     0.22119   0.92057   0.93116   0.00000  Uiso   1.00
C1610  C     0.22100   0.93593   0.88428   0.00000  Uiso   1.00
C1611  C     0.24549   0.91478   0.83713   0.00000  Uiso   1.00
H1612  H     0.28684   0.83344   0.88424   0.00000  Uiso   1.00
H1613  H     0.24822   0.87329   0.96683   0.00000  Uiso   1.00
H1614  H     0.20354   0.93753   0.96770   0.00000  Uiso   1.00
H1615  H     0.20353   0.96505   0.88439   0.00000  Uiso   1.00
H1616  H     0.24864   0.92922   0.80212   0.00000  Uiso   1.00
C1617  C     0.06299   0.77457   0.68176   0.00000  Uiso   1.00
C1618  C     0.08630   0.78038   0.62956   0.00000  Uiso   1.00
C1619  C     0.11071   0.74784   0.59597   0.00000  Uiso   1.00
C1620  C     0.11057   0.70882   0.61394   0.00000  Uiso   1.00
C1621  C     0.08673   0.70243   0.66575   0.00000  Uiso   1.00
C1622  C     0.06236   0.73503   0.69940   0.00000  Uiso   1.00
H1623  H     0.08489   0.80995   0.61499   0.00000  Uiso   1.00
H1624  H     0.12799   0.75235   0.55554   0.00000  Uiso   1.00
H1625  H     0.12766   0.68331   0.58722   0.00000  Uiso   1.00
H1626  H     0.08637   0.67207   0.67950   0.00000  Uiso   1.00
H1627  H     0.04267   0.72944   0.73901   0.00000  Uiso   1.00
O1628  O     0.23630   0.73548   0.92972   0.00000  Uiso   1.00
H1629  H     0.21910   0.71587   0.91114   0.00000  Uiso   1.00
O1630  O     0.16285   0.88460   0.57860   0.00000  Uiso   1.00
H1631  H     0.17294   0.89599   0.60914   0.00000  Uiso   1.00
O1632  O     0.06248   0.88589   0.90013   0.00000  Uiso   1.00
H1633  H     0.03716   0.90476   0.92257   0.00000  Uiso   1.00
O1634  O     0.08408   0.86832   0.56703   0.00000  Uiso   1.00
H1635  H     0.06339   0.89322   0.57509   0.00000  Uiso   1.00
O1636  O     0.17719   0.76434   0.87163   0.00000  Uiso   1.00
H1637  H     0.20993   0.75361   0.85285   0.00000  Uiso   1.00
C1638  C     0.25770   0.95668   0.70271   0.00000  Uiso   1.00
C1639  C     0.26594   0.92572   0.66184   0.00000  Uiso   1.00
C1640  C     0.30865   0.90262   0.64839   0.00000  Uiso   1.00
C1641  C     0.01077   0.91158   0.67404   0.00000  Uiso   1.00
C1642  C     0.00447   0.94462   0.71158   0.00000  Uiso   1.00
C1643  C     0.29498   0.96742   0.72550   0.00000  Uiso   1.00
H1644  H     0.23830   0.91809   0.64264   0.00000  Uiso   1.00
H1645  H     0.31368   0.87716   0.61895   0.00000  Uiso   1.00
H1646  H     0.04308   0.89288   0.66525   0.00000  Uiso   1.00
H1647  H     0.03210   0.95175   0.73103   0.00000  Uiso   1.00
H1648  H     0.28970   0.99200   0.75617   0.00000  Uiso   1.00
O1649  O     0.46042   0.89345   0.75000   0.00000  Uiso   1.00
O1650  O     0.53961   0.89346   0.75000   0.00000  Uiso   1.00
C1651  C     0.50010   0.91266   0.75192   0.00000  Uiso   1.00
O1652  O     0.44108   0.83332   0.82549   0.00000  Uiso   1.00
O1653  O     0.52027   0.83333   0.82549   0.00000  Uiso   1.00
C1654  C     0.47401   0.83436   0.84981   0.00000  Uiso   1.00
Cu1655 Cu    0.45311   0.83333   0.75000   0.00000  Uiso   1.00
Cu1656 Cu    0.54689   0.83334   0.75000   0.00000  Uiso   1.00
O1657  O     0.46039   0.77321   0.74999   0.00000  Uiso   1.00
O1658  O     0.53958   0.77322   0.74999   0.00000  Uiso   1.00
O1659  O     0.47973   0.83334   0.67451   0.00000  Uiso   1.00
O1660  O     0.55892   0.83335   0.67451   0.00000  Uiso   1.00
C1661  C     0.50050   0.75405   0.74660   0.00000  Uiso   1.00
C1662  C     0.52590   0.83284   0.65000   0.00000  Uiso   1.00
C1663  C     0.57851   0.78184   0.51663   0.00000  Uiso   1.00
H1664  H     0.60638   0.75934   0.99764   0.00000  Uiso   1.00
C1665  C     0.54036   0.82637   0.59272   0.00000  Uiso   1.00
C1666  C     0.42006   0.86762   0.93024   0.00000  Uiso   1.00
C1667  C     0.40746   0.87680   0.98368   0.00000  Uiso   1.00
C1668  C     0.43437   0.86146   0.51397   0.00000  Uiso   1.00
C1669  C     0.47541   0.83577   0.99034   0.00000  Uiso   1.00
C1670  C     0.48225   0.82012   0.93780   0.00000  Uiso   1.00
C1671  C     0.50946   0.82439   0.51667   0.00000  Uiso   1.00
C1672  C     0.54341   0.79244   0.99296   0.00000  Uiso   1.00
C1673  C     0.54201   0.77085   0.94628   0.00000  Uiso   1.00
C1674  C     0.51252   0.78534   0.91765   0.00000  Uiso   1.00
C1675  C     0.51314   0.84474   0.56427   0.00000  Uiso   1.00
C1676  C     0.57648   0.79756   0.56652   0.00000  Uiso   1.00
C1677  C     0.45782   0.83943   0.90690   0.00000  Uiso   1.00
H1678  H     0.37643   0.89643   0.50206   0.00000  Uiso   1.00
C1679  C     0.54321   0.97763   0.72379   0.00000  Uiso   1.00
C1680  C     0.54035   0.68580   0.71535   0.00000  Uiso   1.00
C1681  C     0.50016   0.70931   0.74519   0.00000  Uiso   1.00
C1682  C     0.46059   0.69015   0.77783   0.00000  Uiso   1.00
H1683  H     0.42984   0.70825   0.80127   0.00000  Uiso   1.00
C1684  C     0.46023   0.98123   0.78153   0.00000  Uiso   1.00
C1685  C     0.50145   0.95764   0.75328   0.00000  Uiso   1.00
C1686  C     0.63355   0.85674   0.78745   0.00000  Uiso   1.00
C1687  C     0.35006   0.85803   0.78512   0.00000  Uiso   1.00
H1688  H     0.36227   0.87722   0.81365   0.00000  Uiso   1.00
N1689  N     0.38265   0.83332   0.74998   0.00000  Uiso   1.00
C1690  C     0.36598   0.80752   0.71543   0.00000  Uiso   1.00
C1691  C     0.65048   0.80936   0.71403   0.00000  Uiso   1.00
H1692  H     0.63868   0.79020   0.68540   0.00000  Uiso   1.00
N1693  N     0.61735   0.83335   0.74999   0.00000  Uiso   1.00
O1694  O     0.61069   0.78434   0.58813   0.00000  Uiso   1.00
H1695  H     0.59334   0.77631   0.62312   0.00000  Uiso   1.00
C1696  C     0.57143   0.69841   0.66507   0.00000  Uiso   1.00
C1697  C     0.55697   0.68609   0.62049   0.00000  Uiso   1.00
C1698  C     0.58967   0.68586   0.57098   0.00000  Uiso   1.00
C1699  C     0.63774   0.69687   0.56557   0.00000  Uiso   1.00
C1700  C     0.65261   0.70876   0.60966   0.00000  Uiso   1.00
C1701  C     0.61976   0.70958   0.65933   0.00000  Uiso   1.00
H1702  H     0.52149   0.67315   0.62463   0.00000  Uiso   1.00
H1703  H     0.57812   0.67583   0.53705   0.00000  Uiso   1.00
H1704  H     0.66342   0.69630   0.52733   0.00000  Uiso   1.00
H1705  H     0.35620   0.71737   0.60507   0.00000  Uiso   1.00
H1706  H     0.63233   0.71687   0.69324   0.00000  Uiso   1.00
O1707  O     0.41993   0.96475   0.81504   0.00000  Uiso   1.00
H1708  H     0.42956   0.93948   0.82769   0.00000  Uiso   1.00
C1709  C     0.60109   0.87670   0.83604   0.00000  Uiso   1.00
C1710  C     0.60107   0.86163   0.88367   0.00000  Uiso   1.00
C1711  C     0.57898   0.88399   0.93072   0.00000  Uiso   1.00
C1712  C     0.55452   0.92057   0.93116   0.00000  Uiso   1.00
C1713  C     0.55434   0.93593   0.88428   0.00000  Uiso   1.00
C1714  C     0.57883   0.91478   0.83713   0.00000  Uiso   1.00
H1715  H     0.62018   0.83344   0.88424   0.00000  Uiso   1.00
H1716  H     0.58155   0.87329   0.96683   0.00000  Uiso   1.00
H1717  H     0.53687   0.93753   0.96770   0.00000  Uiso   1.00
H1718  H     0.53686   0.96505   0.88439   0.00000  Uiso   1.00
H1719  H     0.58197   0.92922   0.80212   0.00000  Uiso   1.00
C1720  C     0.39633   0.77457   0.68176   0.00000  Uiso   1.00
C1721  C     0.41963   0.78038   0.62956   0.00000  Uiso   1.00
C1722  C     0.44404   0.74784   0.59597   0.00000  Uiso   1.00
C1723  C     0.44390   0.70882   0.61394   0.00000  Uiso   1.00
C1724  C     0.42007   0.70243   0.66575   0.00000  Uiso   1.00
C1725  C     0.39569   0.73503   0.69940   0.00000  Uiso   1.00
H1726  H     0.41822   0.80995   0.61499   0.00000  Uiso   1.00
H1727  H     0.46132   0.75235   0.55554   0.00000  Uiso   1.00
H1728  H     0.46099   0.68331   0.58722   0.00000  Uiso   1.00
H1729  H     0.41970   0.67207   0.67950   0.00000  Uiso   1.00
H1730  H     0.37600   0.72944   0.73901   0.00000  Uiso   1.00
O1731  O     0.56963   0.73548   0.92972   0.00000  Uiso   1.00
H1732  H     0.55244   0.71587   0.91114   0.00000  Uiso   1.00
O1733  O     0.49618   0.88460   0.57860   0.00000  Uiso   1.00
H1734  H     0.50628   0.89599   0.60914   0.00000  Uiso   1.00
O1735  O     0.39581   0.88589   0.90013   0.00000  Uiso   1.00
H1736  H     0.37049   0.90476   0.92257   0.00000  Uiso   1.00
O1737  O     0.41742   0.86832   0.56703   0.00000  Uiso   1.00
H1738  H     0.39673   0.89322   0.57509   0.00000  Uiso   1.00
O1739  O     0.51052   0.76434   0.87163   0.00000  Uiso   1.00
H1740  H     0.54326   0.75361   0.85285   0.00000  Uiso   1.00
C1741  C     0.59104   0.95668   0.70271   0.00000  Uiso   1.00
C1742  C     0.59928   0.92572   0.66184   0.00000  Uiso   1.00
C1743  C     0.64199   0.90262   0.64839   0.00000  Uiso   1.00
C1744  C     0.34410   0.91158   0.67404   0.00000  Uiso   1.00
C1745  C     0.33780   0.94462   0.71158   0.00000  Uiso   1.00
C1746  C     0.62832   0.96742   0.72550   0.00000  Uiso   1.00
H1747  H     0.57163   0.91809   0.64264   0.00000  Uiso   1.00
H1748  H     0.64702   0.87716   0.61895   0.00000  Uiso   1.00
H1749  H     0.37641   0.89288   0.66525   0.00000  Uiso   1.00
H1750  H     0.36544   0.95175   0.73103   0.00000  Uiso   1.00
H1751  H     0.62303   0.99200   0.75617   0.00000  Uiso   1.00
O1752  O     0.79375   0.89345   0.75000   0.00000  Uiso   1.00
O1753  O     0.87294   0.89346   0.75000   0.00000  Uiso   1.00
C1754  C     0.83343   0.91266   0.75192   0.00000  Uiso   1.00
O1755  O     0.77441   0.83332   0.82549   0.00000  Uiso   1.00
O1756  O     0.85360   0.83333   0.82549   0.00000  Uiso   1.00
C1757  C     0.80734   0.83436   0.84981   0.00000  Uiso   1.00
Cu1758 Cu    0.78645   0.83333   0.75000   0.00000  Uiso   1.00
Cu1759 Cu    0.88022   0.83334   0.75000   0.00000  Uiso   1.00
O1760  O     0.79373   0.77321   0.74999   0.00000  Uiso   1.00
O1761  O     0.87292   0.77322   0.74999   0.00000  Uiso   1.00
O1762  O     0.81306   0.83334   0.67451   0.00000  Uiso   1.00
O1763  O     0.89225   0.83335   0.67451   0.00000  Uiso   1.00
C1764  C     0.83383   0.75405   0.74660   0.00000  Uiso   1.00
C1765  C     0.85924   0.83284   0.65000   0.00000  Uiso   1.00
C1766  C     0.91184   0.78184   0.51663   0.00000  Uiso   1.00
H1767  H     0.93972   0.75934   0.99764   0.00000  Uiso   1.00
C1768  C     0.87369   0.82637   0.59272   0.00000  Uiso   1.00
C1769  C     0.75339   0.86762   0.93024   0.00000  Uiso   1.00
C1770  C     0.74080   0.87680   0.98368   0.00000  Uiso   1.00
C1771  C     0.76770   0.86146   0.51397   0.00000  Uiso   1.00
C1772  C     0.80874   0.83577   0.99034   0.00000  Uiso   1.00
C1773  C     0.81558   0.82012   0.93780   0.00000  Uiso   1.00
C1774  C     0.84280   0.82439   0.51667   0.00000  Uiso   1.00
C1775  C     0.87674   0.79244   0.99296   0.00000  Uiso   1.00
C1776  C     0.87534   0.77085   0.94628   0.00000  Uiso   1.00
C1777  C     0.84585   0.78534   0.91765   0.00000  Uiso   1.00
C1778  C     0.84648   0.84474   0.56427   0.00000  Uiso   1.00
C1779  C     0.90981   0.79756   0.56652   0.00000  Uiso   1.00
C1780  C     0.79115   0.83943   0.90690   0.00000  Uiso   1.00
H1781  H     0.70976   0.89643   0.50206   0.00000  Uiso   1.00
C1782  C     0.87654   0.97763   0.72379   0.00000  Uiso   1.00
C1783  C     0.87368   0.68580   0.71535   0.00000  Uiso   1.00
C1784  C     0.83350   0.70931   0.74519   0.00000  Uiso   1.00
C1785  C     0.79392   0.69015   0.77783   0.00000  Uiso   1.00
H1786  H     0.76317   0.70825   0.80127   0.00000  Uiso   1.00
C1787  C     0.79356   0.98123   0.78153   0.00000  Uiso   1.00
C1788  C     0.83479   0.95764   0.75328   0.00000  Uiso   1.00
C1789  C     0.96689   0.85674   0.78745   0.00000  Uiso   1.00
C1790  C     0.68340   0.85803   0.78512   0.00000  Uiso   1.00
H1791  H     0.69561   0.87722   0.81365   0.00000  Uiso   1.00
N1792  N     0.71598   0.83332   0.74998   0.00000  Uiso   1.00
C1793  C     0.69931   0.80752   0.71543   0.00000  Uiso   1.00
C1794  C     0.98382   0.80936   0.71403   0.00000  Uiso   1.00
H1795  H     0.97202   0.79020   0.68540   0.00000  Uiso   1.00
N1796  N     0.95069   0.83335   0.74999   0.00000  Uiso   1.00
O1797  O     0.94403   0.78434   0.58813   0.00000  Uiso   1.00
H1798  H     0.92668   0.77631   0.62312   0.00000  Uiso   1.00
C1799  C     0.90476   0.69841   0.66507   0.00000  Uiso   1.00
C1800  C     0.89031   0.68609   0.62049   0.00000  Uiso   1.00
C1801  C     0.92300   0.68586   0.57098   0.00000  Uiso   1.00
C1802  C     0.97107   0.69687   0.56557   0.00000  Uiso   1.00
C1803  C     0.98594   0.70876   0.60966   0.00000  Uiso   1.00
C1804  C     0.95309   0.70958   0.65933   0.00000  Uiso   1.00
H1805  H     0.85482   0.67315   0.62463   0.00000  Uiso   1.00
H1806  H     0.91145   0.67583   0.53705   0.00000  Uiso   1.00
H1807  H     0.99675   0.69630   0.52733   0.00000  Uiso   1.00
H1808  H     0.68953   0.71737   0.60507   0.00000  Uiso   1.00
H1809  H     0.96566   0.71687   0.69324   0.00000  Uiso   1.00
O1810  O     0.75327   0.96475   0.81504   0.00000  Uiso   1.00
H1811  H     0.76289   0.93948   0.82769   0.00000  Uiso   1.00
C1812  C     0.93442   0.87670   0.83604   0.00000  Uiso   1.00
C1813  C     0.93441   0.86163   0.88367   0.00000  Uiso   1.00
C1814  C     0.91232   0.88399   0.93072   0.00000  Uiso   1.00
C1815  C     0.88785   0.92057   0.93116   0.00000  Uiso   1.00
C1816  C     0.88767   0.93593   0.88428   0.00000  Uiso   1.00
C1817  C     0.91216   0.91478   0.83713   0.00000  Uiso   1.00
H1818  H     0.95351   0.83344   0.88424   0.00000  Uiso   1.00
H1819  H     0.91489   0.87329   0.96683   0.00000  Uiso   1.00
H1820  H     0.87020   0.93753   0.96770   0.00000  Uiso   1.00
H1821  H     0.87020   0.96505   0.88439   0.00000  Uiso   1.00
H1822  H     0.91531   0.92922   0.80212   0.00000  Uiso   1.00
C1823  C     0.72966   0.77457   0.68176   0.00000  Uiso   1.00
C1824  C     0.75296   0.78038   0.62956   0.00000  Uiso   1.00
C1825  C     0.77737   0.74784   0.59597   0.00000  Uiso   1.00
C1826  C     0.77724   0.70882   0.61394   0.00000  Uiso   1.00
C1827  C     0.75340   0.70243   0.66575   0.00000  Uiso   1.00
C1828  C     0.72902   0.73503   0.69940   0.00000  Uiso   1.00
H1829  H     0.75155   0.80995   0.61499   0.00000  Uiso   1.00
H1830  H     0.79465   0.75235   0.55554   0.00000  Uiso   1.00
H1831  H     0.79433   0.68331   0.58722   0.00000  Uiso   1.00
H1832  H     0.75304   0.67207   0.67950   0.00000  Uiso   1.00
H1833  H     0.70933   0.72944   0.73901   0.00000  Uiso   1.00
O1834  O     0.90297   0.73548   0.92972   0.00000  Uiso   1.00
H1835  H     0.88577   0.71587   0.91114   0.00000  Uiso   1.00
O1836  O     0.82951   0.88460   0.57860   0.00000  Uiso   1.00
H1837  H     0.83961   0.89599   0.60914   0.00000  Uiso   1.00
O1838  O     0.72914   0.88589   0.90013   0.00000  Uiso   1.00
H1839  H     0.70383   0.90476   0.92257   0.00000  Uiso   1.00
O1840  O     0.75075   0.86832   0.56703   0.00000  Uiso   1.00
H1841  H     0.73006   0.89322   0.57509   0.00000  Uiso   1.00
O1842  O     0.84385   0.76434   0.87163   0.00000  Uiso   1.00
H1843  H     0.87660   0.75361   0.85285   0.00000  Uiso   1.00
C1844  C     0.92437   0.95668   0.70271   0.00000  Uiso   1.00
C1845  C     0.93261   0.92572   0.66184   0.00000  Uiso   1.00
C1846  C     0.97532   0.90262   0.64839   0.00000  Uiso   1.00
C1847  C     0.67743   0.91158   0.67404   0.00000  Uiso   1.00
C1848  C     0.67113   0.94462   0.71158   0.00000  Uiso   1.00
C1849  C     0.96165   0.96742   0.72550   0.00000  Uiso   1.00
H1850  H     0.90497   0.91809   0.64264   0.00000  Uiso   1.00
H1851  H     0.98035   0.87716   0.61895   0.00000  Uiso   1.00
H1852  H     0.70975   0.89288   0.66525   0.00000  Uiso   1.00
H1853  H     0.69877   0.95175   0.73103   0.00000  Uiso   1.00
H1854  H     0.95637   0.99200   0.75617   0.00000  Uiso   1.00
loop_
_geom_bond_atom_site_label_1
_geom_bond_atom_site_label_2
_geom_bond_distance
_geom_bond_site_symmetry_2
_ccdc_geom_bond_type
O1     C3      1.304   .     A
O1     Cu7     1.966   .     S
O2     Cu8     1.974   .     S
O2     C3      1.296   .     A
C3     C37     1.463   .     S
O4     Cu7     1.961   .     S
O4     C6      1.295   .     A
O5     C6      1.307   .     A
O5     Cu8     1.956   .     S
C6     C29     1.470   .     S
Cu7    Cu8     2.702   .     S
Cu7    O11     1.956   .     S
Cu7    O9      1.974   .     S
Cu7    N41     2.030   .     S
Cu8    N45     2.030   .     S
Cu8    O12     1.961   .     S
Cu8    O10     1.966   .     S
O9     C13     1.301   .     A
O10    C13     1.299   .     A
O11    C14     1.306   .     A
O12    C14     1.302   .     A
C13    C33     1.455   .     S
C14    C17     1.476   .     S
C15    C28     1.384   .     A
C15    H943    1.084   1_554 S
C15    C951    1.401   1_554 S
H16    C942    1.084   .     S
C17    C27     1.411   .     A
C17    C28     1.407   .     A
C18    C19     1.388   .     A
C18    C29     1.408   .     A
C18    O87     1.383   .     S
C19    C947    1.398   .     S
C19    H957    1.084   .     S
C20    O89     1.373   .     S
C20    C946    1.398   1_554 S
C20    C948    1.425   1_554 S
C21    C22     1.424   .     A
C21    C947    1.425   .     S
C21    C950    1.433   .     S
C22    C29     1.420   .     A
C22    C26     1.419   .     A
C23    C27     1.425   .     A
C23    C948    1.433   1_554 S
C23    C951    1.424   1_554 S
C24    C25     1.401   .     A
C24    C942    1.401   .     S
C24    C950    1.424   .     S
C25    C26     1.408   .     A
C25    O83     1.384   .     S
C26    O91     1.381   .     S
C27    O85     1.383   .     S
C28    O46     1.370   .     S
H30    C946    1.084   1_554 S
C31    C93     1.490   .     S
C31    C37     1.417   .     A
C31    C341    1.397   .     S
C32    C48     1.478   .     S
C32    C33     1.408   .     A
C32    C649    1.397   1_545 S
C33    C34     1.396   .     A
C34    H35     1.084   .     S
C34    C654    1.388   1_545 S
C36    O59     1.380   .     S
C36    C37     1.418   .     A
C36    C343    1.388   .     S
C38    N45     1.395   .     A
C38    C61     1.484   .     S
C38    C142    1.419   .     S
C39    N41     1.352   .     A
C39    H40     1.083   .     S
C39    C244    1.419   1_455 S
N41    C42     1.384   .     A
C42    C72     1.474   .     S
C42    C249    1.421   1_455 S
C43    H44     1.078   .     S
C43    N45     1.358   .     A
C43    C145    1.421   .     S
O46    H47     0.985   .     S
C48    C53     1.400   .     A
C48    C49     1.405   .     A
C49    C50     1.395   .     A
C49    H54     1.077   .     S
C50    C51     1.393   .     A
C50    H55     1.083   .     S
C51    C52     1.396   .     A
C51    H56     1.082   .     S
C52    C53     1.399   .     A
C52    H160    1.070   .     S
C53    H58     1.082   .     S
H57    C258    1.070   1_455 S
O59    H60     0.989   .     S
C61    C66     1.403   .     A
C61    C62     1.408   .     A
C62    H67     1.084   .     S
C62    C63     1.398   .     A
C63    H68     1.080   .     S
C63    C64     1.395   .     A
C64    H69     1.083   .     S
C64    C65     1.395   .     A
C65    H70     1.083   .     S
C65    C66     1.398   .     A
C66    H71     1.066   .     S
C72    C77     1.406   .     A
C72    C73     1.400   .     A
C73    C74     1.397   .     A
C73    H78     1.074   .     S
C74    C75     1.395   .     A
C74    H79     1.080   .     S
C75    H80     1.082   .     S
C75    C76     1.398   .     A
C76    C77     1.399   .     A
C76    H81     1.082   .     S
C77    H82     1.083   .     S
O83    H84     0.990   .     S
O85    H86     0.990   .     S
O87    H88     0.992   .     S
O89    H90     0.990   .     S
O91    H92     0.991   .     S
C93    C94     1.403   .     A
C93    C98     1.406   .     A
C94    H99     1.081   .     S
C94    C95     1.398   .     A
C95    H100    1.082   .     S
C95    C199    1.401   .     S
C96    H101    1.081   .     S
C96    C97     1.394   .     A
C96    C301    1.401   1_455 S
C97    H102    1.082   .     S
C97    C304    1.395   1_455 S
C98    H103    1.083   .     S
C98    C200    1.395   .     S
O104   C106    1.304   .     A
O104   Cu110   1.966   .     S
O105   Cu111   1.974   .     S
O105   C106    1.296   .     A
C106   C140    1.463   .     S
O107   Cu110   1.961   .     S
O107   C109    1.295   .     A
O108   C109    1.307   .     A
O108   Cu111   1.956   .     S
C109   C132    1.470   .     S
Cu110  Cu111   2.702   .     S
Cu110  O114    1.956   .     S
Cu110  O112    1.974   .     S
Cu110  N144    2.030   .     S
Cu111  N148    2.030   .     S
Cu111  O115    1.961   .     S
Cu111  O113    1.966   .     S
O112   C116    1.301   .     A
O113   C116    1.299   .     A
O114   C117    1.306   .     A
O115   C117    1.302   .     A
C116   C136    1.455   .     S
C117   C120    1.476   .     S
C118   C131    1.384   .     A
C118   H1046   1.084   1_554 S
C118   C1054   1.401   1_554 S
H119   C1045   1.084   .     S
C120   C130    1.411   .     A
C120   C131    1.407   .     A
C121   C122    1.388   .     A
C121   C132    1.408   .     A
C121   O190    1.383   .     S
C122   C1050   1.398   .     S
C122   H1060   1.084   .     S
C123   O192    1.373   .     S
C123   C1049   1.398   1_554 S
C123   C1051   1.425   1_554 S
C124   C125    1.424   .     A
C124   C1050   1.425   .     S
C124   C1053   1.433   .     S
C125   C132    1.420   .     A
C125   C129    1.419   .     A
C126   C130    1.425   .     A
C126   C1051   1.433   1_554 S
C126   C1054   1.424   1_554 S
C127   C128    1.401   .     A
C127   C1045   1.401   .     S
C127   C1053   1.424   .     S
C128   C129    1.408   .     A
C128   O186    1.384   .     S
C129   O194    1.381   .     S
C130   O188    1.383   .     S
C131   O149    1.370   .     S
H133   C1049   1.084   1_554 S
C134   C196    1.490   .     S
C134   C140    1.417   .     A
C134   C444    1.397   .     S
C135   C151    1.478   .     S
C135   C136    1.408   .     A
C135   C752    1.397   1_545 S
C136   C137    1.396   .     A
C137   H138    1.084   .     S
C137   C757    1.388   1_545 S
C139   O162    1.380   .     S
C139   C140    1.418   .     A
C139   C446    1.388   .     S
C141   N148    1.395   .     A
C141   C164    1.484   .     S
C141   C245    1.419   .     S
C142   N144    1.352   .     A
C142   H143    1.083   .     S
N144   C145    1.384   .     A
C145   C175    1.474   .     S
C146   H147    1.078   .     S
C146   N148    1.358   .     A
C146   C248    1.421   .     S
O149   H150    0.985   .     S
C151   C156    1.400   .     A
C151   C152    1.405   .     A
C152   C153    1.395   .     A
C152   H157    1.077   .     S
C153   C154    1.393   .     A
C153   H158    1.083   .     S
C154   C155    1.396   .     A
C154   H159    1.082   .     S
C155   C156    1.399   .     A
C155   H263    1.070   .     S
C156   H161    1.082   .     S
O162   H163    0.989   .     S
C164   C169    1.403   .     A
C164   C165    1.408   .     A
C165   H170    1.084   .     S
C165   C166    1.398   .     A
C166   H171    1.080   .     S
C166   C167    1.395   .     A
C167   H172    1.083   .     S
C167   C168    1.395   .     A
C168   H173    1.083   .     S
C168   C169    1.398   .     A
C169   H174    1.066   .     S
C175   C180    1.406   .     A
C175   C176    1.400   .     A
C176   C177    1.397   .     A
C176   H181    1.074   .     S
C177   C178    1.395   .     A
C177   H182    1.080   .     S
C178   H183    1.082   .     S
C178   C179    1.398   .     A
C179   C180    1.399   .     A
C179   H184    1.082   .     S
C180   H185    1.083   .     S
O186   H187    0.990   .     S
O188   H189    0.990   .     S
O190   H191    0.992   .     S
O192   H193    0.990   .     S
O194   H195    0.991   .     S
C196   C197    1.403   .     A
C196   C201    1.406   .     A
C197   H202    1.081   .     S
C197   C198    1.398   .     A
C198   H203    1.082   .     S
C198   C302    1.401   .     S
C199   H204    1.081   .     S
C199   C200    1.394   .     A
C200   H205    1.082   .     S
C201   H206    1.083   .     S
C201   C303    1.395   .     S
O207   C209    1.304   .     A
O207   Cu213   1.966   .     S
O208   Cu214   1.974   .     S
O208   C209    1.296   .     A
C209   C243    1.463   .     S
O210   Cu213   1.961   .     S
O210   C212    1.295   .     A
O211   C212    1.307   .     A
O211   Cu214   1.956   .     S
C212   C235    1.470   .     S
Cu213  Cu214   2.702   .     S
Cu213  O217    1.956   .     S
Cu213  O215    1.974   .     S
Cu213  N247    2.030   .     S
Cu214  N251    2.030   .     S
Cu214  O218    1.961   .     S
Cu214  O216    1.966   .     S
O215   C219    1.301   .     A
O216   C219    1.299   .     A
O217   C220    1.306   .     A
O218   C220    1.302   .     A
C219   C239    1.455   .     S
C220   C223    1.476   .     S
C221   C234    1.384   .     A
C221   H1149   1.084   1_554 S
C221   C1157   1.401   1_554 S
H222   C1148   1.084   .     S
C223   C233    1.411   .     A
C223   C234    1.407   .     A
C224   C225    1.388   .     A
C224   C235    1.408   .     A
C224   O293    1.383   .     S
C225   C1153   1.398   .     S
C225   H1163   1.084   .     S
C226   O295    1.373   .     S
C226   C1152   1.398   1_554 S
C226   C1154   1.425   1_554 S
C227   C228    1.424   .     A
C227   C1153   1.425   .     S
C227   C1156   1.433   .     S
C228   C235    1.420   .     A
C228   C232    1.419   .     A
C229   C233    1.425   .     A
C229   C1154   1.433   1_554 S
C229   C1157   1.424   1_554 S
C230   C231    1.401   .     A
C230   C1148   1.401   .     S
C230   C1156   1.424   .     S
C231   C232    1.408   .     A
C231   O289    1.384   .     S
C232   O297    1.381   .     S
C233   O291    1.383   .     S
C234   O252    1.370   .     S
H236   C1152   1.084   1_554 S
C237   C299    1.490   .     S
C237   C243    1.417   .     A
C237   C547    1.397   .     S
C238   C254    1.478   .     S
C238   C239    1.408   .     A
C238   C855    1.397   1_545 S
C239   C240    1.396   .     A
C240   H241    1.084   .     S
C240   C860    1.388   1_545 S
C242   O265    1.380   .     S
C242   C243    1.418   .     A
C242   C549    1.388   .     S
C244   N251    1.395   .     A
C244   C267    1.484   .     S
C244   C39     1.419   1_655 S
C245   N247    1.352   .     A
C245   H246    1.083   .     S
N247   C248    1.384   .     A
C248   C278    1.474   .     S
C249   H250    1.078   .     S
C249   N251    1.358   .     A
C249   C42     1.421   1_655 S
O252   H253    0.985   .     S
C254   C259    1.400   .     A
C254   C255    1.405   .     A
C255   C256    1.395   .     A
C255   H260    1.077   .     S
C256   C257    1.393   .     A
C256   H261    1.083   .     S
C257   C258    1.396   .     A
C257   H262    1.082   .     S
C258   C259    1.399   .     A
C258   H57     1.070   1_655 S
C259   H264    1.082   .     S
O265   H266    0.989   .     S
C267   C272    1.403   .     A
C267   C268    1.408   .     A
C268   H273    1.084   .     S
C268   C269    1.398   .     A
C269   H274    1.080   .     S
C269   C270    1.395   .     A
C270   H275    1.083   .     S
C270   C271    1.395   .     A
C271   H276    1.083   .     S
C271   C272    1.398   .     A
C272   H277    1.066   .     S
C278   C283    1.406   .     A
C278   C279    1.400   .     A
C279   C280    1.397   .     A
C279   H284    1.074   .     S
C280   C281    1.395   .     A
C280   H285    1.080   .     S
C281   H286    1.082   .     S
C281   C282    1.398   .     A
C282   C283    1.399   .     A
C282   H287    1.082   .     S
C283   H288    1.083   .     S
O289   H290    0.990   .     S
O291   H292    0.990   .     S
O293   H294    0.992   .     S
O295   H296    0.990   .     S
O297   H298    0.991   .     S
C299   C300    1.403   .     A
C299   C304    1.406   .     A
C300   H305    1.081   .     S
C300   C301    1.398   .     A
C301   H306    1.082   .     S
C301   C96     1.401   1_655 S
C302   H307    1.081   .     S
C302   C303    1.394   .     A
C303   H308    1.082   .     S
C304   H309    1.083   .     S
C304   C97     1.395   1_655 S
O310   C312    1.304   .     A
O310   Cu316   1.966   .     S
O311   Cu317   1.974   .     S
O311   C312    1.296   .     A
C312   C346    1.463   .     S
O313   Cu316   1.961   .     S
O313   C315    1.295   .     A
O314   C315    1.307   .     A
O314   Cu317   1.956   .     S
C315   C338    1.470   .     S
Cu316  Cu317   2.702   .     S
Cu316  O320    1.956   .     S
Cu316  O318    1.974   .     S
Cu316  N350    2.030   .     S
Cu317  N354    2.030   .     S
Cu317  O321    1.961   .     S
Cu317  O319    1.966   .     S
O318   C322    1.301   .     A
O319   C322    1.299   .     A
O320   C323    1.306   .     A
O321   C323    1.302   .     A
C322   C342    1.455   .     S
C323   C326    1.476   .     S
C324   C337    1.384   .     A
C324   H1252   1.084   1_554 S
C324   C1260   1.401   1_554 S
H325   C1251   1.084   .     S
C326   C336    1.411   .     A
C326   C337    1.407   .     A
C327   C328    1.388   .     A
C327   C338    1.408   .     A
C327   O396    1.383   .     S
C328   C1256   1.398   .     S
C328   H1266   1.084   .     S
C329   O398    1.373   .     S
C329   C1255   1.398   1_554 S
C329   C1257   1.425   1_554 S
C330   C331    1.424   .     A
C330   C1256   1.425   .     S
C330   C1259   1.433   .     S
C331   C338    1.420   .     A
C331   C335    1.419   .     A
C332   C336    1.425   .     A
C332   C1257   1.433   1_554 S
C332   C1260   1.424   1_554 S
C333   C334    1.401   .     A
C333   C1251   1.401   .     S
C333   C1259   1.424   .     S
C334   C335    1.408   .     A
C334   O392    1.384   .     S
C335   O400    1.381   .     S
C336   O394    1.383   .     S
C337   O355    1.370   .     S
H339   C1255   1.084   1_554 S
C340   C402    1.490   .     S
C340   C346    1.417   .     A
C340   C650    1.397   .     S
C341   C357    1.478   .     S
C341   C342    1.408   .     A
C342   C343    1.396   .     A
C343   H344    1.084   .     S
C345   O368    1.380   .     S
C345   C346    1.418   .     A
C345   C652    1.388   .     S
C347   N354    1.395   .     A
C347   C370    1.484   .     S
C347   C451    1.419   .     S
C348   N350    1.352   .     A
C348   H349    1.083   .     S
C348   C553    1.419   1_455 S
N350   C351    1.384   .     A
C351   C381    1.474   .     S
C351   C558    1.421   1_455 S
C352   H353    1.078   .     S
C352   N354    1.358   .     A
C352   C454    1.421   .     S
O355   H356    0.985   .     S
C357   C362    1.400   .     A
C357   C358    1.405   .     A
C358   C359    1.395   .     A
C358   H363    1.077   .     S
C359   C360    1.393   .     A
C359   H364    1.083   .     S
C360   C361    1.396   .     A
C360   H365    1.082   .     S
C361   C362    1.399   .     A
C361   H469    1.070   .     S
C362   H367    1.082   .     S
H366   C567    1.070   1_455 S
O368   H369    0.989   .     S
C370   C375    1.403   .     A
C370   C371    1.408   .     A
C371   H376    1.084   .     S
C371   C372    1.398   .     A
C372   H377    1.080   .     S
C372   C373    1.395   .     A
C373   H378    1.083   .     S
C373   C374    1.395   .     A
C374   H379    1.083   .     S
C374   C375    1.398   .     A
C375   H380    1.066   .     S
C381   C386    1.406   .     A
C381   C382    1.400   .     A
C382   C383    1.397   .     A
C382   H387    1.074   .     S
C383   C384    1.395   .     A
C383   H388    1.080   .     S
C384   H389    1.082   .     S
C384   C385    1.398   .     A
C385   C386    1.399   .     A
C385   H390    1.082   .     S
C386   H391    1.083   .     S
O392   H393    0.990   .     S
O394   H395    0.990   .     S
O396   H397    0.992   .     S
O398   H399    0.990   .     S
O400   H401    0.991   .     S
C402   C403    1.403   .     A
C402   C407    1.406   .     A
C403   H408    1.081   .     S
C403   C404    1.398   .     A
C404   H409    1.082   .     S
C404   C508    1.401   .     S
C405   H410    1.081   .     S
C405   C406    1.394   .     A
C405   C610    1.401   1_455 S
C406   H411    1.082   .     S
C406   C613    1.395   1_455 S
C407   H412    1.083   .     S
C407   C509    1.395   .     S
O413   C415    1.304   .     A
O413   Cu419   1.966   .     S
O414   Cu420   1.974   .     S
O414   C415    1.296   .     A
C415   C449    1.463   .     S
O416   Cu419   1.961   .     S
O416   C418    1.295   .     A
O417   C418    1.307   .     A
O417   Cu420   1.956   .     S
C418   C441    1.470   .     S
Cu419  Cu420   2.702   .     S
Cu419  O423    1.956   .     S
Cu419  O421    1.974   .     S
Cu419  N453    2.030   .     S
Cu420  N457    2.030   .     S
Cu420  O424    1.961   .     S
Cu420  O422    1.966   .     S
O421   C425    1.301   .     A
O422   C425    1.299   .     A
O423   C426    1.306   .     A
O424   C426    1.302   .     A
C425   C445    1.455   .     S
C426   C429    1.476   .     S
C427   C440    1.384   .     A
C427   H1355   1.084   1_554 S
C427   C1363   1.401   1_554 S
H428   C1354   1.084   .     S
C429   C439    1.411   .     A
C429   C440    1.407   .     A
C430   C431    1.388   .     A
C430   C441    1.408   .     A
C430   O499    1.383   .     S
C431   C1359   1.398   .     S
C431   H1369   1.084   .     S
C432   O501    1.373   .     S
C432   C1358   1.398   1_554 S
C432   C1360   1.425   1_554 S
C433   C434    1.424   .     A
C433   C1359   1.425   .     S
C433   C1362   1.433   .     S
C434   C441    1.420   .     A
C434   C438    1.419   .     A
C435   C439    1.425   .     A
C435   C1360   1.433   1_554 S
C435   C1363   1.424   1_554 S
C436   C437    1.401   .     A
C436   C1354   1.401   .     S
C436   C1362   1.424   .     S
C437   C438    1.408   .     A
C437   O495    1.384   .     S
C438   O503    1.381   .     S
C439   O497    1.383   .     S
C440   O458    1.370   .     S
H442   C1358   1.084   1_554 S
C443   C505    1.490   .     S
C443   C449    1.417   .     A
C443   C753    1.397   .     S
C444   C460    1.478   .     S
C444   C445    1.408   .     A
C445   C446    1.396   .     A
C446   H447    1.084   .     S
C448   O471    1.380   .     S
C448   C449    1.418   .     A
C448   C755    1.388   .     S
C450   N457    1.395   .     A
C450   C473    1.484   .     S
C450   C554    1.419   .     S
C451   N453    1.352   .     A
C451   H452    1.083   .     S
N453   C454    1.384   .     A
C454   C484    1.474   .     S
C455   H456    1.078   .     S
C455   N457    1.358   .     A
C455   C557    1.421   .     S
O458   H459    0.985   .     S
C460   C465    1.400   .     A
C460   C461    1.405   .     A
C461   C462    1.395   .     A
C461   H466    1.077   .     S
C462   C463    1.393   .     A
C462   H467    1.083   .     S
C463   C464    1.396   .     A
C463   H468    1.082   .     S
C464   C465    1.399   .     A
C464   H572    1.070   .     S
C465   H470    1.082   .     S
O471   H472    0.989   .     S
C473   C478    1.403   .     A
C473   C474    1.408   .     A
C474   H479    1.084   .     S
C474   C475    1.398   .     A
C475   H480    1.080   .     S
C475   C476    1.395   .     A
C476   H481    1.083   .     S
C476   C477    1.395   .     A
C477   H482    1.083   .     S
C477   C478    1.398   .     A
C478   H483    1.066   .     S
C484   C489    1.406   .     A
C484   C485    1.400   .     A
C485   C486    1.397   .     A
C485   H490    1.074   .     S
C486   C487    1.395   .     A
C486   H491    1.080   .     S
C487   H492    1.082   .     S
C487   C488    1.398   .     A
C488   C489    1.399   .     A
C488   H493    1.082   .     S
C489   H494    1.083   .     S
O495   H496    0.990   .     S
O497   H498    0.990   .     S
O499   H500    0.992   .     S
O501   H502    0.990   .     S
O503   H504    0.991   .     S
C505   C506    1.403   .     A
C505   C510    1.406   .     A
C506   H511    1.081   .     S
C506   C507    1.398   .     A
C507   H512    1.082   .     S
C507   C611    1.401   .     S
C508   H513    1.081   .     S
C508   C509    1.394   .     A
C509   H514    1.082   .     S
C510   H515    1.083   .     S
C510   C612    1.395   .     S
O516   C518    1.304   .     A
O516   Cu522   1.966   .     S
O517   Cu523   1.974   .     S
O517   C518    1.296   .     A
C518   C552    1.463   .     S
O519   Cu522   1.961   .     S
O519   C521    1.295   .     A
O520   C521    1.307   .     A
O520   Cu523   1.956   .     S
C521   C544    1.470   .     S
Cu522  Cu523   2.702   .     S
Cu522  O526    1.956   .     S
Cu522  O524    1.974   .     S
Cu522  N556    2.030   .     S
Cu523  N560    2.030   .     S
Cu523  O527    1.961   .     S
Cu523  O525    1.966   .     S
O524   C528    1.301   .     A
O525   C528    1.299   .     A
O526   C529    1.306   .     A
O527   C529    1.302   .     A
C528   C548    1.455   .     S
C529   C532    1.476   .     S
C530   C543    1.384   .     A
C530   H1458   1.084   1_554 S
C530   C1466   1.401   1_554 S
H531   C1457   1.084   .     S
C532   C542    1.411   .     A
C532   C543    1.407   .     A
C533   C534    1.388   .     A
C533   C544    1.408   .     A
C533   O602    1.383   .     S
C534   C1462   1.398   .     S
C534   H1472   1.084   .     S
C535   O604    1.373   .     S
C535   C1461   1.398   1_554 S
C535   C1463   1.425   1_554 S
C536   C537    1.424   .     A
C536   C1462   1.425   .     S
C536   C1465   1.433   .     S
C537   C544    1.420   .     A
C537   C541    1.419   .     A
C538   C542    1.425   .     A
C538   C1463   1.433   1_554 S
C538   C1466   1.424   1_554 S
C539   C540    1.401   .     A
C539   C1457   1.401   .     S
C539   C1465   1.424   .     S
C540   C541    1.408   .     A
C540   O598    1.384   .     S
C541   O606    1.381   .     S
C542   O600    1.383   .     S
C543   O561    1.370   .     S
H545   C1461   1.084   1_554 S
C546   C608    1.490   .     S
C546   C552    1.417   .     A
C546   C856    1.397   .     S
C547   C563    1.478   .     S
C547   C548    1.408   .     A
C548   C549    1.396   .     A
C549   H550    1.084   .     S
C551   O574    1.380   .     S
C551   C552    1.418   .     A
C551   C858    1.388   .     S
C553   N560    1.395   .     A
C553   C576    1.484   .     S
C553   C348    1.419   1_655 S
C554   N556    1.352   .     A
C554   H555    1.083   .     S
N556   C557    1.384   .     A
C557   C587    1.474   .     S
C558   H559    1.078   .     S
C558   N560    1.358   .     A
C558   C351    1.421   1_655 S
O561   H562    0.985   .     S
C563   C568    1.400   .     A
C563   C564    1.405   .     A
C564   C565    1.395   .     A
C564   H569    1.077   .     S
C565   C566    1.393   .     A
C565   H570    1.083   .     S
C566   C567    1.396   .     A
C566   H571    1.082   .     S
C567   C568    1.399   .     A
C567   H366    1.070   1_655 S
C568   H573    1.082   .     S
O574   H575    0.989   .     S
C576   C581    1.403   .     A
C576   C577    1.408   .     A
C577   H582    1.084   .     S
C577   C578    1.398   .     A
C578   H583    1.080   .     S
C578   C579    1.395   .     A
C579   H584    1.083   .     S
C579   C580    1.395   .     A
C580   H585    1.083   .     S
C580   C581    1.398   .     A
C581   H586    1.066   .     S
C587   C592    1.406   .     A
C587   C588    1.400   .     A
C588   C589    1.397   .     A
C588   H593    1.074   .     S
C589   C590    1.395   .     A
C589   H594    1.080   .     S
C590   H595    1.082   .     S
C590   C591    1.398   .     A
C591   C592    1.399   .     A
C591   H596    1.082   .     S
C592   H597    1.083   .     S
O598   H599    0.990   .     S
O600   H601    0.990   .     S
O602   H603    0.992   .     S
O604   H605    0.990   .     S
O606   H607    0.991   .     S
C608   C609    1.403   .     A
C608   C613    1.406   .     A
C609   H614    1.081   .     S
C609   C610    1.398   .     A
C610   H615    1.082   .     S
C610   C405    1.401   1_655 S
C611   H616    1.081   .     S
C611   C612    1.394   .     A
C612   H617    1.082   .     S
C613   H618    1.083   .     S
C613   C406    1.395   1_655 S
O619   C621    1.304   .     A
O619   Cu625   1.966   .     S
O620   Cu626   1.974   .     S
O620   C621    1.296   .     A
C621   C655    1.463   .     S
O622   Cu625   1.961   .     S
O622   C624    1.295   .     A
O623   C624    1.307   .     A
O623   Cu626   1.956   .     S
C624   C647    1.470   .     S
Cu625  Cu626   2.702   .     S
Cu625  O629    1.956   .     S
Cu625  O627    1.974   .     S
Cu625  N659    2.030   .     S
Cu626  N663    2.030   .     S
Cu626  O630    1.961   .     S
Cu626  O628    1.966   .     S
O627   C631    1.301   .     A
O628   C631    1.299   .     A
O629   C632    1.306   .     A
O630   C632    1.302   .     A
C631   C651    1.455   .     S
C632   C635    1.476   .     S
C633   C646    1.384   .     A
C633   H1561   1.084   1_554 S
C633   C1569   1.401   1_554 S
H634   C1560   1.084   .     S
C635   C645    1.411   .     A
C635   C646    1.407   .     A
C636   C637    1.388   .     A
C636   C647    1.408   .     A
C636   O705    1.383   .     S
C637   C1565   1.398   .     S
C637   H1575   1.084   .     S
C638   O707    1.373   .     S
C638   C1564   1.398   1_554 S
C638   C1566   1.425   1_554 S
C639   C640    1.424   .     A
C639   C1565   1.425   .     S
C639   C1568   1.433   .     S
C640   C647    1.420   .     A
C640   C644    1.419   .     A
C641   C645    1.425   .     A
C641   C1566   1.433   1_554 S
C641   C1569   1.424   1_554 S
C642   C643    1.401   .     A
C642   C1560   1.401   .     S
C642   C1568   1.424   .     S
C643   C644    1.408   .     A
C643   O701    1.384   .     S
C644   O709    1.381   .     S
C645   O703    1.383   .     S
C646   O664    1.370   .     S
H648   C1564   1.084   1_554 S
C649   C711    1.490   .     S
C649   C655    1.417   .     A
C649   C32     1.397   1_565 S
C650   C666    1.478   .     S
C650   C651    1.408   .     A
C651   C652    1.396   .     A
C652   H653    1.084   .     S
C654   O677    1.380   .     S
C654   C655    1.418   .     A
C654   C34     1.388   1_565 S
C656   N663    1.395   .     A
C656   C679    1.484   .     S
C656   C760    1.419   .     S
C657   N659    1.352   .     A
C657   H658    1.083   .     S
C657   C862    1.419   1_455 S
N659   C660    1.384   .     A
C660   C690    1.474   .     S
C660   C867    1.421   1_455 S
C661   H662    1.078   .     S
C661   N663    1.358   .     A
C661   C763    1.421   .     S
O664   H665    0.985   .     S
C666   C671    1.400   .     A
C666   C667    1.405   .     A
C667   C668    1.395   .     A
C667   H672    1.077   .     S
C668   C669    1.393   .     A
C668   H673    1.083   .     S
C669   C670    1.396   .     A
C669   H674    1.082   .     S
C670   C671    1.399   .     A
C670   H778    1.070   .     S
C671   H676    1.082   .     S
H675   C876    1.070   1_455 S
O677   H678    0.989   .     S
C679   C684    1.403   .     A
C679   C680    1.408   .     A
C680   H685    1.084   .     S
C680   C681    1.398   .     A
C681   H686    1.080   .     S
C681   C682    1.395   .     A
C682   H687    1.083   .     S
C682   C683    1.395   .     A
C683   H688    1.083   .     S
C683   C684    1.398   .     A
C684   H689    1.066   .     S
C690   C695    1.406   .     A
C690   C691    1.400   .     A
C691   C692    1.397   .     A
C691   H696    1.074   .     S
C692   C693    1.395   .     A
C692   H697    1.080   .     S
C693   H698    1.082   .     S
C693   C694    1.398   .     A
C694   C695    1.399   .     A
C694   H699    1.082   .     S
C695   H700    1.083   .     S
O701   H702    0.990   .     S
O703   H704    0.990   .     S
O705   H706    0.992   .     S
O707   H708    0.990   .     S
O709   H710    0.991   .     S
C711   C712    1.403   .     A
C711   C716    1.406   .     A
C712   H717    1.081   .     S
C712   C713    1.398   .     A
C713   H718    1.082   .     S
C713   C817    1.401   .     S
C714   H719    1.081   .     S
C714   C715    1.394   .     A
C714   C919    1.401   1_455 S
C715   H720    1.082   .     S
C715   C922    1.395   1_455 S
C716   H721    1.083   .     S
C716   C818    1.395   .     S
O722   C724    1.304   .     A
O722   Cu728   1.966   .     S
O723   Cu729   1.974   .     S
O723   C724    1.296   .     A
C724   C758    1.463   .     S
O725   Cu728   1.961   .     S
O725   C727    1.295   .     A
O726   C727    1.307   .     A
O726   Cu729   1.956   .     S
C727   C750    1.470   .     S
Cu728  Cu729   2.702   .     S
Cu728  O732    1.956   .     S
Cu728  O730    1.974   .     S
Cu728  N762    2.030   .     S
Cu729  N766    2.030   .     S
Cu729  O733    1.961   .     S
Cu729  O731    1.966   .     S
O730   C734    1.301   .     A
O731   C734    1.299   .     A
O732   C735    1.306   .     A
O733   C735    1.302   .     A
C734   C754    1.455   .     S
C735   C738    1.476   .     S
C736   C749    1.384   .     A
C736   H1664   1.084   1_554 S
C736   C1672   1.401   1_554 S
H737   C1663   1.084   .     S
C738   C748    1.411   .     A
C738   C749    1.407   .     A
C739   C740    1.388   .     A
C739   C750    1.408   .     A
C739   O808    1.383   .     S
C740   C1668   1.398   .     S
C740   H1678   1.084   .     S
C741   O810    1.373   .     S
C741   C1667   1.398   1_554 S
C741   C1669   1.425   1_554 S
C742   C743    1.424   .     A
C742   C1668   1.425   .     S
C742   C1671   1.433   .     S
C743   C750    1.420   .     A
C743   C747    1.419   .     A
C744   C748    1.425   .     A
C744   C1669   1.433   1_554 S
C744   C1672   1.424   1_554 S
C745   C746    1.401   .     A
C745   C1663   1.401   .     S
C745   C1671   1.424   .     S
C746   C747    1.408   .     A
C746   O804    1.384   .     S
C747   O812    1.381   .     S
C748   O806    1.383   .     S
C749   O767    1.370   .     S
H751   C1667   1.084   1_554 S
C752   C814    1.490   .     S
C752   C758    1.417   .     A
C752   C135    1.397   1_565 S
C753   C769    1.478   .     S
C753   C754    1.408   .     A
C754   C755    1.396   .     A
C755   H756    1.084   .     S
C757   O780    1.380   .     S
C757   C758    1.418   .     A
C757   C137    1.388   1_565 S
C759   N766    1.395   .     A
C759   C782    1.484   .     S
C759   C863    1.419   .     S
C760   N762    1.352   .     A
C760   H761    1.083   .     S
N762   C763    1.384   .     A
C763   C793    1.474   .     S
C764   H765    1.078   .     S
C764   N766    1.358   .     A
C764   C866    1.421   .     S
O767   H768    0.985   .     S
C769   C774    1.400   .     A
C769   C770    1.405   .     A
C770   C771    1.395   .     A
C770   H775    1.077   .     S
C771   C772    1.393   .     A
C771   H776    1.083   .     S
C772   C773    1.396   .     A
C772   H777    1.082   .     S
C773   C774    1.399   .     A
C773   H881    1.070   .     S
C774   H779    1.082   .     S
O780   H781    0.989   .     S
C782   C787    1.403   .     A
C782   C783    1.408   .     A
C783   H788    1.084   .     S
C783   C784    1.398   .     A
C784   H789    1.080   .     S
C784   C785    1.395   .     A
C785   H790    1.083   .     S
C785   C786    1.395   .     A
C786   H791    1.083   .     S
C786   C787    1.398   .     A
C787   H792    1.066   .     S
C793   C798    1.406   .     A
C793   C794    1.400   .     A
C794   C795    1.397   .     A
C794   H799    1.074   .     S
C795   C796    1.395   .     A
C795   H800    1.080   .     S
C796   H801    1.082   .     S
C796   C797    1.398   .     A
C797   C798    1.399   .     A
C797   H802    1.082   .     S
C798   H803    1.083   .     S
O804   H805    0.990   .     S
O806   H807    0.990   .     S
O808   H809    0.992   .     S
O810   H811    0.990   .     S
O812   H813    0.991   .     S
C814   C815    1.403   .     A
C814   C819    1.406   .     A
C815   H820    1.081   .     S
C815   C816    1.398   .     A
C816   H821    1.082   .     S
C816   C920    1.401   .     S
C817   H822    1.081   .     S
C817   C818    1.394   .     A
C818   H823    1.082   .     S
C819   H824    1.083   .     S
C819   C921    1.395   .     S
O825   C827    1.304   .     A
O825   Cu831   1.966   .     S
O826   Cu832   1.974   .     S
O826   C827    1.296   .     A
C827   C861    1.463   .     S
O828   Cu831   1.961   .     S
O828   C830    1.295   .     A
O829   C830    1.307   .     A
O829   Cu832   1.956   .     S
C830   C853    1.470   .     S
Cu831  Cu832   2.702   .     S
Cu831  O835    1.956   .     S
Cu831  O833    1.974   .     S
Cu831  N865    2.030   .     S
Cu832  N869    2.030   .     S
Cu832  O836    1.961   .     S
Cu832  O834    1.966   .     S
O833   C837    1.301   .     A
O834   C837    1.299   .     A
O835   C838    1.306   .     A
O836   C838    1.302   .     A
C837   C857    1.455   .     S
C838   C841    1.476   .     S
C839   C852    1.384   .     A
C839   H1767   1.084   1_554 S
C839   C1775   1.401   1_554 S
H840   C1766   1.084   .     S
C841   C851    1.411   .     A
C841   C852    1.407   .     A
C842   C843    1.388   .     A
C842   C853    1.408   .     A
C842   O911    1.383   .     S
C843   C1771   1.398   .     S
C843   H1781   1.084   .     S
C844   O913    1.373   .     S
C844   C1770   1.398   1_554 S
C844   C1772   1.425   1_554 S
C845   C846    1.424   .     A
C845   C1771   1.425   .     S
C845   C1774   1.433   .     S
C846   C853    1.420   .     A
C846   C850    1.419   .     A
C847   C851    1.425   .     A
C847   C1772   1.433   1_554 S
C847   C1775   1.424   1_554 S
C848   C849    1.401   .     A
C848   C1766   1.401   .     S
C848   C1774   1.424   .     S
C849   C850    1.408   .     A
C849   O907    1.384   .     S
C850   O915    1.381   .     S
C851   O909    1.383   .     S
C852   O870    1.370   .     S
H854   C1770   1.084   1_554 S
C855   C917    1.490   .     S
C855   C861    1.417   .     A
C855   C238    1.397   1_565 S
C856   C872    1.478   .     S
C856   C857    1.408   .     A
C857   C858    1.396   .     A
C858   H859    1.084   .     S
C860   O883    1.380   .     S
C860   C861    1.418   .     A
C860   C240    1.388   1_565 S
C862   N869    1.395   .     A
C862   C885    1.484   .     S
C862   C657    1.419   1_655 S
C863   N865    1.352   .     A
C863   H864    1.083   .     S
N865   C866    1.384   .     A
C866   C896    1.474   .     S
C867   H868    1.078   .     S
C867   N869    1.358   .     A
C867   C660    1.421   1_655 S
O870   H871    0.985   .     S
C872   C877    1.400   .     A
C872   C873    1.405   .     A
C873   C874    1.395   .     A
C873   H878    1.077   .     S
C874   C875    1.393   .     A
C874   H879    1.083   .     S
C875   C876    1.396   .     A
C875   H880    1.082   .     S
C876   C877    1.399   .     A
C876   H675    1.070   1_655 S
C877   H882    1.082   .     S
O883   H884    0.989   .     S
C885   C890    1.403   .     A
C885   C886    1.408   .     A
C886   H891    1.084   .     S
C886   C887    1.398   .     A
C887   H892    1.080   .     S
C887   C888    1.395   .     A
C888   H893    1.083   .     S
C888   C889    1.395   .     A
C889   H894    1.083   .     S
C889   C890    1.398   .     A
C890   H895    1.066   .     S
C896   C901    1.406   .     A
C896   C897    1.400   .     A
C897   C898    1.397   .     A
C897   H902    1.074   .     S
C898   C899    1.395   .     A
C898   H903    1.080   .     S
C899   H904    1.082   .     S
C899   C900    1.398   .     A
C900   C901    1.399   .     A
C900   H905    1.082   .     S
C901   H906    1.083   .     S
O907   H908    0.990   .     S
O909   H910    0.990   .     S
O911   H912    0.992   .     S
O913   H914    0.990   .     S
O915   H916    0.991   .     S
C917   C918    1.403   .     A
C917   C922    1.406   .     A
C918   H923    1.081   .     S
C918   C919    1.398   .     A
C919   H924    1.082   .     S
C919   C714    1.401   1_655 S
C920   H925    1.081   .     S
C920   C921    1.394   .     A
C921   H926    1.082   .     S
C922   H927    1.083   .     S
C922   C715    1.395   1_655 S
O928   C930    1.304   .     A
O928   Cu934   1.966   .     S
O929   Cu935   1.974   .     S
O929   C930    1.296   .     A
C930   C964    1.463   .     S
O931   Cu934   1.961   .     S
O931   C933    1.295   .     A
O932   C933    1.307   .     A
O932   Cu935   1.956   .     S
C933   C956    1.470   .     S
Cu934  Cu935   2.702   .     S
Cu934  O938    1.956   .     S
Cu934  O936    1.974   .     S
Cu934  N968    2.030   .     S
Cu935  N972    2.030   .     S
Cu935  O939    1.961   .     S
Cu935  O937    1.966   .     S
O936   C940    1.301   .     A
O937   C940    1.299   .     A
O938   C941    1.306   .     A
O939   C941    1.302   .     A
C940   C960    1.455   .     S
C941   C944    1.476   .     S
C942   C955    1.384   .     A
H943   C15     1.084   1_556 S
C944   C954    1.411   .     A
C944   C955    1.407   .     A
C945   C946    1.388   .     A
C945   C956    1.408   .     A
C945   O1014   1.383   .     S
C946   C20     1.398   1_556 S
C946   H30     1.084   1_556 S
C947   O1016   1.373   .     S
C948   C949    1.424   .     A
C948   C20     1.425   1_556 S
C948   C23     1.433   1_556 S
C949   C956    1.420   .     A
C949   C953    1.419   .     A
C950   C954    1.425   .     A
C951   C952    1.401   .     A
C951   C15     1.401   1_556 S
C951   C23     1.424   1_556 S
C952   C953    1.408   .     A
C952   O1010   1.384   .     S
C953   O1018   1.381   .     S
C954   O1012   1.383   .     S
C955   O973    1.370   .     S
C958   C1020   1.490   .     S
C958   C964    1.417   .     A
C958   C1268   1.397   .     S
C959   C975    1.478   .     S
C959   C960    1.408   .     A
C959   C1576   1.397   1_545 S
C960   C961    1.396   .     A
C961   H962    1.084   .     S
C961   C1581   1.388   1_545 S
C963   O986    1.380   .     S
C963   C964    1.418   .     A
C963   C1270   1.388   .     S
C965   N972    1.395   .     A
C965   C988    1.484   .     S
C965   C1069   1.419   .     S
C966   N968    1.352   .     A
C966   H967    1.083   .     S
C966   C1171   1.419   1_455 S
N968   C969    1.384   .     A
C969   C999    1.474   .     S
C969   C1176   1.421   1_455 S
C970   H971    1.078   .     S
C970   N972    1.358   .     A
C970   C1072   1.421   .     S
O973   H974    0.985   .     S
C975   C980    1.400   .     A
C975   C976    1.405   .     A
C976   C977    1.395   .     A
C976   H981    1.077   .     S
C977   C978    1.393   .     A
C977   H982    1.083   .     S
C978   C979    1.396   .     A
C978   H983    1.082   .     S
C979   C980    1.399   .     A
C979   H1087   1.070   .     S
C980   H985    1.082   .     S
H984   C1185   1.070   1_455 S
O986   H987    0.989   .     S
C988   C993    1.403   .     A
C988   C989    1.408   .     A
C989   H994    1.084   .     S
C989   C990    1.398   .     A
C990   H995    1.080   .     S
C990   C991    1.395   .     A
C991   H996    1.083   .     S
C991   C992    1.395   .     A
C992   H997    1.083   .     S
C992   C993    1.398   .     A
C993   H998    1.066   .     S
C999   C1004   1.406   .     A
C999   C1000   1.400   .     A
C1000  C1001   1.397   .     A
C1000  H1005   1.074   .     S
C1001  C1002   1.395   .     A
C1001  H1006   1.080   .     S
C1002  H1007   1.082   .     S
C1002  C1003   1.398   .     A
C1003  C1004   1.399   .     A
C1003  H1008   1.082   .     S
C1004  H1009   1.083   .     S
O1010  H1011   0.990   .     S
O1012  H1013   0.990   .     S
O1014  H1015   0.992   .     S
O1016  H1017   0.990   .     S
O1018  H1019   0.991   .     S
C1020  C1021   1.403   .     A
C1020  C1025   1.406   .     A
C1021  H1026   1.081   .     S
C1021  C1022   1.398   .     A
C1022  H1027   1.082   .     S
C1022  C1126   1.401   .     S
C1023  H1028   1.081   .     S
C1023  C1024   1.394   .     A
C1023  C1228   1.401   1_455 S
C1024  H1029   1.082   .     S
C1024  C1231   1.395   1_455 S
C1025  H1030   1.083   .     S
C1025  C1127   1.395   .     S
O1031  C1033   1.304   .     A
O1031  Cu1037  1.966   .     S
O1032  Cu1038  1.974   .     S
O1032  C1033   1.296   .     A
C1033  C1067   1.463   .     S
O1034  Cu1037  1.961   .     S
O1034  C1036   1.295   .     A
O1035  C1036   1.307   .     A
O1035  Cu1038  1.956   .     S
C1036  C1059   1.470   .     S
Cu1037 Cu1038  2.702   .     S
Cu1037 O1041   1.956   .     S
Cu1037 O1039   1.974   .     S
Cu1037 N1071   2.030   .     S
Cu1038 N1075   2.030   .     S
Cu1038 O1042   1.961   .     S
Cu1038 O1040   1.966   .     S
O1039  C1043   1.301   .     A
O1040  C1043   1.299   .     A
O1041  C1044   1.306   .     A
O1042  C1044   1.302   .     A
C1043  C1063   1.455   .     S
C1044  C1047   1.476   .     S
C1045  C1058   1.384   .     A
H1046  C118    1.084   1_556 S
C1047  C1057   1.411   .     A
C1047  C1058   1.407   .     A
C1048  C1049   1.388   .     A
C1048  C1059   1.408   .     A
C1048  O1117   1.383   .     S
C1049  C123    1.398   1_556 S
C1049  H133    1.084   1_556 S
C1050  O1119   1.373   .     S
C1051  C1052   1.424   .     A
C1051  C123    1.425   1_556 S
C1051  C126    1.433   1_556 S
C1052  C1059   1.420   .     A
C1052  C1056   1.419   .     A
C1053  C1057   1.425   .     A
C1054  C1055   1.401   .     A
C1054  C118    1.401   1_556 S
C1054  C126    1.424   1_556 S
C1055  C1056   1.408   .     A
C1055  O1113   1.384   .     S
C1056  O1121   1.381   .     S
C1057  O1115   1.383   .     S
C1058  O1076   1.370   .     S
C1061  C1123   1.490   .     S
C1061  C1067   1.417   .     A
C1061  C1371   1.397   .     S
C1062  C1078   1.478   .     S
C1062  C1063   1.408   .     A
C1062  C1679   1.397   1_545 S
C1063  C1064   1.396   .     A
C1064  H1065   1.084   .     S
C1064  C1684   1.388   1_545 S
C1066  O1089   1.380   .     S
C1066  C1067   1.418   .     A
C1066  C1373   1.388   .     S
C1068  N1075   1.395   .     A
C1068  C1091   1.484   .     S
C1068  C1172   1.419   .     S
C1069  N1071   1.352   .     A
C1069  H1070   1.083   .     S
N1071  C1072   1.384   .     A
C1072  C1102   1.474   .     S
C1073  H1074   1.078   .     S
C1073  N1075   1.358   .     A
C1073  C1175   1.421   .     S
O1076  H1077   0.985   .     S
C1078  C1083   1.400   .     A
C1078  C1079   1.405   .     A
C1079  C1080   1.395   .     A
C1079  H1084   1.077   .     S
C1080  C1081   1.393   .     A
C1080  H1085   1.083   .     S
C1081  C1082   1.396   .     A
C1081  H1086   1.082   .     S
C1082  C1083   1.399   .     A
C1082  H1190   1.070   .     S
C1083  H1088   1.082   .     S
O1089  H1090   0.989   .     S
C1091  C1096   1.403   .     A
C1091  C1092   1.408   .     A
C1092  H1097   1.084   .     S
C1092  C1093   1.398   .     A
C1093  H1098   1.080   .     S
C1093  C1094   1.395   .     A
C1094  H1099   1.083   .     S
C1094  C1095   1.395   .     A
C1095  H1100   1.083   .     S
C1095  C1096   1.398   .     A
C1096  H1101   1.066   .     S
C1102  C1107   1.406   .     A
C1102  C1103   1.400   .     A
C1103  C1104   1.397   .     A
C1103  H1108   1.074   .     S
C1104  C1105   1.395   .     A
C1104  H1109   1.080   .     S
C1105  H1110   1.082   .     S
C1105  C1106   1.398   .     A
C1106  C1107   1.399   .     A
C1106  H1111   1.082   .     S
C1107  H1112   1.083   .     S
O1113  H1114   0.990   .     S
O1115  H1116   0.990   .     S
O1117  H1118   0.992   .     S
O1119  H1120   0.990   .     S
O1121  H1122   0.991   .     S
C1123  C1124   1.403   .     A
C1123  C1128   1.406   .     A
C1124  H1129   1.081   .     S
C1124  C1125   1.398   .     A
C1125  H1130   1.082   .     S
C1125  C1229   1.401   .     S
C1126  H1131   1.081   .     S
C1126  C1127   1.394   .     A
C1127  H1132   1.082   .     S
C1128  H1133   1.083   .     S
C1128  C1230   1.395   .     S
O1134  C1136   1.304   .     A
O1134  Cu1140  1.966   .     S
O1135  Cu1141  1.974   .     S
O1135  C1136   1.296   .     A
C1136  C1170   1.463   .     S
O1137  Cu1140  1.961   .     S
O1137  C1139   1.295   .     A
O1138  C1139   1.307   .     A
O1138  Cu1141  1.956   .     S
C1139  C1162   1.470   .     S
Cu1140 Cu1141  2.702   .     S
Cu1140 O1144   1.956   .     S
Cu1140 O1142   1.974   .     S
Cu1140 N1174   2.030   .     S
Cu1141 N1178   2.030   .     S
Cu1141 O1145   1.961   .     S
Cu1141 O1143   1.966   .     S
O1142  C1146   1.301   .     A
O1143  C1146   1.299   .     A
O1144  C1147   1.306   .     A
O1145  C1147   1.302   .     A
C1146  C1166   1.455   .     S
C1147  C1150   1.476   .     S
C1148  C1161   1.384   .     A
H1149  C221    1.084   1_556 S
C1150  C1160   1.411   .     A
C1150  C1161   1.407   .     A
C1151  C1152   1.388   .     A
C1151  C1162   1.408   .     A
C1151  O1220   1.383   .     S
C1152  C226    1.398   1_556 S
C1152  H236    1.084   1_556 S
C1153  O1222   1.373   .     S
C1154  C1155   1.424   .     A
C1154  C226    1.425   1_556 S
C1154  C229    1.433   1_556 S
C1155  C1162   1.420   .     A
C1155  C1159   1.419   .     A
C1156  C1160   1.425   .     A
C1157  C1158   1.401   .     A
C1157  C221    1.401   1_556 S
C1157  C229    1.424   1_556 S
C1158  C1159   1.408   .     A
C1158  O1216   1.384   .     S
C1159  O1224   1.381   .     S
C1160  O1218   1.383   .     S
C1161  O1179   1.370   .     S
C1164  C1226   1.490   .     S
C1164  C1170   1.417   .     A
C1164  C1474   1.397   .     S
C1165  C1181   1.478   .     S
C1165  C1166   1.408   .     A
C1165  C1782   1.397   1_545 S
C1166  C1167   1.396   .     A
C1167  H1168   1.084   .     S
C1167  C1787   1.388   1_545 S
C1169  O1192   1.380   .     S
C1169  C1170   1.418   .     A
C1169  C1476   1.388   .     S
C1171  N1178   1.395   .     A
C1171  C1194   1.484   .     S
C1171  C966    1.419   1_655 S
C1172  N1174   1.352   .     A
C1172  H1173   1.083   .     S
N1174  C1175   1.384   .     A
C1175  C1205   1.474   .     S
C1176  H1177   1.078   .     S
C1176  N1178   1.358   .     A
C1176  C969    1.421   1_655 S
O1179  H1180   0.985   .     S
C1181  C1186   1.400   .     A
C1181  C1182   1.405   .     A
C1182  C1183   1.395   .     A
C1182  H1187   1.077   .     S
C1183  C1184   1.393   .     A
C1183  H1188   1.083   .     S
C1184  C1185   1.396   .     A
C1184  H1189   1.082   .     S
C1185  C1186   1.399   .     A
C1185  H984    1.070   1_655 S
C1186  H1191   1.082   .     S
O1192  H1193   0.989   .     S
C1194  C1199   1.403   .     A
C1194  C1195   1.408   .     A
C1195  H1200   1.084   .     S
C1195  C1196   1.398   .     A
C1196  H1201   1.080   .     S
C1196  C1197   1.395   .     A
C1197  H1202   1.083   .     S
C1197  C1198   1.395   .     A
C1198  H1203   1.083   .     S
C1198  C1199   1.398   .     A
C1199  H1204   1.066   .     S
C1205  C1210   1.406   .     A
C1205  C1206   1.400   .     A
C1206  C1207   1.397   .     A
C1206  H1211   1.074   .     S
C1207  C1208   1.395   .     A
C1207  H1212   1.080   .     S
C1208  H1213   1.082   .     S
C1208  C1209   1.398   .     A
C1209  C1210   1.399   .     A
C1209  H1214   1.082   .     S
C1210  H1215   1.083   .     S
O1216  H1217   0.990   .     S
O1218  H1219   0.990   .     S
O1220  H1221   0.992   .     S
O1222  H1223   0.990   .     S
O1224  H1225   0.991   .     S
C1226  C1227   1.403   .     A
C1226  C1231   1.406   .     A
C1227  H1232   1.081   .     S
C1227  C1228   1.398   .     A
C1228  H1233   1.082   .     S
C1228  C1023   1.401   1_655 S
C1229  H1234   1.081   .     S
C1229  C1230   1.394   .     A
C1230  H1235   1.082   .     S
C1231  H1236   1.083   .     S
C1231  C1024   1.395   1_655 S
O1237  C1239   1.304   .     A
O1237  Cu1243  1.966   .     S
O1238  Cu1244  1.974   .     S
O1238  C1239   1.296   .     A
C1239  C1273   1.463   .     S
O1240  Cu1243  1.961   .     S
O1240  C1242   1.295   .     A
O1241  C1242   1.307   .     A
O1241  Cu1244  1.956   .     S
C1242  C1265   1.470   .     S
Cu1243 Cu1244  2.702   .     S
Cu1243 O1247   1.956   .     S
Cu1243 O1245   1.974   .     S
Cu1243 N1277   2.030   .     S
Cu1244 N1281   2.030   .     S
Cu1244 O1248   1.961   .     S
Cu1244 O1246   1.966   .     S
O1245  C1249   1.301   .     A
O1246  C1249   1.299   .     A
O1247  C1250   1.306   .     A
O1248  C1250   1.302   .     A
C1249  C1269   1.455   .     S
C1250  C1253   1.476   .     S
C1251  C1264   1.384   .     A
H1252  C324    1.084   1_556 S
C1253  C1263   1.411   .     A
C1253  C1264   1.407   .     A
C1254  C1255   1.388   .     A
C1254  C1265   1.408   .     A
C1254  O1323   1.383   .     S
C1255  C329    1.398   1_556 S
C1255  H339    1.084   1_556 S
C1256  O1325   1.373   .     S
C1257  C1258   1.424   .     A
C1257  C329    1.425   1_556 S
C1257  C332    1.433   1_556 S
C1258  C1265   1.420   .     A
C1258  C1262   1.419   .     A
C1259  C1263   1.425   .     A
C1260  C1261   1.401   .     A
C1260  C324    1.401   1_556 S
C1260  C332    1.424   1_556 S
C1261  C1262   1.408   .     A
C1261  O1319   1.384   .     S
C1262  O1327   1.381   .     S
C1263  O1321   1.383   .     S
C1264  O1282   1.370   .     S
C1267  C1329   1.490   .     S
C1267  C1273   1.417   .     A
C1267  C1577   1.397   .     S
C1268  C1284   1.478   .     S
C1268  C1269   1.408   .     A
C1269  C1270   1.396   .     A
C1270  H1271   1.084   .     S
C1272  O1295   1.380   .     S
C1272  C1273   1.418   .     A
C1272  C1579   1.388   .     S
C1274  N1281   1.395   .     A
C1274  C1297   1.484   .     S
C1274  C1378   1.419   .     S
C1275  N1277   1.352   .     A
C1275  H1276   1.083   .     S
C1275  C1480   1.419   1_455 S
N1277  C1278   1.384   .     A
C1278  C1308   1.474   .     S
C1278  C1485   1.421   1_455 S
C1279  H1280   1.078   .     S
C1279  N1281   1.358   .     A
C1279  C1381   1.421   .     S
O1282  H1283   0.985   .     S
C1284  C1289   1.400   .     A
C1284  C1285   1.405   .     A
C1285  C1286   1.395   .     A
C1285  H1290   1.077   .     S
C1286  C1287   1.393   .     A
C1286  H1291   1.083   .     S
C1287  C1288   1.396   .     A
C1287  H1292   1.082   .     S
C1288  C1289   1.399   .     A
C1288  H1396   1.070   .     S
C1289  H1294   1.082   .     S
H1293  C1494   1.070   1_455 S
O1295  H1296   0.989   .     S
C1297  C1302   1.403   .     A
C1297  C1298   1.408   .     A
C1298  H1303   1.084   .     S
C1298  C1299   1.398   .     A
C1299  H1304   1.080   .     S
C1299  C1300   1.395   .     A
C1300  H1305   1.083   .     S
C1300  C1301   1.395   .     A
C1301  H1306   1.083   .     S
C1301  C1302   1.398   .     A
C1302  H1307   1.066   .     S
C1308  C1313   1.406   .     A
C1308  C1309   1.400   .     A
C1309  C1310   1.397   .     A
C1309  H1314   1.074   .     S
C1310  C1311   1.395   .     A
C1310  H1315   1.080   .     S
C1311  H1316   1.082   .     S
C1311  C1312   1.398   .     A
C1312  C1313   1.399   .     A
C1312  H1317   1.082   .     S
C1313  H1318   1.083   .     S
O1319  H1320   0.990   .     S
O1321  H1322   0.990   .     S
O1323  H1324   0.992   .     S
O1325  H1326   0.990   .     S
O1327  H1328   0.991   .     S
C1329  C1330   1.403   .     A
C1329  C1334   1.406   .     A
C1330  H1335   1.081   .     S
C1330  C1331   1.398   .     A
C1331  H1336   1.082   .     S
C1331  C1435   1.401   .     S
C1332  H1337   1.081   .     S
C1332  C1333   1.394   .     A
C1332  C1537   1.401   1_455 S
C1333  H1338   1.082   .     S
C1333  C1540   1.395   1_455 S
C1334  H1339   1.083   .     S
C1334  C1436   1.395   .     S
O1340  C1342   1.304   .     A
O1340  Cu1346  1.966   .     S
O1341  Cu1347  1.974   .     S
O1341  C1342   1.296   .     A
C1342  C1376   1.463   .     S
O1343  Cu1346  1.961   .     S
O1343  C1345   1.295   .     A
O1344  C1345   1.307   .     A
O1344  Cu1347  1.956   .     S
C1345  C1368   1.470   .     S
Cu1346 Cu1347  2.702   .     S
Cu1346 O1350   1.956   .     S
Cu1346 O1348   1.974   .     S
Cu1346 N1380   2.030   .     S
Cu1347 N1384   2.030   .     S
Cu1347 O1351   1.961   .     S
Cu1347 O1349   1.966   .     S
O1348  C1352   1.301   .     A
O1349  C1352   1.299   .     A
O1350  C1353   1.306   .     A
O1351  C1353   1.302   .     A
C1352  C1372   1.455   .     S
C1353  C1356   1.476   .     S
C1354  C1367   1.384   .     A
H1355  C427    1.084   1_556 S
C1356  C1366   1.411   .     A
C1356  C1367   1.407   .     A
C1357  C1358   1.388   .     A
C1357  C1368   1.408   .     A
C1357  O1426   1.383   .     S
C1358  C432    1.398   1_556 S
C1358  H442    1.084   1_556 S
C1359  O1428   1.373   .     S
C1360  C1361   1.424   .     A
C1360  C432    1.425   1_556 S
C1360  C435    1.433   1_556 S
C1361  C1368   1.420   .     A
C1361  C1365   1.419   .     A
C1362  C1366   1.425   .     A
C1363  C1364   1.401   .     A
C1363  C427    1.401   1_556 S
C1363  C435    1.424   1_556 S
C1364  C1365   1.408   .     A
C1364  O1422   1.384   .     S
C1365  O1430   1.381   .     S
C1366  O1424   1.383   .     S
C1367  O1385   1.370   .     S
C1370  C1432   1.490   .     S
C1370  C1376   1.417   .     A
C1370  C1680   1.397   .     S
C1371  C1387   1.478   .     S
C1371  C1372   1.408   .     A
C1372  C1373   1.396   .     A
C1373  H1374   1.084   .     S
C1375  O1398   1.380   .     S
C1375  C1376   1.418   .     A
C1375  C1682   1.388   .     S
C1377  N1384   1.395   .     A
C1377  C1400   1.484   .     S
C1377  C1481   1.419   .     S
C1378  N1380   1.352   .     A
C1378  H1379   1.083   .     S
N1380  C1381   1.384   .     A
C1381  C1411   1.474   .     S
C1382  H1383   1.078   .     S
C1382  N1384   1.358   .     A
C1382  C1484   1.421   .     S
O1385  H1386   0.985   .     S
C1387  C1392   1.400   .     A
C1387  C1388   1.405   .     A
C1388  C1389   1.395   .     A
C1388  H1393   1.077   .     S
C1389  C1390   1.393   .     A
C1389  H1394   1.083   .     S
C1390  C1391   1.396   .     A
C1390  H1395   1.082   .     S
C1391  C1392   1.399   .     A
C1391  H1499   1.070   .     S
C1392  H1397   1.082   .     S
O1398  H1399   0.989   .     S
C1400  C1405   1.403   .     A
C1400  C1401   1.408   .     A
C1401  H1406   1.084   .     S
C1401  C1402   1.398   .     A
C1402  H1407   1.080   .     S
C1402  C1403   1.395   .     A
C1403  H1408   1.083   .     S
C1403  C1404   1.395   .     A
C1404  H1409   1.083   .     S
C1404  C1405   1.398   .     A
C1405  H1410   1.066   .     S
C1411  C1416   1.406   .     A
C1411  C1412   1.400   .     A
C1412  C1413   1.397   .     A
C1412  H1417   1.074   .     S
C1413  C1414   1.395   .     A
C1413  H1418   1.080   .     S
C1414  H1419   1.082   .     S
C1414  C1415   1.398   .     A
C1415  C1416   1.399   .     A
C1415  H1420   1.082   .     S
C1416  H1421   1.083   .     S
O1422  H1423   0.990   .     S
O1424  H1425   0.990   .     S
O1426  H1427   0.992   .     S
O1428  H1429   0.990   .     S
O1430  H1431   0.991   .     S
C1432  C1433   1.403   .     A
C1432  C1437   1.406   .     A
C1433  H1438   1.081   .     S
C1433  C1434   1.398   .     A
C1434  H1439   1.082   .     S
C1434  C1538   1.401   .     S
C1435  H1440   1.081   .     S
C1435  C1436   1.394   .     A
C1436  H1441   1.082   .     S
C1437  H1442   1.083   .     S
C1437  C1539   1.395   .     S
O1443  C1445   1.304   .     A
O1443  Cu1449  1.966   .     S
O1444  Cu1450  1.974   .     S
O1444  C1445   1.296   .     A
C1445  C1479   1.463   .     S
O1446  Cu1449  1.961   .     S
O1446  C1448   1.295   .     A
O1447  C1448   1.307   .     A
O1447  Cu1450  1.956   .     S
C1448  C1471   1.470   .     S
Cu1449 Cu1450  2.702   .     S
Cu1449 O1453   1.956   .     S
Cu1449 O1451   1.974   .     S
Cu1449 N1483   2.030   .     S
Cu1450 N1487   2.030   .     S
Cu1450 O1454   1.961   .     S
Cu1450 O1452   1.966   .     S
O1451  C1455   1.301   .     A
O1452  C1455   1.299   .     A
O1453  C1456   1.306   .     A
O1454  C1456   1.302   .     A
C1455  C1475   1.455   .     S
C1456  C1459   1.476   .     S
C1457  C1470   1.384   .     A
H1458  C530    1.084   1_556 S
C1459  C1469   1.411   .     A
C1459  C1470   1.407   .     A
C1460  C1461   1.388   .     A
C1460  C1471   1.408   .     A
C1460  O1529   1.383   .     S
C1461  C535    1.398   1_556 S
C1461  H545    1.084   1_556 S
C1462  O1531   1.373   .     S
C1463  C1464   1.424   .     A
C1463  C535    1.425   1_556 S
C1463  C538    1.433   1_556 S
C1464  C1471   1.420   .     A
C1464  C1468   1.419   .     A
C1465  C1469   1.425   .     A
C1466  C1467   1.401   .     A
C1466  C530    1.401   1_556 S
C1466  C538    1.424   1_556 S
C1467  C1468   1.408   .     A
C1467  O1525   1.384   .     S
C1468  O1533   1.381   .     S
C1469  O1527   1.383   .     S
C1470  O1488   1.370   .     S
C1473  C1535   1.490   .     S
C1473  C1479   1.417   .     A
C1473  C1783   1.397   .     S
C1474  C1490   1.478   .     S
C1474  C1475   1.408   .     A
C1475  C1476   1.396   .     A
C1476  H1477   1.084   .     S
C1478  O1501   1.380   .     S
C1478  C1479   1.418   .     A
C1478  C1785   1.388   .     S
C1480  N1487   1.395   .     A
C1480  C1503   1.484   .     S
C1480  C1275   1.419   1_655 S
C1481  N1483   1.352   .     A
C1481  H1482   1.083   .     S
N1483  C1484   1.384   .     A
C1484  C1514   1.474   .     S
C1485  H1486   1.078   .     S
C1485  N1487   1.358   .     A
C1485  C1278   1.421   1_655 S
O1488  H1489   0.985   .     S
C1490  C1495   1.400   .     A
C1490  C1491   1.405   .     A
C1491  C1492   1.395   .     A
C1491  H1496   1.077   .     S
C1492  C1493   1.393   .     A
C1492  H1497   1.083   .     S
C1493  C1494   1.396   .     A
C1493  H1498   1.082   .     S
C1494  C1495   1.399   .     A
C1494  H1293   1.070   1_655 S
C1495  H1500   1.082   .     S
O1501  H1502   0.989   .     S
C1503  C1508   1.403   .     A
C1503  C1504   1.408   .     A
C1504  H1509   1.084   .     S
C1504  C1505   1.398   .     A
C1505  H1510   1.080   .     S
C1505  C1506   1.395   .     A
C1506  H1511   1.083   .     S
C1506  C1507   1.395   .     A
C1507  H1512   1.083   .     S
C1507  C1508   1.398   .     A
C1508  H1513   1.066   .     S
C1514  C1519   1.406   .     A
C1514  C1515   1.400   .     A
C1515  C1516   1.397   .     A
C1515  H1520   1.074   .     S
C1516  C1517   1.395   .     A
C1516  H1521   1.080   .     S
C1517  H1522   1.082   .     S
C1517  C1518   1.398   .     A
C1518  C1519   1.399   .     A
C1518  H1523   1.082   .     S
C1519  H1524   1.083   .     S
O1525  H1526   0.990   .     S
O1527  H1528   0.990   .     S
O1529  H1530   0.992   .     S
O1531  H1532   0.990   .     S
O1533  H1534   0.991   .     S
C1535  C1536   1.403   .     A
C1535  C1540   1.406   .     A
C1536  H1541   1.081   .     S
C1536  C1537   1.398   .     A
C1537  H1542   1.082   .     S
C1537  C1332   1.401   1_655 S
C1538  H1543   1.081   .     S
C1538  C1539   1.394   .     A
C1539  H1544   1.082   .     S
C1540  H1545   1.083   .     S
C1540  C1333   1.395   1_655 S
O1546  C1548   1.304   .     A
O1546  Cu1552  1.966   .     S
O1547  Cu1553  1.974   .     S
O1547  C1548   1.296   .     A
C1548  C1582   1.463   .     S
O1549  Cu1552  1.961   .     S
O1549  C1551   1.295   .     A
O1550  C1551   1.307   .     A
O1550  Cu1553  1.956   .     S
C1551  C1574   1.470   .     S
Cu1552 Cu1553  2.702   .     S
Cu1552 O1556   1.956   .     S
Cu1552 O1554   1.974   .     S
Cu1552 N1586   2.030   .     S
Cu1553 N1590   2.030   .     S
Cu1553 O1557   1.961   .     S
Cu1553 O1555   1.966   .     S
O1554  C1558   1.301   .     A
O1555  C1558   1.299   .     A
O1556  C1559   1.306   .     A
O1557  C1559   1.302   .     A
C1558  C1578   1.455   .     S
C1559  C1562   1.476   .     S
C1560  C1573   1.384   .     A
H1561  C633    1.084   1_556 S
C1562  C1572   1.411   .     A
C1562  C1573   1.407   .     A
C1563  C1564   1.388   .     A
C1563  C1574   1.408   .     A
C1563  O1632   1.383   .     S
C1564  C638    1.398   1_556 S
C1564  H648    1.084   1_556 S
C1565  O1634   1.373   .     S
C1566  C1567   1.424   .     A
C1566  C638    1.425   1_556 S
C1566  C641    1.433   1_556 S
C1567  C1574   1.420   .     A
C1567  C1571   1.419   .     A
C1568  C1572   1.425   .     A
C1569  C1570   1.401   .     A
C1569  C633    1.401   1_556 S
C1569  C641    1.424   1_556 S
C1570  C1571   1.408   .     A
C1570  O1628   1.384   .     S
C1571  O1636   1.381   .     S
C1572  O1630   1.383   .     S
C1573  O1591   1.370   .     S
C1576  C1638   1.490   .     S
C1576  C1582   1.417   .     A
C1576  C959    1.397   1_565 S
C1577  C1593   1.478   .     S
C1577  C1578   1.408   .     A
C1578  C1579   1.396   .     A
C1579  H1580   1.084   .     S
C1581  O1604   1.380   .     S
C1581  C1582   1.418   .     A
C1581  C961    1.388   1_565 S
C1583  N1590   1.395   .     A
C1583  C1606   1.484   .     S
C1583  C1687   1.419   .     S
C1584  N1586   1.352   .     A
C1584  H1585   1.083   .     S
C1584  C1789   1.419   1_455 S
N1586  C1587   1.384   .     A
C1587  C1617   1.474   .     S
C1587  C1794   1.421   1_455 S
C1588  H1589   1.078   .     S
C1588  N1590   1.358   .     A
C1588  C1690   1.421   .     S
O1591  H1592   0.985   .     S
C1593  C1598   1.400   .     A
C1593  C1594   1.405   .     A
C1594  C1595   1.395   .     A
C1594  H1599   1.077   .     S
C1595  C1596   1.393   .     A
C1595  H1600   1.083   .     S
C1596  C1597   1.396   .     A
C1596  H1601   1.082   .     S
C1597  C1598   1.399   .     A
C1597  H1705   1.070   .     S
C1598  H1603   1.082   .     S
H1602  C1803   1.070   1_455 S
O1604  H1605   0.989   .     S
C1606  C1611   1.403   .     A
C1606  C1607   1.408   .     A
C1607  H1612   1.084   .     S
C1607  C1608   1.398   .     A
C1608  H1613   1.080   .     S
C1608  C1609   1.395   .     A
C1609  H1614   1.083   .     S
C1609  C1610   1.395   .     A
C1610  H1615   1.083   .     S
C1610  C1611   1.398   .     A
C1611  H1616   1.066   .     S
C1617  C1622   1.406   .     A
C1617  C1618   1.400   .     A
C1618  C1619   1.397   .     A
C1618  H1623   1.074   .     S
C1619  C1620   1.395   .     A
C1619  H1624   1.080   .     S
C1620  H1625   1.082   .     S
C1620  C1621   1.398   .     A
C1621  C1622   1.399   .     A
C1621  H1626   1.082   .     S
C1622  H1627   1.083   .     S
O1628  H1629   0.990   .     S
O1630  H1631   0.990   .     S
O1632  H1633   0.992   .     S
O1634  H1635   0.990   .     S
O1636  H1637   0.991   .     S
C1638  C1639   1.403   .     A
C1638  C1643   1.406   .     A
C1639  H1644   1.081   .     S
C1639  C1640   1.398   .     A
C1640  H1645   1.082   .     S
C1640  C1744   1.401   .     S
C1641  H1646   1.081   .     S
C1641  C1642   1.394   .     A
C1641  C1846   1.401   1_455 S
C1642  H1647   1.082   .     S
C1642  C1849   1.395   1_455 S
C1643  H1648   1.083   .     S
C1643  C1745   1.395   .     S
O1649  C1651   1.304   .     A
O1649  Cu1655  1.966   .     S
O1650  Cu1656  1.974   .     S
O1650  C1651   1.296   .     A
C1651  C1685   1.463   .     S
O1652  Cu1655  1.961   .     S
O1652  C1654   1.295   .     A
O1653  C1654   1.307   .     A
O1653  Cu1656  1.956   .     S
C1654  C1677   1.470   .     S
Cu1655 Cu1656  2.702   .     S
Cu1655 O1659   1.956   .     S
Cu1655 O1657   1.974   .     S
Cu1655 N1689   2.030   .     S
Cu1656 N1693   2.030   .     S
Cu1656 O1660   1.961   .     S
Cu1656 O1658   1.966   .     S
O1657  C1661   1.301   .     A
O1658  C1661   1.299   .     A
O1659  C1662   1.306   .     A
O1660  C1662   1.302   .     A
C1661  C1681   1.455   .     S
C1662  C1665   1.476   .     S
C1663  C1676   1.384   .     A
H1664  C736    1.084   1_556 S
C1665  C1675   1.411   .     A
C1665  C1676   1.407   .     A
C1666  C1667   1.388   .     A
C1666  C1677   1.408   .     A
C1666  O1735   1.383   .     S
C1667  C741    1.398   1_556 S
C1667  H751    1.084   1_556 S
C1668  O1737   1.373   .     S
C1669  C1670   1.424   .     A
C1669  C741    1.425   1_556 S
C1669  C744    1.433   1_556 S
C1670  C1677   1.420   .     A
C1670  C1674   1.419   .     A
C1671  C1675   1.425   .     A
C1672  C1673   1.401   .     A
C1672  C736    1.401   1_556 S
C1672  C744    1.424   1_556 S
C1673  C1674   1.408   .     A
C1673  O1731   1.384   .     S
C1674  O1739   1.381   .     S
C1675  O1733   1.383   .     S
C1676  O1694   1.370   .     S
C1679  C1741   1.490   .     S
C1679  C1685   1.417   .     A
C1679  C1062   1.397   1_565 S
C1680  C1696   1.478   .     S
C1680  C1681   1.408   .     A
C1681  C1682   1.396   .     A
C1682  H1683   1.084   .     S
C1684  O1707   1.380   .     S
C1684  C1685   1.418   .     A
C1684  C1064   1.388   1_565 S
C1686  N1693   1.395   .     A
C1686  C1709   1.484   .     S
C1686  C1790   1.419   .     S
C1687  N1689   1.352   .     A
C1687  H1688   1.083   .     S
N1689  C1690   1.384   .     A
C1690  C1720   1.474   .     S
C1691  H1692   1.078   .     S
C1691  N1693   1.358   .     A
C1691  C1793   1.421   .     S
O1694  H1695   0.985   .     S
C1696  C1701   1.400   .     A
C1696  C1697   1.405   .     A
C1697  C1698   1.395   .     A
C1697  H1702   1.077   .     S
C1698  C1699   1.393   .     A
C1698  H1703   1.083   .     S
C1699  C1700   1.396   .     A
C1699  H1704   1.082   .     S
C1700  C1701   1.399   .     A
C1700  H1808   1.070   .     S
C1701  H1706   1.082   .     S
O1707  H1708   0.989   .     S
C1709  C1714   1.403   .     A
C1709  C1710   1.408   .     A
C1710  H1715   1.084   .     S
C1710  C1711   1.398   .     A
C1711  H1716   1.080   .     S
C1711  C1712   1.395   .     A
C1712  H1717   1.083   .     S
C1712  C1713   1.395   .     A
C1713  H1718   1.083   .     S
C1713  C1714   1.398   .     A
C1714  H1719   1.066   .     S
C1720  C1725   1.406   .     A
C1720  C1721   1.400   .     A
C1721  C1722   1.397   .     A
C1721  H1726   1.074   .     S
C1722  C1723   1.395   .     A
C1722  H1727   1.080   .     S
C1723  H1728   1.082   .     S
C1723  C1724   1.398   .     A
C1724  C1725   1.399   .     A
C1724  H1729   1.082   .     S
C1725  H1730   1.083   .     S
O1731  H1732   0.990   .     S
O1733  H1734   0.990   .     S
O1735  H1736   0.992   .     S
O1737  H1738   0.990   .     S
O1739  H1740   0.991   .     S
C1741  C1742   1.403   .     A
C1741  C1746   1.406   .     A
C1742  H1747   1.081   .     S
C1742  C1743   1.398   .     A
C1743  H1748   1.082   .     S
C1743  C1847   1.401   .     S
C1744  H1749   1.081   .     S
C1744  C1745   1.394   .     A
C1745  H1750   1.082   .     S
C1746  H1751   1.083   .     S
C1746  C1848   1.395   .     S
O1752  C1754   1.304   .     A
O1752  Cu1758  1.966   .     S
O1753  Cu1759  1.974   .     S
O1753  C1754   1.296   .     A
C1754  C1788   1.463   .     S
O1755  Cu1758  1.961   .     S
O1755  C1757   1.295   .     A
O1756  C1757   1.307   .     A
O1756  Cu1759  1.956   .     S
C1757  C1780   1.470   .     S
Cu1758 Cu1759  2.702   .     S
Cu1758 O1762   1.956   .     S
Cu1758 O1760   1.974   .     S
Cu1758 N1792   2.030   .     S
Cu1759 N1796   2.030   .     S
Cu1759 O1763   1.961   .     S
Cu1759 O1761   1.966   .     S
O1760  C1764   1.301   .     A
O1761  C1764   1.299   .     A
O1762  C1765   1.306   .     A
O1763  C1765   1.302   .     A
C1764  C1784   1.455   .     S
C1765  C1768   1.476   .     S
C1766  C1779   1.384   .     A
H1767  C839    1.084   1_556 S
C1768  C1778   1.411   .     A
C1768  C1779   1.407   .     A
C1769  C1770   1.388   .     A
C1769  C1780   1.408   .     A
C1769  O1838   1.383   .     S
C1770  C844    1.398   1_556 S
C1770  H854    1.084   1_556 S
C1771  O1840   1.373   .     S
C1772  C1773   1.424   .     A
C1772  C844    1.425   1_556 S
C1772  C847    1.433   1_556 S
C1773  C1780   1.420   .     A
C1773  C1777   1.419   .     A
C1774  C1778   1.425   .     A
C1775  C1776   1.401   .     A
C1775  C839    1.401   1_556 S
C1775  C847    1.424   1_556 S
C1776  C1777   1.408   .     A
C1776  O1834   1.384   .     S
C1777  O1842   1.381   .     S
C1778  O1836   1.383   .     S
C1779  O1797   1.370   .     S
C1782  C1844   1.490   .     S
C1782  C1788   1.417   .     A
C1782  C1165   1.397   1_565 S
C1783  C1799   1.478   .     S
C1783  C1784   1.408   .     A
C1784  C1785   1.396   .     A
C1785  H1786   1.084   .     S
C1787  O1810   1.380   .     S
C1787  C1788   1.418   .     A
C1787  C1167   1.388   1_565 S
C1789  N1796   1.395   .     A
C1789  C1812   1.484   .     S
C1789  C1584   1.419   1_655 S
C1790  N1792   1.352   .     A
C1790  H1791   1.083   .     S
N1792  C1793   1.384   .     A
C1793  C1823   1.474   .     S
C1794  H1795   1.078   .     S
C1794  N1796   1.358   .     A
C1794  C1587   1.421   1_655 S
O1797  H1798   0.985   .     S
C1799  C1804   1.400   .     A
C1799  C1800   1.405   .     A
C1800  C1801   1.395   .     A
C1800  H1805   1.077   .     S
C1801  C1802   1.393   .     A
C1801  H1806   1.083   .     S
C1802  C1803   1.396   .     A
C1802  H1807   1.082   .     S
C1803  C1804   1.399   .     A
C1803  H1602   1.070   1_655 S
C1804  H1809   1.082   .     S
O1810  H1811   0.989   .     S
C1812  C1817   1.403   .     A
C1812  C1813   1.408   .     A
C1813  H1818   1.084   .     S
C1813  C1814   1.398   .     A
C1814  H1819   1.080   .     S
C1814  C1815   1.395   .     A
C1815  H1820   1.083   .     S
C1815  C1816   1.395   .     A
C1816  H1821   1.083   .     S
C1816  C1817   1.398   .     A
C1817  H1822   1.066   .     S
C1823  C1828   1.406   .     A
C1823  C1824   1.400   .     A
C1824  C1825   1.397   .     A
C1824  H1829   1.074   .     S
C1825  C1826   1.395   .     A
C1825  H1830   1.080   .     S
C1826  H1831   1.082   .     S
C1826  C1827   1.398   .     A
C1827  C1828   1.399   .     A
C1827  H1832   1.082   .     S
C1828  H1833   1.083   .     S
O1834  H1835   0.990   .     S
O1836  H1837   0.990   .     S
O1838  H1839   0.992   .     S
O1840  H1841   0.990   .     S
O1842  H1843   0.991   .     S
C1844  C1845   1.403   .     A
C1844  C1849   1.406   .     A
C1845  H1850   1.081   .     S
C1845  C1846   1.398   .     A
C1846  H1851   1.082   .     S
C1846  C1641   1.401   1_655 S
C1847  H1852   1.081   .     S
C1847  C1848   1.394   .     A
C1848  H1853   1.082   .     S
C1849  H1854   1.083   .     S
C1849  C1642   1.395   1_655 S
