data_str_m2_o1_o10_pcu_sym.46
_audit_creation_date              2020-01-03
_audit_creation_method            'Materials Studio'
_symmetry_space_group_name_H-M    'P1'
_symmetry_Int_Tables_number       1
_symmetry_cell_setting            triclinic
loop_
_symmetry_equiv_pos_as_xyz
  x,y,z
_cell_length_a                    26.2404
_cell_length_b                    32.6868
_cell_length_c                    28.9918
_cell_angle_alpha                 91.6711
_cell_angle_beta                  96.5159
_cell_angle_gamma                 93.1022
loop_
_atom_site_label
_atom_site_type_symbol
_atom_site_fract_x
_atom_site_fract_y
_atom_site_fract_z
_atom_site_U_iso_or_equiv
_atom_site_adp_type
_atom_site_occupancy
C1     C     0.16711   0.08750   0.16587   0.00000  Uiso   1.00
C2     C     0.17976   0.02408   0.20700   0.00000  Uiso   1.00
C3     C     0.16473   0.29052   0.16879   0.00000  Uiso   1.00
C4     C     0.16860   0.04282   0.16454   0.00000  Uiso   1.00
C5     C     0.13148   0.14234   0.02000   0.00000  Uiso   1.00
C6     C     0.20185   0.19100   0.31334   0.00000  Uiso   1.00
C7     C     0.13279   0.14138   0.30414   0.00000  Uiso   1.00
C8     C     0.20054   0.19195   0.02919   0.00000  Uiso   1.00
C9     C     0.33020   0.11058   0.13918   0.00000  Uiso   1.00
C10    C     0.00313   0.22275   0.19415   0.00000  Uiso   1.00
C11    C     0.14787   0.03396   0.07598   0.00000  Uiso   1.00
C12    C     0.16622   0.24583   0.16746   0.00000  Uiso   1.00
C13    C     0.18546   0.29938   0.25735   0.00000  Uiso   1.00
C14    C     0.03948   0.12878   0.02433   0.00000  Uiso   1.00
C15    C     0.29385   0.20455   0.30901   0.00000  Uiso   1.00
C16    C     0.09989   0.10973   0.27580   0.00000  Uiso   1.00
C17    C     0.23344   0.22361   0.05753   0.00000  Uiso   1.00
C18    C     0.06839   0.16407   0.15560   0.00000  Uiso   1.00
C19    C     0.26494   0.16926   0.17773   0.00000  Uiso   1.00
C20    C     0.01397   0.15419   0.15427   0.00000  Uiso   1.00
C21    C     0.31937   0.17914   0.17906   0.00000  Uiso   1.00
C22    C     0.15669   0.01819   0.12328   0.00000  Uiso   1.00
C23    C     0.17664   0.31514   0.21005   0.00000  Uiso   1.00
C24    C     0.15358   0.30925   0.12634   0.00000  Uiso   1.00
Cu25   Cu    0.16667   0.16667   0.21355   0.00000  Uiso   1.00
Cu26   Cu    0.16667   0.16666   0.11978   0.00000  Uiso   1.00
H27    H     0.14318   0.29076   0.09467   0.00000  Uiso   1.00
H28    H     0.02232   0.14143   0.05441   0.00000  Uiso   1.00
H29    H     0.23470   0.22648   0.26308   0.00000  Uiso   1.00
H30    H     0.31717   0.23241   0.32307   0.00000  Uiso   1.00
H31    H     0.31101   0.19190   0.27893   0.00000  Uiso   1.00
H32    H     0.29549   0.18090   0.00227   0.00000  Uiso   1.00
H33    H     0.03186   0.09388   0.23833   0.00000  Uiso   1.00
H34    H     0.30147   0.23946   0.09500   0.00000  Uiso   1.00
H35    H     0.19015   0.04257   0.23866   0.00000  Uiso   1.00
H36    H     0.27765   0.06291   0.13786   0.00000  Uiso   1.00
H37    H     0.05567   0.27043   0.19544   0.00000  Uiso   1.00
H38    H     0.10126   0.03299   0.01561   0.00000  Uiso   1.00
H39    H     0.23208   0.30034   0.31773   0.00000  Uiso   1.00
H40    H     0.09864   0.10685   0.07026   0.00000  Uiso   1.00
H41    H     0.01617   0.10092   0.01026   0.00000  Uiso   1.00
H42    H     0.03785   0.15243   0.33107   0.00000  Uiso   1.00
N43    N     0.16668   0.16668   0.28403   0.00000  Uiso   1.00
N44    N     0.16665   0.16666   0.04931   0.00000  Uiso   1.00
N45    N     0.09187   0.11826   0.03790   0.00000  Uiso   1.00
N46    N     0.24147   0.21507   0.29543   0.00000  Uiso   1.00
O47    O     0.16666   0.10655   0.20625   0.00000  Uiso   1.00
O48    O     0.28343   0.09257   0.14937   0.00000  Uiso   1.00
O49    O     0.30766   0.24390   0.21353   0.00000  Uiso   1.00
O50    O     0.04989   0.24076   0.18393   0.00000  Uiso   1.00
O51    O     0.18171   0.05457   0.06026   0.00000  Uiso   1.00
O52    O     0.10223   0.02207   0.04800   0.00000  Uiso   1.00
O53    O     0.15162   0.27876   0.27307   0.00000  Uiso   1.00
O54    O     0.23110   0.31126   0.28533   0.00000  Uiso   1.00
O55    O     0.11351   0.07462   0.27422   0.00000  Uiso   1.00
O56    O     0.05140   0.11871   0.25484   0.00000  Uiso   1.00
O57    O     0.21982   0.25871   0.05911   0.00000  Uiso   1.00
O58    O     0.16667   0.22678   0.12709   0.00000  Uiso   1.00
O59    O     0.28193   0.21462   0.07849   0.00000  Uiso   1.00
O60    O     0.16666   0.10654   0.12706   0.00000  Uiso   1.00
O61    O     0.16667   0.22679   0.20628   0.00000  Uiso   1.00
O62    O     0.09161   0.16667   0.19712   0.00000  Uiso   1.00
O63    O     0.24172   0.16666   0.13621   0.00000  Uiso   1.00
O64    O     0.09161   0.16666   0.11793   0.00000  Uiso   1.00
O65    O     0.24172   0.16667   0.21540   0.00000  Uiso   1.00
O66    O     0.02569   0.08942   0.11982   0.00000  Uiso   1.00
C67    C     0.50044   0.08750   0.16587   0.00000  Uiso   1.00
C68    C     0.51309   0.02408   0.20700   0.00000  Uiso   1.00
C69    C     0.49807   0.29052   0.16879   0.00000  Uiso   1.00
C70    C     0.50193   0.04282   0.16454   0.00000  Uiso   1.00
C71    C     0.46482   0.14234   0.02000   0.00000  Uiso   1.00
C72    C     0.53518   0.19100   0.31334   0.00000  Uiso   1.00
C73    C     0.46613   0.14138   0.30414   0.00000  Uiso   1.00
C74    C     0.53387   0.19195   0.02919   0.00000  Uiso   1.00
C75    C     0.66354   0.11058   0.13918   0.00000  Uiso   1.00
C76    C     0.33647   0.22275   0.19415   0.00000  Uiso   1.00
C77    C     0.48121   0.03396   0.07598   0.00000  Uiso   1.00
C78    C     0.49956   0.24583   0.16746   0.00000  Uiso   1.00
C79    C     0.51880   0.29938   0.25735   0.00000  Uiso   1.00
C80    C     0.37282   0.12878   0.02433   0.00000  Uiso   1.00
C81    C     0.62718   0.20455   0.30901   0.00000  Uiso   1.00
C82    C     0.43322   0.10973   0.27580   0.00000  Uiso   1.00
C83    C     0.56678   0.22361   0.05753   0.00000  Uiso   1.00
C84    C     0.40173   0.16407   0.15560   0.00000  Uiso   1.00
C85    C     0.59827   0.16926   0.17773   0.00000  Uiso   1.00
C86    C     0.34730   0.15419   0.15427   0.00000  Uiso   1.00
C87    C     0.65270   0.17914   0.17906   0.00000  Uiso   1.00
C88    C     0.49003   0.01819   0.12328   0.00000  Uiso   1.00
C89    C     0.50997   0.31514   0.21005   0.00000  Uiso   1.00
C90    C     0.48691   0.30925   0.12634   0.00000  Uiso   1.00
Cu91   Cu    0.50000   0.16667   0.21355   0.00000  Uiso   1.00
Cu92   Cu    0.50000   0.16666   0.11978   0.00000  Uiso   1.00
H93    H     0.47652   0.29076   0.09467   0.00000  Uiso   1.00
H94    H     0.35566   0.14143   0.05441   0.00000  Uiso   1.00
H95    H     0.56803   0.22648   0.26308   0.00000  Uiso   1.00
H96    H     0.65050   0.23241   0.32307   0.00000  Uiso   1.00
H97    H     0.64434   0.19190   0.27893   0.00000  Uiso   1.00
H98    H     0.62882   0.18090   0.00227   0.00000  Uiso   1.00
H99    H     0.36519   0.09388   0.23833   0.00000  Uiso   1.00
H100   H     0.63480   0.23946   0.09500   0.00000  Uiso   1.00
H101   H     0.52348   0.04257   0.23866   0.00000  Uiso   1.00
H102   H     0.61099   0.06291   0.13786   0.00000  Uiso   1.00
H103   H     0.38900   0.27043   0.19544   0.00000  Uiso   1.00
H104   H     0.43459   0.03299   0.01561   0.00000  Uiso   1.00
H105   H     0.56541   0.30034   0.31773   0.00000  Uiso   1.00
H106   H     0.43197   0.10685   0.07026   0.00000  Uiso   1.00
H107   H     0.34950   0.10092   0.01026   0.00000  Uiso   1.00
H108   H     0.37118   0.15243   0.33107   0.00000  Uiso   1.00
N109   N     0.50001   0.16668   0.28403   0.00000  Uiso   1.00
N110   N     0.49999   0.16666   0.04931   0.00000  Uiso   1.00
N111   N     0.42520   0.11826   0.03790   0.00000  Uiso   1.00
N112   N     0.57480   0.21507   0.29543   0.00000  Uiso   1.00
O113   O     0.50000   0.10655   0.20625   0.00000  Uiso   1.00
O114   O     0.61676   0.09257   0.14937   0.00000  Uiso   1.00
O115   O     0.64099   0.24390   0.21353   0.00000  Uiso   1.00
O116   O     0.38322   0.24076   0.18393   0.00000  Uiso   1.00
O117   O     0.51505   0.05457   0.06026   0.00000  Uiso   1.00
O118   O     0.43557   0.02207   0.04800   0.00000  Uiso   1.00
O119   O     0.48496   0.27876   0.27307   0.00000  Uiso   1.00
O120   O     0.56444   0.31126   0.28533   0.00000  Uiso   1.00
O121   O     0.44685   0.07462   0.27422   0.00000  Uiso   1.00
O122   O     0.38473   0.11871   0.25484   0.00000  Uiso   1.00
O123   O     0.55315   0.25871   0.05911   0.00000  Uiso   1.00
O124   O     0.50000   0.22678   0.12709   0.00000  Uiso   1.00
O125   O     0.61527   0.21462   0.07849   0.00000  Uiso   1.00
O126   O     0.50000   0.10654   0.12706   0.00000  Uiso   1.00
O127   O     0.50000   0.22679   0.20628   0.00000  Uiso   1.00
O128   O     0.42495   0.16667   0.19712   0.00000  Uiso   1.00
O129   O     0.57505   0.16666   0.13621   0.00000  Uiso   1.00
O130   O     0.42494   0.16666   0.11793   0.00000  Uiso   1.00
O131   O     0.57506   0.16667   0.21540   0.00000  Uiso   1.00
O132   O     0.35902   0.08942   0.11982   0.00000  Uiso   1.00
C133   C     0.83378   0.08750   0.16587   0.00000  Uiso   1.00
C134   C     0.84642   0.02408   0.20700   0.00000  Uiso   1.00
C135   C     0.83140   0.29052   0.16879   0.00000  Uiso   1.00
C136   C     0.83527   0.04282   0.16454   0.00000  Uiso   1.00
C137   C     0.79815   0.14234   0.02000   0.00000  Uiso   1.00
C138   C     0.86852   0.19100   0.31334   0.00000  Uiso   1.00
C139   C     0.79946   0.14138   0.30414   0.00000  Uiso   1.00
C140   C     0.86721   0.19195   0.02919   0.00000  Uiso   1.00
C141   C     0.99687   0.11058   0.13918   0.00000  Uiso   1.00
C142   C     0.66980   0.22275   0.19415   0.00000  Uiso   1.00
C143   C     0.81454   0.03396   0.07598   0.00000  Uiso   1.00
C144   C     0.83289   0.24583   0.16746   0.00000  Uiso   1.00
C145   C     0.85213   0.29938   0.25735   0.00000  Uiso   1.00
C146   C     0.70615   0.12878   0.02433   0.00000  Uiso   1.00
C147   C     0.96052   0.20455   0.30901   0.00000  Uiso   1.00
C148   C     0.76655   0.10973   0.27580   0.00000  Uiso   1.00
C149   C     0.90011   0.22361   0.05753   0.00000  Uiso   1.00
C150   C     0.73506   0.16407   0.15560   0.00000  Uiso   1.00
C151   C     0.93161   0.16926   0.17773   0.00000  Uiso   1.00
C152   C     0.68063   0.15419   0.15427   0.00000  Uiso   1.00
C153   C     0.98603   0.17914   0.17906   0.00000  Uiso   1.00
C154   C     0.82336   0.01819   0.12328   0.00000  Uiso   1.00
C155   C     0.84331   0.31514   0.21005   0.00000  Uiso   1.00
C156   C     0.82024   0.30925   0.12634   0.00000  Uiso   1.00
Cu157  Cu    0.83333   0.16667   0.21355   0.00000  Uiso   1.00
Cu158  Cu    0.83333   0.16666   0.11978   0.00000  Uiso   1.00
H159   H     0.80985   0.29076   0.09467   0.00000  Uiso   1.00
H160   H     0.68899   0.14143   0.05441   0.00000  Uiso   1.00
H161   H     0.90137   0.22648   0.26308   0.00000  Uiso   1.00
H162   H     0.98384   0.23241   0.32307   0.00000  Uiso   1.00
H163   H     0.97767   0.19190   0.27893   0.00000  Uiso   1.00
H164   H     0.96215   0.18090   0.00227   0.00000  Uiso   1.00
H165   H     0.69853   0.09388   0.23833   0.00000  Uiso   1.00
H166   H     0.96814   0.23946   0.09500   0.00000  Uiso   1.00
H167   H     0.85682   0.04257   0.23866   0.00000  Uiso   1.00
H168   H     0.94432   0.06291   0.13786   0.00000  Uiso   1.00
H169   H     0.72234   0.27043   0.19544   0.00000  Uiso   1.00
H170   H     0.76793   0.03299   0.01561   0.00000  Uiso   1.00
H171   H     0.89874   0.30034   0.31773   0.00000  Uiso   1.00
H172   H     0.76530   0.10685   0.07026   0.00000  Uiso   1.00
H173   H     0.68283   0.10092   0.01026   0.00000  Uiso   1.00
H174   H     0.70451   0.15243   0.33107   0.00000  Uiso   1.00
N175   N     0.83335   0.16668   0.28403   0.00000  Uiso   1.00
N176   N     0.83332   0.16666   0.04931   0.00000  Uiso   1.00
N177   N     0.75853   0.11826   0.03790   0.00000  Uiso   1.00
N178   N     0.90814   0.21507   0.29543   0.00000  Uiso   1.00
O179   O     0.83333   0.10655   0.20625   0.00000  Uiso   1.00
O180   O     0.95010   0.09257   0.14937   0.00000  Uiso   1.00
O181   O     0.97432   0.24390   0.21353   0.00000  Uiso   1.00
O182   O     0.71656   0.24076   0.18393   0.00000  Uiso   1.00
O183   O     0.84838   0.05457   0.06026   0.00000  Uiso   1.00
O184   O     0.76890   0.02207   0.04800   0.00000  Uiso   1.00
O185   O     0.81829   0.27876   0.27307   0.00000  Uiso   1.00
O186   O     0.89777   0.31126   0.28533   0.00000  Uiso   1.00
O187   O     0.78018   0.07462   0.27422   0.00000  Uiso   1.00
O188   O     0.71807   0.11871   0.25484   0.00000  Uiso   1.00
O189   O     0.88648   0.25871   0.05911   0.00000  Uiso   1.00
O190   O     0.83334   0.22678   0.12709   0.00000  Uiso   1.00
O191   O     0.94860   0.21462   0.07849   0.00000  Uiso   1.00
O192   O     0.83333   0.10654   0.12706   0.00000  Uiso   1.00
O193   O     0.83334   0.22679   0.20628   0.00000  Uiso   1.00
O194   O     0.75828   0.16667   0.19712   0.00000  Uiso   1.00
O195   O     0.90839   0.16666   0.13621   0.00000  Uiso   1.00
O196   O     0.75828   0.16666   0.11793   0.00000  Uiso   1.00
O197   O     0.90839   0.16667   0.21540   0.00000  Uiso   1.00
O198   O     0.69236   0.08942   0.11982   0.00000  Uiso   1.00
C199   C     0.16711   0.42084   0.16587   0.00000  Uiso   1.00
C200   C     0.17976   0.35742   0.20700   0.00000  Uiso   1.00
C201   C     0.16473   0.62385   0.16879   0.00000  Uiso   1.00
C202   C     0.16860   0.37615   0.16454   0.00000  Uiso   1.00
C203   C     0.13148   0.47567   0.02000   0.00000  Uiso   1.00
C204   C     0.20185   0.52433   0.31334   0.00000  Uiso   1.00
C205   C     0.13279   0.47471   0.30414   0.00000  Uiso   1.00
C206   C     0.20054   0.52529   0.02919   0.00000  Uiso   1.00
C207   C     0.33020   0.44391   0.13918   0.00000  Uiso   1.00
C208   C     0.00313   0.55609   0.19415   0.00000  Uiso   1.00
C209   C     0.14787   0.36729   0.07598   0.00000  Uiso   1.00
C210   C     0.16622   0.57916   0.16746   0.00000  Uiso   1.00
C211   C     0.18546   0.63271   0.25735   0.00000  Uiso   1.00
C212   C     0.03948   0.46211   0.02433   0.00000  Uiso   1.00
C213   C     0.29385   0.53789   0.30901   0.00000  Uiso   1.00
C214   C     0.09989   0.44306   0.27580   0.00000  Uiso   1.00
C215   C     0.23344   0.55694   0.05753   0.00000  Uiso   1.00
C216   C     0.06839   0.49741   0.15560   0.00000  Uiso   1.00
C217   C     0.26494   0.50259   0.17773   0.00000  Uiso   1.00
C218   C     0.01397   0.48753   0.15427   0.00000  Uiso   1.00
C219   C     0.31937   0.51247   0.17906   0.00000  Uiso   1.00
C220   C     0.15669   0.35152   0.12328   0.00000  Uiso   1.00
C221   C     0.17664   0.64848   0.21005   0.00000  Uiso   1.00
C222   C     0.15358   0.64258   0.12634   0.00000  Uiso   1.00
Cu223  Cu    0.16667   0.50001   0.21355   0.00000  Uiso   1.00
Cu224  Cu    0.16667   0.49999   0.11978   0.00000  Uiso   1.00
H225   H     0.14318   0.62409   0.09467   0.00000  Uiso   1.00
H226   H     0.02232   0.47476   0.05441   0.00000  Uiso   1.00
H227   H     0.23470   0.55981   0.26308   0.00000  Uiso   1.00
H228   H     0.31717   0.56574   0.32307   0.00000  Uiso   1.00
H229   H     0.31101   0.52523   0.27893   0.00000  Uiso   1.00
H230   H     0.29549   0.51424   0.00227   0.00000  Uiso   1.00
H231   H     0.03186   0.42721   0.23833   0.00000  Uiso   1.00
H232   H     0.30147   0.57279   0.09500   0.00000  Uiso   1.00
H233   H     0.19015   0.37591   0.23866   0.00000  Uiso   1.00
H234   H     0.27765   0.39624   0.13786   0.00000  Uiso   1.00
H235   H     0.05567   0.60376   0.19544   0.00000  Uiso   1.00
H236   H     0.10126   0.36632   0.01561   0.00000  Uiso   1.00
H237   H     0.23208   0.63368   0.31773   0.00000  Uiso   1.00
H238   H     0.09864   0.44018   0.07026   0.00000  Uiso   1.00
H239   H     0.01617   0.43425   0.01026   0.00000  Uiso   1.00
H240   H     0.03785   0.48576   0.33107   0.00000  Uiso   1.00
N241   N     0.16668   0.50001   0.28403   0.00000  Uiso   1.00
N242   N     0.16665   0.49999   0.04931   0.00000  Uiso   1.00
N243   N     0.09187   0.45159   0.03790   0.00000  Uiso   1.00
N244   N     0.24147   0.54841   0.29543   0.00000  Uiso   1.00
O245   O     0.16666   0.43989   0.20625   0.00000  Uiso   1.00
O246   O     0.28343   0.42591   0.14937   0.00000  Uiso   1.00
O247   O     0.30766   0.57723   0.21353   0.00000  Uiso   1.00
O248   O     0.04989   0.57410   0.18393   0.00000  Uiso   1.00
O249   O     0.18171   0.38791   0.06026   0.00000  Uiso   1.00
O250   O     0.10223   0.35541   0.04800   0.00000  Uiso   1.00
O251   O     0.15162   0.61209   0.27307   0.00000  Uiso   1.00
O252   O     0.23110   0.64459   0.28533   0.00000  Uiso   1.00
O253   O     0.11351   0.40796   0.27422   0.00000  Uiso   1.00
O254   O     0.05140   0.45205   0.25484   0.00000  Uiso   1.00
O255   O     0.21982   0.59204   0.05911   0.00000  Uiso   1.00
O256   O     0.16667   0.56011   0.12709   0.00000  Uiso   1.00
O257   O     0.28193   0.54796   0.07849   0.00000  Uiso   1.00
O258   O     0.16666   0.43988   0.12706   0.00000  Uiso   1.00
O259   O     0.16667   0.56012   0.20628   0.00000  Uiso   1.00
O260   O     0.09161   0.50000   0.19712   0.00000  Uiso   1.00
O261   O     0.24172   0.50000   0.13621   0.00000  Uiso   1.00
O262   O     0.09161   0.49999   0.11793   0.00000  Uiso   1.00
O263   O     0.24172   0.50001   0.21540   0.00000  Uiso   1.00
O264   O     0.02569   0.42276   0.11982   0.00000  Uiso   1.00
C265   C     0.50044   0.42084   0.16587   0.00000  Uiso   1.00
C266   C     0.51309   0.35742   0.20700   0.00000  Uiso   1.00
C267   C     0.49807   0.62385   0.16879   0.00000  Uiso   1.00
C268   C     0.50193   0.37615   0.16454   0.00000  Uiso   1.00
C269   C     0.46482   0.47567   0.02000   0.00000  Uiso   1.00
C270   C     0.53518   0.52433   0.31334   0.00000  Uiso   1.00
C271   C     0.46613   0.47471   0.30414   0.00000  Uiso   1.00
C272   C     0.53387   0.52529   0.02919   0.00000  Uiso   1.00
C273   C     0.66354   0.44391   0.13918   0.00000  Uiso   1.00
C274   C     0.33647   0.55609   0.19415   0.00000  Uiso   1.00
C275   C     0.48121   0.36729   0.07598   0.00000  Uiso   1.00
C276   C     0.49956   0.57916   0.16746   0.00000  Uiso   1.00
C277   C     0.51880   0.63271   0.25735   0.00000  Uiso   1.00
C278   C     0.37282   0.46211   0.02433   0.00000  Uiso   1.00
C279   C     0.62718   0.53789   0.30901   0.00000  Uiso   1.00
C280   C     0.43322   0.44306   0.27580   0.00000  Uiso   1.00
C281   C     0.56678   0.55694   0.05753   0.00000  Uiso   1.00
C282   C     0.40173   0.49741   0.15560   0.00000  Uiso   1.00
C283   C     0.59827   0.50259   0.17773   0.00000  Uiso   1.00
C284   C     0.34730   0.48753   0.15427   0.00000  Uiso   1.00
C285   C     0.65270   0.51247   0.17906   0.00000  Uiso   1.00
C286   C     0.49003   0.35152   0.12328   0.00000  Uiso   1.00
C287   C     0.50997   0.64848   0.21005   0.00000  Uiso   1.00
C288   C     0.48691   0.64258   0.12634   0.00000  Uiso   1.00
Cu289  Cu    0.50000   0.50001   0.21355   0.00000  Uiso   1.00
Cu290  Cu    0.50000   0.49999   0.11978   0.00000  Uiso   1.00
H291   H     0.47652   0.62409   0.09467   0.00000  Uiso   1.00
H292   H     0.35566   0.47476   0.05441   0.00000  Uiso   1.00
H293   H     0.56803   0.55981   0.26308   0.00000  Uiso   1.00
H294   H     0.65050   0.56574   0.32307   0.00000  Uiso   1.00
H295   H     0.64434   0.52523   0.27893   0.00000  Uiso   1.00
H296   H     0.62882   0.51424   0.00227   0.00000  Uiso   1.00
H297   H     0.36519   0.42721   0.23833   0.00000  Uiso   1.00
H298   H     0.63480   0.57279   0.09500   0.00000  Uiso   1.00
H299   H     0.52348   0.37591   0.23866   0.00000  Uiso   1.00
H300   H     0.61099   0.39624   0.13786   0.00000  Uiso   1.00
H301   H     0.38900   0.60376   0.19544   0.00000  Uiso   1.00
H302   H     0.43459   0.36632   0.01561   0.00000  Uiso   1.00
H303   H     0.56541   0.63368   0.31773   0.00000  Uiso   1.00
H304   H     0.43197   0.44018   0.07026   0.00000  Uiso   1.00
H305   H     0.34950   0.43425   0.01026   0.00000  Uiso   1.00
H306   H     0.37118   0.48576   0.33107   0.00000  Uiso   1.00
N307   N     0.50001   0.50001   0.28403   0.00000  Uiso   1.00
N308   N     0.49999   0.49999   0.04931   0.00000  Uiso   1.00
N309   N     0.42520   0.45159   0.03790   0.00000  Uiso   1.00
N310   N     0.57480   0.54841   0.29543   0.00000  Uiso   1.00
O311   O     0.50000   0.43989   0.20625   0.00000  Uiso   1.00
O312   O     0.61676   0.42591   0.14937   0.00000  Uiso   1.00
O313   O     0.64099   0.57723   0.21353   0.00000  Uiso   1.00
O314   O     0.38322   0.57410   0.18393   0.00000  Uiso   1.00
O315   O     0.51505   0.38791   0.06026   0.00000  Uiso   1.00
O316   O     0.43557   0.35541   0.04800   0.00000  Uiso   1.00
O317   O     0.48496   0.61209   0.27307   0.00000  Uiso   1.00
O318   O     0.56444   0.64459   0.28533   0.00000  Uiso   1.00
O319   O     0.44685   0.40796   0.27422   0.00000  Uiso   1.00
O320   O     0.38473   0.45205   0.25484   0.00000  Uiso   1.00
O321   O     0.55315   0.59204   0.05911   0.00000  Uiso   1.00
O322   O     0.50000   0.56011   0.12709   0.00000  Uiso   1.00
O323   O     0.61527   0.54796   0.07849   0.00000  Uiso   1.00
O324   O     0.50000   0.43988   0.12706   0.00000  Uiso   1.00
O325   O     0.50000   0.56012   0.20628   0.00000  Uiso   1.00
O326   O     0.42495   0.50000   0.19712   0.00000  Uiso   1.00
O327   O     0.57505   0.50000   0.13621   0.00000  Uiso   1.00
O328   O     0.42494   0.49999   0.11793   0.00000  Uiso   1.00
O329   O     0.57506   0.50001   0.21540   0.00000  Uiso   1.00
O330   O     0.35902   0.42276   0.11982   0.00000  Uiso   1.00
C331   C     0.83378   0.42084   0.16587   0.00000  Uiso   1.00
C332   C     0.84642   0.35742   0.20700   0.00000  Uiso   1.00
C333   C     0.83140   0.62385   0.16879   0.00000  Uiso   1.00
C334   C     0.83527   0.37615   0.16454   0.00000  Uiso   1.00
C335   C     0.79815   0.47567   0.02000   0.00000  Uiso   1.00
C336   C     0.86852   0.52433   0.31334   0.00000  Uiso   1.00
C337   C     0.79946   0.47471   0.30414   0.00000  Uiso   1.00
C338   C     0.86721   0.52529   0.02919   0.00000  Uiso   1.00
C339   C     0.99687   0.44391   0.13918   0.00000  Uiso   1.00
C340   C     0.66980   0.55609   0.19415   0.00000  Uiso   1.00
C341   C     0.81454   0.36729   0.07598   0.00000  Uiso   1.00
C342   C     0.83289   0.57916   0.16746   0.00000  Uiso   1.00
C343   C     0.85213   0.63271   0.25735   0.00000  Uiso   1.00
C344   C     0.70615   0.46211   0.02433   0.00000  Uiso   1.00
C345   C     0.96052   0.53789   0.30901   0.00000  Uiso   1.00
C346   C     0.76655   0.44306   0.27580   0.00000  Uiso   1.00
C347   C     0.90011   0.55694   0.05753   0.00000  Uiso   1.00
C348   C     0.73506   0.49741   0.15560   0.00000  Uiso   1.00
C349   C     0.93161   0.50259   0.17773   0.00000  Uiso   1.00
C350   C     0.68063   0.48753   0.15427   0.00000  Uiso   1.00
C351   C     0.98603   0.51247   0.17906   0.00000  Uiso   1.00
C352   C     0.82336   0.35152   0.12328   0.00000  Uiso   1.00
C353   C     0.84331   0.64848   0.21005   0.00000  Uiso   1.00
C354   C     0.82024   0.64258   0.12634   0.00000  Uiso   1.00
Cu355  Cu    0.83333   0.50001   0.21355   0.00000  Uiso   1.00
Cu356  Cu    0.83333   0.49999   0.11978   0.00000  Uiso   1.00
H357   H     0.80985   0.62409   0.09467   0.00000  Uiso   1.00
H358   H     0.68899   0.47476   0.05441   0.00000  Uiso   1.00
H359   H     0.90137   0.55981   0.26308   0.00000  Uiso   1.00
H360   H     0.98384   0.56574   0.32307   0.00000  Uiso   1.00
H361   H     0.97767   0.52523   0.27893   0.00000  Uiso   1.00
H362   H     0.96215   0.51424   0.00227   0.00000  Uiso   1.00
H363   H     0.69853   0.42721   0.23833   0.00000  Uiso   1.00
H364   H     0.96814   0.57279   0.09500   0.00000  Uiso   1.00
H365   H     0.85682   0.37591   0.23866   0.00000  Uiso   1.00
H366   H     0.94432   0.39624   0.13786   0.00000  Uiso   1.00
H367   H     0.72234   0.60376   0.19544   0.00000  Uiso   1.00
H368   H     0.76793   0.36632   0.01561   0.00000  Uiso   1.00
H369   H     0.89874   0.63368   0.31773   0.00000  Uiso   1.00
H370   H     0.76530   0.44018   0.07026   0.00000  Uiso   1.00
H371   H     0.68283   0.43425   0.01026   0.00000  Uiso   1.00
H372   H     0.70451   0.48576   0.33107   0.00000  Uiso   1.00
N373   N     0.83335   0.50001   0.28403   0.00000  Uiso   1.00
N374   N     0.83332   0.49999   0.04931   0.00000  Uiso   1.00
N375   N     0.75853   0.45159   0.03790   0.00000  Uiso   1.00
N376   N     0.90814   0.54841   0.29543   0.00000  Uiso   1.00
O377   O     0.83333   0.43989   0.20625   0.00000  Uiso   1.00
O378   O     0.95010   0.42591   0.14937   0.00000  Uiso   1.00
O379   O     0.97432   0.57723   0.21353   0.00000  Uiso   1.00
O380   O     0.71656   0.57410   0.18393   0.00000  Uiso   1.00
O381   O     0.84838   0.38791   0.06026   0.00000  Uiso   1.00
O382   O     0.76890   0.35541   0.04800   0.00000  Uiso   1.00
O383   O     0.81829   0.61209   0.27307   0.00000  Uiso   1.00
O384   O     0.89777   0.64459   0.28533   0.00000  Uiso   1.00
O385   O     0.78018   0.40796   0.27422   0.00000  Uiso   1.00
O386   O     0.71807   0.45205   0.25484   0.00000  Uiso   1.00
O387   O     0.88648   0.59204   0.05911   0.00000  Uiso   1.00
O388   O     0.83334   0.56011   0.12709   0.00000  Uiso   1.00
O389   O     0.94860   0.54796   0.07849   0.00000  Uiso   1.00
O390   O     0.83333   0.43988   0.12706   0.00000  Uiso   1.00
O391   O     0.83334   0.56012   0.20628   0.00000  Uiso   1.00
O392   O     0.75828   0.50000   0.19712   0.00000  Uiso   1.00
O393   O     0.90839   0.50000   0.13621   0.00000  Uiso   1.00
O394   O     0.75828   0.49999   0.11793   0.00000  Uiso   1.00
O395   O     0.90839   0.50001   0.21540   0.00000  Uiso   1.00
O396   O     0.69236   0.42276   0.11982   0.00000  Uiso   1.00
C397   C     0.16711   0.75417   0.16587   0.00000  Uiso   1.00
C398   C     0.17976   0.69075   0.20700   0.00000  Uiso   1.00
C399   C     0.16473   0.95718   0.16879   0.00000  Uiso   1.00
C400   C     0.16860   0.70948   0.16454   0.00000  Uiso   1.00
C401   C     0.13148   0.80900   0.02000   0.00000  Uiso   1.00
C402   C     0.20185   0.85766   0.31334   0.00000  Uiso   1.00
C403   C     0.13279   0.80805   0.30414   0.00000  Uiso   1.00
C404   C     0.20054   0.85862   0.02919   0.00000  Uiso   1.00
C405   C     0.33020   0.77725   0.13918   0.00000  Uiso   1.00
C406   C     0.00313   0.88942   0.19415   0.00000  Uiso   1.00
C407   C     0.14787   0.70062   0.07598   0.00000  Uiso   1.00
C408   C     0.16622   0.91250   0.16746   0.00000  Uiso   1.00
C409   C     0.18546   0.96604   0.25735   0.00000  Uiso   1.00
C410   C     0.03948   0.79544   0.02433   0.00000  Uiso   1.00
C411   C     0.29385   0.87122   0.30901   0.00000  Uiso   1.00
C412   C     0.09989   0.77639   0.27580   0.00000  Uiso   1.00
C413   C     0.23344   0.89028   0.05753   0.00000  Uiso   1.00
C414   C     0.06839   0.83074   0.15560   0.00000  Uiso   1.00
C415   C     0.26494   0.83593   0.17773   0.00000  Uiso   1.00
C416   C     0.01397   0.82086   0.15427   0.00000  Uiso   1.00
C417   C     0.31937   0.84580   0.17906   0.00000  Uiso   1.00
C418   C     0.15669   0.68486   0.12328   0.00000  Uiso   1.00
C419   C     0.17664   0.98181   0.21005   0.00000  Uiso   1.00
C420   C     0.15358   0.97591   0.12634   0.00000  Uiso   1.00
Cu421  Cu    0.16667   0.83334   0.21355   0.00000  Uiso   1.00
Cu422  Cu    0.16667   0.83333   0.11978   0.00000  Uiso   1.00
H423   H     0.14318   0.95743   0.09467   0.00000  Uiso   1.00
H424   H     0.02232   0.80809   0.05441   0.00000  Uiso   1.00
H425   H     0.23470   0.89315   0.26308   0.00000  Uiso   1.00
H426   H     0.31717   0.89908   0.32307   0.00000  Uiso   1.00
H427   H     0.31101   0.85856   0.27893   0.00000  Uiso   1.00
H428   H     0.29549   0.84757   0.00227   0.00000  Uiso   1.00
H429   H     0.03186   0.76054   0.23833   0.00000  Uiso   1.00
H430   H     0.30147   0.90613   0.09500   0.00000  Uiso   1.00
H431   H     0.19015   0.70924   0.23866   0.00000  Uiso   1.00
H432   H     0.27765   0.72957   0.13786   0.00000  Uiso   1.00
H433   H     0.05567   0.93710   0.19544   0.00000  Uiso   1.00
H434   H     0.10126   0.69966   0.01561   0.00000  Uiso   1.00
H435   H     0.23208   0.96701   0.31773   0.00000  Uiso   1.00
H436   H     0.09864   0.77352   0.07026   0.00000  Uiso   1.00
H437   H     0.01617   0.76759   0.01026   0.00000  Uiso   1.00
H438   H     0.03785   0.81910   0.33107   0.00000  Uiso   1.00
N439   N     0.16668   0.83334   0.28403   0.00000  Uiso   1.00
N440   N     0.16665   0.83332   0.04931   0.00000  Uiso   1.00
N441   N     0.09187   0.78493   0.03790   0.00000  Uiso   1.00
N442   N     0.24147   0.88174   0.29543   0.00000  Uiso   1.00
O443   O     0.16666   0.77322   0.20625   0.00000  Uiso   1.00
O444   O     0.28343   0.75924   0.14937   0.00000  Uiso   1.00
O445   O     0.30766   0.91057   0.21353   0.00000  Uiso   1.00
O446   O     0.04989   0.90743   0.18393   0.00000  Uiso   1.00
O447   O     0.18171   0.72124   0.06026   0.00000  Uiso   1.00
O448   O     0.10223   0.68874   0.04800   0.00000  Uiso   1.00
O449   O     0.15162   0.94543   0.27307   0.00000  Uiso   1.00
O450   O     0.23110   0.97792   0.28533   0.00000  Uiso   1.00
O451   O     0.11351   0.74129   0.27422   0.00000  Uiso   1.00
O452   O     0.05140   0.78538   0.25484   0.00000  Uiso   1.00
O453   O     0.21982   0.92538   0.05911   0.00000  Uiso   1.00
O454   O     0.16667   0.89345   0.12709   0.00000  Uiso   1.00
O455   O     0.28193   0.88129   0.07849   0.00000  Uiso   1.00
O456   O     0.16666   0.77321   0.12706   0.00000  Uiso   1.00
O457   O     0.16667   0.89346   0.20628   0.00000  Uiso   1.00
O458   O     0.09161   0.83334   0.19712   0.00000  Uiso   1.00
O459   O     0.24172   0.83333   0.13621   0.00000  Uiso   1.00
O460   O     0.09161   0.83333   0.11793   0.00000  Uiso   1.00
O461   O     0.24172   0.83334   0.21540   0.00000  Uiso   1.00
O462   O     0.02569   0.75609   0.11982   0.00000  Uiso   1.00
C463   C     0.50044   0.75417   0.16587   0.00000  Uiso   1.00
C464   C     0.51309   0.69075   0.20700   0.00000  Uiso   1.00
C465   C     0.49807   0.95718   0.16879   0.00000  Uiso   1.00
C466   C     0.50193   0.70948   0.16454   0.00000  Uiso   1.00
C467   C     0.46482   0.80900   0.02000   0.00000  Uiso   1.00
C468   C     0.53518   0.85766   0.31334   0.00000  Uiso   1.00
C469   C     0.46613   0.80805   0.30414   0.00000  Uiso   1.00
C470   C     0.53387   0.85862   0.02919   0.00000  Uiso   1.00
C471   C     0.66354   0.77725   0.13918   0.00000  Uiso   1.00
C472   C     0.33647   0.88942   0.19415   0.00000  Uiso   1.00
C473   C     0.48121   0.70062   0.07598   0.00000  Uiso   1.00
C474   C     0.49956   0.91250   0.16746   0.00000  Uiso   1.00
C475   C     0.51880   0.96604   0.25735   0.00000  Uiso   1.00
C476   C     0.37282   0.79544   0.02433   0.00000  Uiso   1.00
C477   C     0.62718   0.87122   0.30901   0.00000  Uiso   1.00
C478   C     0.43322   0.77639   0.27580   0.00000  Uiso   1.00
C479   C     0.56678   0.89028   0.05753   0.00000  Uiso   1.00
C480   C     0.40173   0.83074   0.15560   0.00000  Uiso   1.00
C481   C     0.59827   0.83593   0.17773   0.00000  Uiso   1.00
C482   C     0.34730   0.82086   0.15427   0.00000  Uiso   1.00
C483   C     0.65270   0.84580   0.17906   0.00000  Uiso   1.00
C484   C     0.49003   0.68486   0.12328   0.00000  Uiso   1.00
C485   C     0.50997   0.98181   0.21005   0.00000  Uiso   1.00
C486   C     0.48691   0.97591   0.12634   0.00000  Uiso   1.00
Cu487  Cu    0.50000   0.83334   0.21355   0.00000  Uiso   1.00
Cu488  Cu    0.50000   0.83333   0.11978   0.00000  Uiso   1.00
H489   H     0.47652   0.95743   0.09467   0.00000  Uiso   1.00
H490   H     0.35566   0.80809   0.05441   0.00000  Uiso   1.00
H491   H     0.56803   0.89315   0.26308   0.00000  Uiso   1.00
H492   H     0.65050   0.89908   0.32307   0.00000  Uiso   1.00
H493   H     0.64434   0.85856   0.27893   0.00000  Uiso   1.00
H494   H     0.62882   0.84757   0.00227   0.00000  Uiso   1.00
H495   H     0.36519   0.76054   0.23833   0.00000  Uiso   1.00
H496   H     0.63480   0.90613   0.09500   0.00000  Uiso   1.00
H497   H     0.52348   0.70924   0.23866   0.00000  Uiso   1.00
H498   H     0.61099   0.72957   0.13786   0.00000  Uiso   1.00
H499   H     0.38900   0.93710   0.19544   0.00000  Uiso   1.00
H500   H     0.43459   0.69966   0.01561   0.00000  Uiso   1.00
H501   H     0.56541   0.96701   0.31773   0.00000  Uiso   1.00
H502   H     0.43197   0.77352   0.07026   0.00000  Uiso   1.00
H503   H     0.34950   0.76759   0.01026   0.00000  Uiso   1.00
H504   H     0.37118   0.81910   0.33107   0.00000  Uiso   1.00
N505   N     0.50001   0.83334   0.28403   0.00000  Uiso   1.00
N506   N     0.49999   0.83332   0.04931   0.00000  Uiso   1.00
N507   N     0.42520   0.78493   0.03790   0.00000  Uiso   1.00
N508   N     0.57480   0.88174   0.29543   0.00000  Uiso   1.00
O509   O     0.50000   0.77322   0.20625   0.00000  Uiso   1.00
O510   O     0.61676   0.75924   0.14937   0.00000  Uiso   1.00
O511   O     0.64099   0.91057   0.21353   0.00000  Uiso   1.00
O512   O     0.38322   0.90743   0.18393   0.00000  Uiso   1.00
O513   O     0.51505   0.72124   0.06026   0.00000  Uiso   1.00
O514   O     0.43557   0.68874   0.04800   0.00000  Uiso   1.00
O515   O     0.48496   0.94543   0.27307   0.00000  Uiso   1.00
O516   O     0.56444   0.97792   0.28533   0.00000  Uiso   1.00
O517   O     0.44685   0.74129   0.27422   0.00000  Uiso   1.00
O518   O     0.38473   0.78538   0.25484   0.00000  Uiso   1.00
O519   O     0.55315   0.92538   0.05911   0.00000  Uiso   1.00
O520   O     0.50000   0.89345   0.12709   0.00000  Uiso   1.00
O521   O     0.61527   0.88129   0.07849   0.00000  Uiso   1.00
O522   O     0.50000   0.77321   0.12706   0.00000  Uiso   1.00
O523   O     0.50000   0.89346   0.20628   0.00000  Uiso   1.00
O524   O     0.42495   0.83334   0.19712   0.00000  Uiso   1.00
O525   O     0.57505   0.83333   0.13621   0.00000  Uiso   1.00
O526   O     0.42494   0.83333   0.11793   0.00000  Uiso   1.00
O527   O     0.57506   0.83334   0.21540   0.00000  Uiso   1.00
O528   O     0.35902   0.75609   0.11982   0.00000  Uiso   1.00
C529   C     0.83378   0.75417   0.16587   0.00000  Uiso   1.00
C530   C     0.84642   0.69075   0.20700   0.00000  Uiso   1.00
C531   C     0.83140   0.95718   0.16879   0.00000  Uiso   1.00
C532   C     0.83527   0.70948   0.16454   0.00000  Uiso   1.00
C533   C     0.79815   0.80900   0.02000   0.00000  Uiso   1.00
C534   C     0.86852   0.85766   0.31334   0.00000  Uiso   1.00
C535   C     0.79946   0.80805   0.30414   0.00000  Uiso   1.00
C536   C     0.86721   0.85862   0.02919   0.00000  Uiso   1.00
C537   C     0.99687   0.77725   0.13918   0.00000  Uiso   1.00
C538   C     0.66980   0.88942   0.19415   0.00000  Uiso   1.00
C539   C     0.81454   0.70062   0.07598   0.00000  Uiso   1.00
C540   C     0.83289   0.91250   0.16746   0.00000  Uiso   1.00
C541   C     0.85213   0.96604   0.25735   0.00000  Uiso   1.00
C542   C     0.70615   0.79544   0.02433   0.00000  Uiso   1.00
C543   C     0.96052   0.87122   0.30901   0.00000  Uiso   1.00
C544   C     0.76655   0.77639   0.27580   0.00000  Uiso   1.00
C545   C     0.90011   0.89028   0.05753   0.00000  Uiso   1.00
C546   C     0.73506   0.83074   0.15560   0.00000  Uiso   1.00
C547   C     0.93161   0.83593   0.17773   0.00000  Uiso   1.00
C548   C     0.68063   0.82086   0.15427   0.00000  Uiso   1.00
C549   C     0.98603   0.84580   0.17906   0.00000  Uiso   1.00
C550   C     0.82336   0.68486   0.12328   0.00000  Uiso   1.00
C551   C     0.84331   0.98181   0.21005   0.00000  Uiso   1.00
C552   C     0.82024   0.97591   0.12634   0.00000  Uiso   1.00
Cu553  Cu    0.83333   0.83334   0.21355   0.00000  Uiso   1.00
Cu554  Cu    0.83333   0.83333   0.11978   0.00000  Uiso   1.00
H555   H     0.80985   0.95743   0.09467   0.00000  Uiso   1.00
H556   H     0.68899   0.80809   0.05441   0.00000  Uiso   1.00
H557   H     0.90137   0.89315   0.26308   0.00000  Uiso   1.00
H558   H     0.98384   0.89908   0.32307   0.00000  Uiso   1.00
H559   H     0.97767   0.85856   0.27893   0.00000  Uiso   1.00
H560   H     0.96215   0.84757   0.00227   0.00000  Uiso   1.00
H561   H     0.69853   0.76054   0.23833   0.00000  Uiso   1.00
H562   H     0.96814   0.90613   0.09500   0.00000  Uiso   1.00
H563   H     0.85682   0.70924   0.23866   0.00000  Uiso   1.00
H564   H     0.94432   0.72957   0.13786   0.00000  Uiso   1.00
H565   H     0.72234   0.93710   0.19544   0.00000  Uiso   1.00
H566   H     0.76793   0.69966   0.01561   0.00000  Uiso   1.00
H567   H     0.89874   0.96701   0.31773   0.00000  Uiso   1.00
H568   H     0.76530   0.77352   0.07026   0.00000  Uiso   1.00
H569   H     0.68283   0.76759   0.01026   0.00000  Uiso   1.00
H570   H     0.70451   0.81910   0.33107   0.00000  Uiso   1.00
N571   N     0.83335   0.83334   0.28403   0.00000  Uiso   1.00
N572   N     0.83332   0.83332   0.04931   0.00000  Uiso   1.00
N573   N     0.75853   0.78493   0.03790   0.00000  Uiso   1.00
N574   N     0.90814   0.88174   0.29543   0.00000  Uiso   1.00
O575   O     0.83333   0.77322   0.20625   0.00000  Uiso   1.00
O576   O     0.95010   0.75924   0.14937   0.00000  Uiso   1.00
O577   O     0.97432   0.91057   0.21353   0.00000  Uiso   1.00
O578   O     0.71656   0.90743   0.18393   0.00000  Uiso   1.00
O579   O     0.84838   0.72124   0.06026   0.00000  Uiso   1.00
O580   O     0.76890   0.68874   0.04800   0.00000  Uiso   1.00
O581   O     0.81829   0.94543   0.27307   0.00000  Uiso   1.00
O582   O     0.89777   0.97792   0.28533   0.00000  Uiso   1.00
O583   O     0.78018   0.74129   0.27422   0.00000  Uiso   1.00
O584   O     0.71807   0.78538   0.25484   0.00000  Uiso   1.00
O585   O     0.88648   0.92538   0.05911   0.00000  Uiso   1.00
O586   O     0.83334   0.89345   0.12709   0.00000  Uiso   1.00
O587   O     0.94860   0.88129   0.07849   0.00000  Uiso   1.00
O588   O     0.83333   0.77321   0.12706   0.00000  Uiso   1.00
O589   O     0.83334   0.89346   0.20628   0.00000  Uiso   1.00
O590   O     0.75828   0.83334   0.19712   0.00000  Uiso   1.00
O591   O     0.90839   0.83333   0.13621   0.00000  Uiso   1.00
O592   O     0.75828   0.83333   0.11793   0.00000  Uiso   1.00
O593   O     0.90839   0.83334   0.21540   0.00000  Uiso   1.00
O594   O     0.69236   0.75609   0.11982   0.00000  Uiso   1.00
C595   C     0.16711   0.08750   0.49921   0.00000  Uiso   1.00
C596   C     0.17976   0.02408   0.54033   0.00000  Uiso   1.00
C597   C     0.16473   0.29052   0.50213   0.00000  Uiso   1.00
C598   C     0.16860   0.04282   0.49787   0.00000  Uiso   1.00
C599   C     0.13148   0.14234   0.35333   0.00000  Uiso   1.00
C600   C     0.20185   0.19100   0.64667   0.00000  Uiso   1.00
C601   C     0.13279   0.14138   0.63747   0.00000  Uiso   1.00
C602   C     0.20054   0.19195   0.36253   0.00000  Uiso   1.00
C603   C     0.33020   0.11058   0.47252   0.00000  Uiso   1.00
C604   C     0.00313   0.22275   0.52748   0.00000  Uiso   1.00
C605   C     0.14787   0.03396   0.40932   0.00000  Uiso   1.00
C606   C     0.16622   0.24583   0.50079   0.00000  Uiso   1.00
C607   C     0.18546   0.29938   0.59068   0.00000  Uiso   1.00
C608   C     0.03948   0.12878   0.35766   0.00000  Uiso   1.00
C609   C     0.29385   0.20455   0.64234   0.00000  Uiso   1.00
C610   C     0.09989   0.10973   0.60913   0.00000  Uiso   1.00
C611   C     0.23344   0.22361   0.39087   0.00000  Uiso   1.00
C612   C     0.06839   0.16407   0.48893   0.00000  Uiso   1.00
C613   C     0.26494   0.16926   0.51107   0.00000  Uiso   1.00
C614   C     0.01397   0.15419   0.48761   0.00000  Uiso   1.00
C615   C     0.31937   0.17914   0.51239   0.00000  Uiso   1.00
C616   C     0.15669   0.01819   0.45661   0.00000  Uiso   1.00
C617   C     0.17664   0.31514   0.54339   0.00000  Uiso   1.00
C618   C     0.15358   0.30925   0.45967   0.00000  Uiso   1.00
Cu619  Cu    0.16667   0.16667   0.54689   0.00000  Uiso   1.00
Cu620  Cu    0.16667   0.16666   0.45311   0.00000  Uiso   1.00
H621   H     0.14318   0.29076   0.42800   0.00000  Uiso   1.00
H622   H     0.02232   0.14143   0.38774   0.00000  Uiso   1.00
H623   H     0.23470   0.22648   0.59641   0.00000  Uiso   1.00
H624   H     0.31717   0.23241   0.65640   0.00000  Uiso   1.00
H625   H     0.31101   0.19190   0.61226   0.00000  Uiso   1.00
H626   H     0.29549   0.18090   0.33560   0.00000  Uiso   1.00
H627   H     0.03186   0.09388   0.57167   0.00000  Uiso   1.00
H628   H     0.30147   0.23946   0.42833   0.00000  Uiso   1.00
H629   H     0.19015   0.04257   0.57200   0.00000  Uiso   1.00
H630   H     0.27765   0.06291   0.47119   0.00000  Uiso   1.00
H631   H     0.05567   0.27043   0.52878   0.00000  Uiso   1.00
H632   H     0.10126   0.03299   0.34894   0.00000  Uiso   1.00
H633   H     0.23208   0.30034   0.65106   0.00000  Uiso   1.00
H634   H     0.09864   0.10685   0.40359   0.00000  Uiso   1.00
H635   H     0.01617   0.10092   0.34359   0.00000  Uiso   1.00
H636   H     0.03785   0.15243   0.66440   0.00000  Uiso   1.00
N637   N     0.16668   0.16668   0.61736   0.00000  Uiso   1.00
N638   N     0.16665   0.16666   0.38264   0.00000  Uiso   1.00
N639   N     0.09187   0.11826   0.37124   0.00000  Uiso   1.00
N640   N     0.24147   0.21507   0.62876   0.00000  Uiso   1.00
O641   O     0.16666   0.10655   0.53958   0.00000  Uiso   1.00
O642   O     0.28343   0.09257   0.48270   0.00000  Uiso   1.00
O643   O     0.30766   0.24390   0.54687   0.00000  Uiso   1.00
O644   O     0.04989   0.24076   0.51726   0.00000  Uiso   1.00
O645   O     0.18171   0.05457   0.39359   0.00000  Uiso   1.00
O646   O     0.10223   0.02207   0.38134   0.00000  Uiso   1.00
O647   O     0.15162   0.27876   0.60641   0.00000  Uiso   1.00
O648   O     0.23110   0.31126   0.61866   0.00000  Uiso   1.00
O649   O     0.11351   0.07462   0.60755   0.00000  Uiso   1.00
O650   O     0.05140   0.11871   0.58818   0.00000  Uiso   1.00
O651   O     0.21982   0.25871   0.39244   0.00000  Uiso   1.00
O652   O     0.16667   0.22678   0.46042   0.00000  Uiso   1.00
O653   O     0.28193   0.21462   0.41183   0.00000  Uiso   1.00
O654   O     0.16666   0.10654   0.46039   0.00000  Uiso   1.00
O655   O     0.16667   0.22679   0.53961   0.00000  Uiso   1.00
O656   O     0.09161   0.16667   0.53046   0.00000  Uiso   1.00
O657   O     0.24172   0.16666   0.46954   0.00000  Uiso   1.00
O658   O     0.09161   0.16666   0.45127   0.00000  Uiso   1.00
O659   O     0.24172   0.16667   0.54873   0.00000  Uiso   1.00
O660   O     0.02569   0.08942   0.45315   0.00000  Uiso   1.00
C661   C     0.50044   0.08750   0.49921   0.00000  Uiso   1.00
C662   C     0.51309   0.02408   0.54033   0.00000  Uiso   1.00
C663   C     0.49807   0.29052   0.50213   0.00000  Uiso   1.00
C664   C     0.50193   0.04282   0.49787   0.00000  Uiso   1.00
C665   C     0.46482   0.14234   0.35333   0.00000  Uiso   1.00
C666   C     0.53518   0.19100   0.64667   0.00000  Uiso   1.00
C667   C     0.46613   0.14138   0.63747   0.00000  Uiso   1.00
C668   C     0.53387   0.19195   0.36253   0.00000  Uiso   1.00
C669   C     0.66354   0.11058   0.47252   0.00000  Uiso   1.00
C670   C     0.33647   0.22275   0.52748   0.00000  Uiso   1.00
C671   C     0.48121   0.03396   0.40932   0.00000  Uiso   1.00
C672   C     0.49956   0.24583   0.50079   0.00000  Uiso   1.00
C673   C     0.51880   0.29938   0.59068   0.00000  Uiso   1.00
C674   C     0.37282   0.12878   0.35766   0.00000  Uiso   1.00
C675   C     0.62718   0.20455   0.64234   0.00000  Uiso   1.00
C676   C     0.43322   0.10973   0.60913   0.00000  Uiso   1.00
C677   C     0.56678   0.22361   0.39087   0.00000  Uiso   1.00
C678   C     0.40173   0.16407   0.48893   0.00000  Uiso   1.00
C679   C     0.59827   0.16926   0.51107   0.00000  Uiso   1.00
C680   C     0.34730   0.15419   0.48761   0.00000  Uiso   1.00
C681   C     0.65270   0.17914   0.51239   0.00000  Uiso   1.00
C682   C     0.49003   0.01819   0.45661   0.00000  Uiso   1.00
C683   C     0.50997   0.31514   0.54339   0.00000  Uiso   1.00
C684   C     0.48691   0.30925   0.45967   0.00000  Uiso   1.00
Cu685  Cu    0.50000   0.16667   0.54689   0.00000  Uiso   1.00
Cu686  Cu    0.50000   0.16666   0.45311   0.00000  Uiso   1.00
H687   H     0.47652   0.29076   0.42800   0.00000  Uiso   1.00
H688   H     0.35566   0.14143   0.38774   0.00000  Uiso   1.00
H689   H     0.56803   0.22648   0.59641   0.00000  Uiso   1.00
H690   H     0.65050   0.23241   0.65640   0.00000  Uiso   1.00
H691   H     0.64434   0.19190   0.61226   0.00000  Uiso   1.00
H692   H     0.62882   0.18090   0.33560   0.00000  Uiso   1.00
H693   H     0.36519   0.09388   0.57167   0.00000  Uiso   1.00
H694   H     0.63480   0.23946   0.42833   0.00000  Uiso   1.00
H695   H     0.52348   0.04257   0.57200   0.00000  Uiso   1.00
H696   H     0.61099   0.06291   0.47119   0.00000  Uiso   1.00
H697   H     0.38900   0.27043   0.52878   0.00000  Uiso   1.00
H698   H     0.43459   0.03299   0.34894   0.00000  Uiso   1.00
H699   H     0.56541   0.30034   0.65106   0.00000  Uiso   1.00
H700   H     0.43197   0.10685   0.40359   0.00000  Uiso   1.00
H701   H     0.34950   0.10092   0.34359   0.00000  Uiso   1.00
H702   H     0.37118   0.15243   0.66440   0.00000  Uiso   1.00
N703   N     0.50001   0.16668   0.61736   0.00000  Uiso   1.00
N704   N     0.49999   0.16666   0.38264   0.00000  Uiso   1.00
N705   N     0.42520   0.11826   0.37124   0.00000  Uiso   1.00
N706   N     0.57480   0.21507   0.62876   0.00000  Uiso   1.00
O707   O     0.50000   0.10655   0.53958   0.00000  Uiso   1.00
O708   O     0.61676   0.09257   0.48270   0.00000  Uiso   1.00
O709   O     0.64099   0.24390   0.54687   0.00000  Uiso   1.00
O710   O     0.38322   0.24076   0.51726   0.00000  Uiso   1.00
O711   O     0.51505   0.05457   0.39359   0.00000  Uiso   1.00
O712   O     0.43557   0.02207   0.38134   0.00000  Uiso   1.00
O713   O     0.48496   0.27876   0.60641   0.00000  Uiso   1.00
O714   O     0.56444   0.31126   0.61866   0.00000  Uiso   1.00
O715   O     0.44685   0.07462   0.60755   0.00000  Uiso   1.00
O716   O     0.38473   0.11871   0.58818   0.00000  Uiso   1.00
O717   O     0.55315   0.25871   0.39244   0.00000  Uiso   1.00
O718   O     0.50000   0.22678   0.46042   0.00000  Uiso   1.00
O719   O     0.61527   0.21462   0.41183   0.00000  Uiso   1.00
O720   O     0.50000   0.10654   0.46039   0.00000  Uiso   1.00
O721   O     0.50000   0.22679   0.53961   0.00000  Uiso   1.00
O722   O     0.42495   0.16667   0.53046   0.00000  Uiso   1.00
O723   O     0.57505   0.16666   0.46954   0.00000  Uiso   1.00
O724   O     0.42494   0.16666   0.45127   0.00000  Uiso   1.00
O725   O     0.57506   0.16667   0.54873   0.00000  Uiso   1.00
O726   O     0.35902   0.08942   0.45315   0.00000  Uiso   1.00
C727   C     0.83378   0.08750   0.49921   0.00000  Uiso   1.00
C728   C     0.84642   0.02408   0.54033   0.00000  Uiso   1.00
C729   C     0.83140   0.29052   0.50213   0.00000  Uiso   1.00
C730   C     0.83527   0.04282   0.49787   0.00000  Uiso   1.00
C731   C     0.79815   0.14234   0.35333   0.00000  Uiso   1.00
C732   C     0.86852   0.19100   0.64667   0.00000  Uiso   1.00
C733   C     0.79946   0.14138   0.63747   0.00000  Uiso   1.00
C734   C     0.86721   0.19195   0.36253   0.00000  Uiso   1.00
C735   C     0.99687   0.11058   0.47252   0.00000  Uiso   1.00
C736   C     0.66980   0.22275   0.52748   0.00000  Uiso   1.00
C737   C     0.81454   0.03396   0.40932   0.00000  Uiso   1.00
C738   C     0.83289   0.24583   0.50079   0.00000  Uiso   1.00
C739   C     0.85213   0.29938   0.59068   0.00000  Uiso   1.00
C740   C     0.70615   0.12878   0.35766   0.00000  Uiso   1.00
C741   C     0.96052   0.20455   0.64234   0.00000  Uiso   1.00
C742   C     0.76655   0.10973   0.60913   0.00000  Uiso   1.00
C743   C     0.90011   0.22361   0.39087   0.00000  Uiso   1.00
C744   C     0.73506   0.16407   0.48893   0.00000  Uiso   1.00
C745   C     0.93161   0.16926   0.51107   0.00000  Uiso   1.00
C746   C     0.68063   0.15419   0.48761   0.00000  Uiso   1.00
C747   C     0.98603   0.17914   0.51239   0.00000  Uiso   1.00
C748   C     0.82336   0.01819   0.45661   0.00000  Uiso   1.00
C749   C     0.84331   0.31514   0.54339   0.00000  Uiso   1.00
C750   C     0.82024   0.30925   0.45967   0.00000  Uiso   1.00
Cu751  Cu    0.83333   0.16667   0.54689   0.00000  Uiso   1.00
Cu752  Cu    0.83333   0.16666   0.45311   0.00000  Uiso   1.00
H753   H     0.80985   0.29076   0.42800   0.00000  Uiso   1.00
H754   H     0.68899   0.14143   0.38774   0.00000  Uiso   1.00
H755   H     0.90137   0.22648   0.59641   0.00000  Uiso   1.00
H756   H     0.98384   0.23241   0.65640   0.00000  Uiso   1.00
H757   H     0.97767   0.19190   0.61226   0.00000  Uiso   1.00
H758   H     0.96215   0.18090   0.33560   0.00000  Uiso   1.00
H759   H     0.69853   0.09388   0.57167   0.00000  Uiso   1.00
H760   H     0.96814   0.23946   0.42833   0.00000  Uiso   1.00
H761   H     0.85682   0.04257   0.57200   0.00000  Uiso   1.00
H762   H     0.94432   0.06291   0.47119   0.00000  Uiso   1.00
H763   H     0.72234   0.27043   0.52878   0.00000  Uiso   1.00
H764   H     0.76793   0.03299   0.34894   0.00000  Uiso   1.00
H765   H     0.89874   0.30034   0.65106   0.00000  Uiso   1.00
H766   H     0.76530   0.10685   0.40359   0.00000  Uiso   1.00
H767   H     0.68283   0.10092   0.34359   0.00000  Uiso   1.00
H768   H     0.70451   0.15243   0.66440   0.00000  Uiso   1.00
N769   N     0.83335   0.16668   0.61736   0.00000  Uiso   1.00
N770   N     0.83332   0.16666   0.38264   0.00000  Uiso   1.00
N771   N     0.75853   0.11826   0.37124   0.00000  Uiso   1.00
N772   N     0.90814   0.21507   0.62876   0.00000  Uiso   1.00
O773   O     0.83333   0.10655   0.53958   0.00000  Uiso   1.00
O774   O     0.95010   0.09257   0.48270   0.00000  Uiso   1.00
O775   O     0.97432   0.24390   0.54687   0.00000  Uiso   1.00
O776   O     0.71656   0.24076   0.51726   0.00000  Uiso   1.00
O777   O     0.84838   0.05457   0.39359   0.00000  Uiso   1.00
O778   O     0.76890   0.02207   0.38134   0.00000  Uiso   1.00
O779   O     0.81829   0.27876   0.60641   0.00000  Uiso   1.00
O780   O     0.89777   0.31126   0.61866   0.00000  Uiso   1.00
O781   O     0.78018   0.07462   0.60755   0.00000  Uiso   1.00
O782   O     0.71807   0.11871   0.58818   0.00000  Uiso   1.00
O783   O     0.88648   0.25871   0.39244   0.00000  Uiso   1.00
O784   O     0.83334   0.22678   0.46042   0.00000  Uiso   1.00
O785   O     0.94860   0.21462   0.41183   0.00000  Uiso   1.00
O786   O     0.83333   0.10654   0.46039   0.00000  Uiso   1.00
O787   O     0.83334   0.22679   0.53961   0.00000  Uiso   1.00
O788   O     0.75828   0.16667   0.53046   0.00000  Uiso   1.00
O789   O     0.90839   0.16666   0.46954   0.00000  Uiso   1.00
O790   O     0.75828   0.16666   0.45127   0.00000  Uiso   1.00
O791   O     0.90839   0.16667   0.54873   0.00000  Uiso   1.00
O792   O     0.69236   0.08942   0.45315   0.00000  Uiso   1.00
C793   C     0.16711   0.42084   0.49921   0.00000  Uiso   1.00
C794   C     0.17976   0.35742   0.54033   0.00000  Uiso   1.00
C795   C     0.16473   0.62385   0.50213   0.00000  Uiso   1.00
C796   C     0.16860   0.37615   0.49787   0.00000  Uiso   1.00
C797   C     0.13148   0.47567   0.35333   0.00000  Uiso   1.00
C798   C     0.20185   0.52433   0.64667   0.00000  Uiso   1.00
C799   C     0.13279   0.47471   0.63747   0.00000  Uiso   1.00
C800   C     0.20054   0.52529   0.36253   0.00000  Uiso   1.00
C801   C     0.33020   0.44391   0.47252   0.00000  Uiso   1.00
C802   C     0.00313   0.55609   0.52748   0.00000  Uiso   1.00
C803   C     0.14787   0.36729   0.40932   0.00000  Uiso   1.00
C804   C     0.16622   0.57916   0.50079   0.00000  Uiso   1.00
C805   C     0.18546   0.63271   0.59068   0.00000  Uiso   1.00
C806   C     0.03948   0.46211   0.35766   0.00000  Uiso   1.00
C807   C     0.29385   0.53789   0.64234   0.00000  Uiso   1.00
C808   C     0.09989   0.44306   0.60913   0.00000  Uiso   1.00
C809   C     0.23344   0.55694   0.39087   0.00000  Uiso   1.00
C810   C     0.06839   0.49741   0.48893   0.00000  Uiso   1.00
C811   C     0.26494   0.50259   0.51107   0.00000  Uiso   1.00
C812   C     0.01397   0.48753   0.48761   0.00000  Uiso   1.00
C813   C     0.31937   0.51247   0.51239   0.00000  Uiso   1.00
C814   C     0.15669   0.35152   0.45661   0.00000  Uiso   1.00
C815   C     0.17664   0.64848   0.54339   0.00000  Uiso   1.00
C816   C     0.15358   0.64258   0.45967   0.00000  Uiso   1.00
Cu817  Cu    0.16667   0.50001   0.54689   0.00000  Uiso   1.00
Cu818  Cu    0.16667   0.49999   0.45311   0.00000  Uiso   1.00
H819   H     0.14318   0.62409   0.42800   0.00000  Uiso   1.00
H820   H     0.02232   0.47476   0.38774   0.00000  Uiso   1.00
H821   H     0.23470   0.55981   0.59641   0.00000  Uiso   1.00
H822   H     0.31717   0.56574   0.65640   0.00000  Uiso   1.00
H823   H     0.31101   0.52523   0.61226   0.00000  Uiso   1.00
H824   H     0.29549   0.51424   0.33560   0.00000  Uiso   1.00
H825   H     0.03186   0.42721   0.57167   0.00000  Uiso   1.00
H826   H     0.30147   0.57279   0.42833   0.00000  Uiso   1.00
H827   H     0.19015   0.37591   0.57200   0.00000  Uiso   1.00
H828   H     0.27765   0.39624   0.47119   0.00000  Uiso   1.00
H829   H     0.05567   0.60376   0.52878   0.00000  Uiso   1.00
H830   H     0.10126   0.36632   0.34894   0.00000  Uiso   1.00
H831   H     0.23208   0.63368   0.65106   0.00000  Uiso   1.00
H832   H     0.09864   0.44018   0.40359   0.00000  Uiso   1.00
H833   H     0.01617   0.43425   0.34359   0.00000  Uiso   1.00
H834   H     0.03785   0.48576   0.66440   0.00000  Uiso   1.00
N835   N     0.16668   0.50001   0.61736   0.00000  Uiso   1.00
N836   N     0.16665   0.49999   0.38264   0.00000  Uiso   1.00
N837   N     0.09187   0.45159   0.37124   0.00000  Uiso   1.00
N838   N     0.24147   0.54841   0.62876   0.00000  Uiso   1.00
O839   O     0.16666   0.43989   0.53958   0.00000  Uiso   1.00
O840   O     0.28343   0.42591   0.48270   0.00000  Uiso   1.00
O841   O     0.30766   0.57723   0.54687   0.00000  Uiso   1.00
O842   O     0.04989   0.57410   0.51726   0.00000  Uiso   1.00
O843   O     0.18171   0.38791   0.39359   0.00000  Uiso   1.00
O844   O     0.10223   0.35541   0.38134   0.00000  Uiso   1.00
O845   O     0.15162   0.61209   0.60641   0.00000  Uiso   1.00
O846   O     0.23110   0.64459   0.61866   0.00000  Uiso   1.00
O847   O     0.11351   0.40796   0.60755   0.00000  Uiso   1.00
O848   O     0.05140   0.45205   0.58818   0.00000  Uiso   1.00
O849   O     0.21982   0.59204   0.39244   0.00000  Uiso   1.00
O850   O     0.16667   0.56011   0.46042   0.00000  Uiso   1.00
O851   O     0.28193   0.54796   0.41183   0.00000  Uiso   1.00
O852   O     0.16666   0.43988   0.46039   0.00000  Uiso   1.00
O853   O     0.16667   0.56012   0.53961   0.00000  Uiso   1.00
O854   O     0.09161   0.50000   0.53046   0.00000  Uiso   1.00
O855   O     0.24172   0.50000   0.46954   0.00000  Uiso   1.00
O856   O     0.09161   0.49999   0.45127   0.00000  Uiso   1.00
O857   O     0.24172   0.50001   0.54873   0.00000  Uiso   1.00
O858   O     0.02569   0.42276   0.45315   0.00000  Uiso   1.00
C859   C     0.50044   0.42084   0.49921   0.00000  Uiso   1.00
C860   C     0.51309   0.35742   0.54033   0.00000  Uiso   1.00
C861   C     0.49807   0.62385   0.50213   0.00000  Uiso   1.00
C862   C     0.50193   0.37615   0.49787   0.00000  Uiso   1.00
C863   C     0.46482   0.47567   0.35333   0.00000  Uiso   1.00
C864   C     0.53518   0.52433   0.64667   0.00000  Uiso   1.00
C865   C     0.46613   0.47471   0.63747   0.00000  Uiso   1.00
C866   C     0.53387   0.52529   0.36253   0.00000  Uiso   1.00
C867   C     0.66354   0.44391   0.47252   0.00000  Uiso   1.00
C868   C     0.33647   0.55609   0.52748   0.00000  Uiso   1.00
C869   C     0.48121   0.36729   0.40932   0.00000  Uiso   1.00
C870   C     0.49956   0.57916   0.50079   0.00000  Uiso   1.00
C871   C     0.51880   0.63271   0.59068   0.00000  Uiso   1.00
C872   C     0.37282   0.46211   0.35766   0.00000  Uiso   1.00
C873   C     0.62718   0.53789   0.64234   0.00000  Uiso   1.00
C874   C     0.43322   0.44306   0.60913   0.00000  Uiso   1.00
C875   C     0.56678   0.55694   0.39087   0.00000  Uiso   1.00
C876   C     0.40173   0.49741   0.48893   0.00000  Uiso   1.00
C877   C     0.59827   0.50259   0.51107   0.00000  Uiso   1.00
C878   C     0.34730   0.48753   0.48761   0.00000  Uiso   1.00
C879   C     0.65270   0.51247   0.51239   0.00000  Uiso   1.00
C880   C     0.49003   0.35152   0.45661   0.00000  Uiso   1.00
C881   C     0.50997   0.64848   0.54339   0.00000  Uiso   1.00
C882   C     0.48691   0.64258   0.45967   0.00000  Uiso   1.00
Cu883  Cu    0.50000   0.50001   0.54689   0.00000  Uiso   1.00
Cu884  Cu    0.50000   0.49999   0.45311   0.00000  Uiso   1.00
H885   H     0.47652   0.62409   0.42800   0.00000  Uiso   1.00
H886   H     0.35566   0.47476   0.38774   0.00000  Uiso   1.00
H887   H     0.56803   0.55981   0.59641   0.00000  Uiso   1.00
H888   H     0.65050   0.56574   0.65640   0.00000  Uiso   1.00
H889   H     0.64434   0.52523   0.61226   0.00000  Uiso   1.00
H890   H     0.62882   0.51424   0.33560   0.00000  Uiso   1.00
H891   H     0.36519   0.42721   0.57167   0.00000  Uiso   1.00
H892   H     0.63480   0.57279   0.42833   0.00000  Uiso   1.00
H893   H     0.52348   0.37591   0.57200   0.00000  Uiso   1.00
H894   H     0.61099   0.39624   0.47119   0.00000  Uiso   1.00
H895   H     0.38900   0.60376   0.52878   0.00000  Uiso   1.00
H896   H     0.43459   0.36632   0.34894   0.00000  Uiso   1.00
H897   H     0.56541   0.63368   0.65106   0.00000  Uiso   1.00
H898   H     0.43197   0.44018   0.40359   0.00000  Uiso   1.00
H899   H     0.34950   0.43425   0.34359   0.00000  Uiso   1.00
H900   H     0.37118   0.48576   0.66440   0.00000  Uiso   1.00
N901   N     0.50001   0.50001   0.61736   0.00000  Uiso   1.00
N902   N     0.49999   0.49999   0.38264   0.00000  Uiso   1.00
N903   N     0.42520   0.45159   0.37124   0.00000  Uiso   1.00
N904   N     0.57480   0.54841   0.62876   0.00000  Uiso   1.00
O905   O     0.50000   0.43989   0.53958   0.00000  Uiso   1.00
O906   O     0.61676   0.42591   0.48270   0.00000  Uiso   1.00
O907   O     0.64099   0.57723   0.54687   0.00000  Uiso   1.00
O908   O     0.38322   0.57410   0.51726   0.00000  Uiso   1.00
O909   O     0.51505   0.38791   0.39359   0.00000  Uiso   1.00
O910   O     0.43557   0.35541   0.38134   0.00000  Uiso   1.00
O911   O     0.48496   0.61209   0.60641   0.00000  Uiso   1.00
O912   O     0.56444   0.64459   0.61866   0.00000  Uiso   1.00
O913   O     0.44685   0.40796   0.60755   0.00000  Uiso   1.00
O914   O     0.38473   0.45205   0.58818   0.00000  Uiso   1.00
O915   O     0.55315   0.59204   0.39244   0.00000  Uiso   1.00
O916   O     0.50000   0.56011   0.46042   0.00000  Uiso   1.00
O917   O     0.61527   0.54796   0.41183   0.00000  Uiso   1.00
O918   O     0.50000   0.43988   0.46039   0.00000  Uiso   1.00
O919   O     0.50000   0.56012   0.53961   0.00000  Uiso   1.00
O920   O     0.42495   0.50000   0.53046   0.00000  Uiso   1.00
O921   O     0.57505   0.50000   0.46954   0.00000  Uiso   1.00
O922   O     0.42494   0.49999   0.45127   0.00000  Uiso   1.00
O923   O     0.57506   0.50001   0.54873   0.00000  Uiso   1.00
O924   O     0.35902   0.42276   0.45315   0.00000  Uiso   1.00
C925   C     0.83378   0.42084   0.49921   0.00000  Uiso   1.00
C926   C     0.84642   0.35742   0.54033   0.00000  Uiso   1.00
C927   C     0.83140   0.62385   0.50213   0.00000  Uiso   1.00
C928   C     0.83527   0.37615   0.49787   0.00000  Uiso   1.00
C929   C     0.79815   0.47567   0.35333   0.00000  Uiso   1.00
C930   C     0.86852   0.52433   0.64667   0.00000  Uiso   1.00
C931   C     0.79946   0.47471   0.63747   0.00000  Uiso   1.00
C932   C     0.86721   0.52529   0.36253   0.00000  Uiso   1.00
C933   C     0.99687   0.44391   0.47252   0.00000  Uiso   1.00
C934   C     0.66980   0.55609   0.52748   0.00000  Uiso   1.00
C935   C     0.81454   0.36729   0.40932   0.00000  Uiso   1.00
C936   C     0.83289   0.57916   0.50079   0.00000  Uiso   1.00
C937   C     0.85213   0.63271   0.59068   0.00000  Uiso   1.00
C938   C     0.70615   0.46211   0.35766   0.00000  Uiso   1.00
C939   C     0.96052   0.53789   0.64234   0.00000  Uiso   1.00
C940   C     0.76655   0.44306   0.60913   0.00000  Uiso   1.00
C941   C     0.90011   0.55694   0.39087   0.00000  Uiso   1.00
C942   C     0.73506   0.49741   0.48893   0.00000  Uiso   1.00
C943   C     0.93161   0.50259   0.51107   0.00000  Uiso   1.00
C944   C     0.68063   0.48753   0.48761   0.00000  Uiso   1.00
C945   C     0.98603   0.51247   0.51239   0.00000  Uiso   1.00
C946   C     0.82336   0.35152   0.45661   0.00000  Uiso   1.00
C947   C     0.84331   0.64848   0.54339   0.00000  Uiso   1.00
C948   C     0.82024   0.64258   0.45967   0.00000  Uiso   1.00
Cu949  Cu    0.83333   0.50001   0.54689   0.00000  Uiso   1.00
Cu950  Cu    0.83333   0.49999   0.45311   0.00000  Uiso   1.00
H951   H     0.80985   0.62409   0.42800   0.00000  Uiso   1.00
H952   H     0.68899   0.47476   0.38774   0.00000  Uiso   1.00
H953   H     0.90137   0.55981   0.59641   0.00000  Uiso   1.00
H954   H     0.98384   0.56574   0.65640   0.00000  Uiso   1.00
H955   H     0.97767   0.52523   0.61226   0.00000  Uiso   1.00
H956   H     0.96215   0.51424   0.33560   0.00000  Uiso   1.00
H957   H     0.69853   0.42721   0.57167   0.00000  Uiso   1.00
H958   H     0.96814   0.57279   0.42833   0.00000  Uiso   1.00
H959   H     0.85682   0.37591   0.57200   0.00000  Uiso   1.00
H960   H     0.94432   0.39624   0.47119   0.00000  Uiso   1.00
H961   H     0.72234   0.60376   0.52878   0.00000  Uiso   1.00
H962   H     0.76793   0.36632   0.34894   0.00000  Uiso   1.00
H963   H     0.89874   0.63368   0.65106   0.00000  Uiso   1.00
H964   H     0.76530   0.44018   0.40359   0.00000  Uiso   1.00
H965   H     0.68283   0.43425   0.34359   0.00000  Uiso   1.00
H966   H     0.70451   0.48576   0.66440   0.00000  Uiso   1.00
N967   N     0.83335   0.50001   0.61736   0.00000  Uiso   1.00
N968   N     0.83332   0.49999   0.38264   0.00000  Uiso   1.00
N969   N     0.75853   0.45159   0.37124   0.00000  Uiso   1.00
N970   N     0.90814   0.54841   0.62876   0.00000  Uiso   1.00
O971   O     0.83333   0.43989   0.53958   0.00000  Uiso   1.00
O972   O     0.95010   0.42591   0.48270   0.00000  Uiso   1.00
O973   O     0.97432   0.57723   0.54687   0.00000  Uiso   1.00
O974   O     0.71656   0.57410   0.51726   0.00000  Uiso   1.00
O975   O     0.84838   0.38791   0.39359   0.00000  Uiso   1.00
O976   O     0.76890   0.35541   0.38134   0.00000  Uiso   1.00
O977   O     0.81829   0.61209   0.60641   0.00000  Uiso   1.00
O978   O     0.89777   0.64459   0.61866   0.00000  Uiso   1.00
O979   O     0.78018   0.40796   0.60755   0.00000  Uiso   1.00
O980   O     0.71807   0.45205   0.58818   0.00000  Uiso   1.00
O981   O     0.88648   0.59204   0.39244   0.00000  Uiso   1.00
O982   O     0.83334   0.56011   0.46042   0.00000  Uiso   1.00
O983   O     0.94860   0.54796   0.41183   0.00000  Uiso   1.00
O984   O     0.83333   0.43988   0.46039   0.00000  Uiso   1.00
O985   O     0.83334   0.56012   0.53961   0.00000  Uiso   1.00
O986   O     0.75828   0.50000   0.53046   0.00000  Uiso   1.00
O987   O     0.90839   0.50000   0.46954   0.00000  Uiso   1.00
O988   O     0.75828   0.49999   0.45127   0.00000  Uiso   1.00
O989   O     0.90839   0.50001   0.54873   0.00000  Uiso   1.00
O990   O     0.69236   0.42276   0.45315   0.00000  Uiso   1.00
C991   C     0.16711   0.75417   0.49921   0.00000  Uiso   1.00
C992   C     0.17976   0.69075   0.54033   0.00000  Uiso   1.00
C993   C     0.16473   0.95718   0.50213   0.00000  Uiso   1.00
C994   C     0.16860   0.70948   0.49787   0.00000  Uiso   1.00
C995   C     0.13148   0.80900   0.35333   0.00000  Uiso   1.00
C996   C     0.20185   0.85766   0.64667   0.00000  Uiso   1.00
C997   C     0.13279   0.80805   0.63747   0.00000  Uiso   1.00
C998   C     0.20054   0.85862   0.36253   0.00000  Uiso   1.00
C999   C     0.33020   0.77725   0.47252   0.00000  Uiso   1.00
C1000  C     0.00313   0.88942   0.52748   0.00000  Uiso   1.00
C1001  C     0.14787   0.70062   0.40932   0.00000  Uiso   1.00
C1002  C     0.16622   0.91250   0.50079   0.00000  Uiso   1.00
C1003  C     0.18546   0.96604   0.59068   0.00000  Uiso   1.00
C1004  C     0.03948   0.79544   0.35766   0.00000  Uiso   1.00
C1005  C     0.29385   0.87122   0.64234   0.00000  Uiso   1.00
C1006  C     0.09989   0.77639   0.60913   0.00000  Uiso   1.00
C1007  C     0.23344   0.89028   0.39087   0.00000  Uiso   1.00
C1008  C     0.06839   0.83074   0.48893   0.00000  Uiso   1.00
C1009  C     0.26494   0.83593   0.51107   0.00000  Uiso   1.00
C1010  C     0.01397   0.82086   0.48761   0.00000  Uiso   1.00
C1011  C     0.31937   0.84580   0.51239   0.00000  Uiso   1.00
C1012  C     0.15669   0.68486   0.45661   0.00000  Uiso   1.00
C1013  C     0.17664   0.98181   0.54339   0.00000  Uiso   1.00
C1014  C     0.15358   0.97591   0.45967   0.00000  Uiso   1.00
Cu1015 Cu    0.16667   0.83334   0.54689   0.00000  Uiso   1.00
Cu1016 Cu    0.16667   0.83333   0.45311   0.00000  Uiso   1.00
H1017  H     0.14318   0.95743   0.42800   0.00000  Uiso   1.00
H1018  H     0.02232   0.80809   0.38774   0.00000  Uiso   1.00
H1019  H     0.23470   0.89315   0.59641   0.00000  Uiso   1.00
H1020  H     0.31717   0.89908   0.65640   0.00000  Uiso   1.00
H1021  H     0.31101   0.85856   0.61226   0.00000  Uiso   1.00
H1022  H     0.29549   0.84757   0.33560   0.00000  Uiso   1.00
H1023  H     0.03186   0.76054   0.57167   0.00000  Uiso   1.00
H1024  H     0.30147   0.90613   0.42833   0.00000  Uiso   1.00
H1025  H     0.19015   0.70924   0.57200   0.00000  Uiso   1.00
H1026  H     0.27765   0.72957   0.47119   0.00000  Uiso   1.00
H1027  H     0.05567   0.93710   0.52878   0.00000  Uiso   1.00
H1028  H     0.10126   0.69966   0.34894   0.00000  Uiso   1.00
H1029  H     0.23208   0.96701   0.65106   0.00000  Uiso   1.00
H1030  H     0.09864   0.77352   0.40359   0.00000  Uiso   1.00
H1031  H     0.01617   0.76759   0.34359   0.00000  Uiso   1.00
H1032  H     0.03785   0.81910   0.66440   0.00000  Uiso   1.00
N1033  N     0.16668   0.83334   0.61736   0.00000  Uiso   1.00
N1034  N     0.16665   0.83332   0.38264   0.00000  Uiso   1.00
N1035  N     0.09187   0.78493   0.37124   0.00000  Uiso   1.00
N1036  N     0.24147   0.88174   0.62876   0.00000  Uiso   1.00
O1037  O     0.16666   0.77322   0.53958   0.00000  Uiso   1.00
O1038  O     0.28343   0.75924   0.48270   0.00000  Uiso   1.00
O1039  O     0.30766   0.91057   0.54687   0.00000  Uiso   1.00
O1040  O     0.04989   0.90743   0.51726   0.00000  Uiso   1.00
O1041  O     0.18171   0.72124   0.39359   0.00000  Uiso   1.00
O1042  O     0.10223   0.68874   0.38134   0.00000  Uiso   1.00
O1043  O     0.15162   0.94543   0.60641   0.00000  Uiso   1.00
O1044  O     0.23110   0.97792   0.61866   0.00000  Uiso   1.00
O1045  O     0.11351   0.74129   0.60755   0.00000  Uiso   1.00
O1046  O     0.05140   0.78538   0.58818   0.00000  Uiso   1.00
O1047  O     0.21982   0.92538   0.39244   0.00000  Uiso   1.00
O1048  O     0.16667   0.89345   0.46042   0.00000  Uiso   1.00
O1049  O     0.28193   0.88129   0.41183   0.00000  Uiso   1.00
O1050  O     0.16666   0.77321   0.46039   0.00000  Uiso   1.00
O1051  O     0.16667   0.89346   0.53961   0.00000  Uiso   1.00
O1052  O     0.09161   0.83334   0.53046   0.00000  Uiso   1.00
O1053  O     0.24172   0.83333   0.46954   0.00000  Uiso   1.00
O1054  O     0.09161   0.83333   0.45127   0.00000  Uiso   1.00
O1055  O     0.24172   0.83334   0.54873   0.00000  Uiso   1.00
O1056  O     0.02569   0.75609   0.45315   0.00000  Uiso   1.00
C1057  C     0.50044   0.75417   0.49921   0.00000  Uiso   1.00
C1058  C     0.51309   0.69075   0.54033   0.00000  Uiso   1.00
C1059  C     0.49807   0.95718   0.50213   0.00000  Uiso   1.00
C1060  C     0.50193   0.70948   0.49787   0.00000  Uiso   1.00
C1061  C     0.46482   0.80900   0.35333   0.00000  Uiso   1.00
C1062  C     0.53518   0.85766   0.64667   0.00000  Uiso   1.00
C1063  C     0.46613   0.80805   0.63747   0.00000  Uiso   1.00
C1064  C     0.53387   0.85862   0.36253   0.00000  Uiso   1.00
C1065  C     0.66354   0.77725   0.47252   0.00000  Uiso   1.00
C1066  C     0.33647   0.88942   0.52748   0.00000  Uiso   1.00
C1067  C     0.48121   0.70062   0.40932   0.00000  Uiso   1.00
C1068  C     0.49956   0.91250   0.50079   0.00000  Uiso   1.00
C1069  C     0.51880   0.96604   0.59068   0.00000  Uiso   1.00
C1070  C     0.37282   0.79544   0.35766   0.00000  Uiso   1.00
C1071  C     0.62718   0.87122   0.64234   0.00000  Uiso   1.00
C1072  C     0.43322   0.77639   0.60913   0.00000  Uiso   1.00
C1073  C     0.56678   0.89028   0.39087   0.00000  Uiso   1.00
C1074  C     0.40173   0.83074   0.48893   0.00000  Uiso   1.00
C1075  C     0.59827   0.83593   0.51107   0.00000  Uiso   1.00
C1076  C     0.34730   0.82086   0.48761   0.00000  Uiso   1.00
C1077  C     0.65270   0.84580   0.51239   0.00000  Uiso   1.00
C1078  C     0.49003   0.68486   0.45661   0.00000  Uiso   1.00
C1079  C     0.50997   0.98181   0.54339   0.00000  Uiso   1.00
C1080  C     0.48691   0.97591   0.45967   0.00000  Uiso   1.00
Cu1081 Cu    0.50000   0.83334   0.54689   0.00000  Uiso   1.00
Cu1082 Cu    0.50000   0.83333   0.45311   0.00000  Uiso   1.00
H1083  H     0.47652   0.95743   0.42800   0.00000  Uiso   1.00
H1084  H     0.35566   0.80809   0.38774   0.00000  Uiso   1.00
H1085  H     0.56803   0.89315   0.59641   0.00000  Uiso   1.00
H1086  H     0.65050   0.89908   0.65640   0.00000  Uiso   1.00
H1087  H     0.64434   0.85856   0.61226   0.00000  Uiso   1.00
H1088  H     0.62882   0.84757   0.33560   0.00000  Uiso   1.00
H1089  H     0.36519   0.76054   0.57167   0.00000  Uiso   1.00
H1090  H     0.63480   0.90613   0.42833   0.00000  Uiso   1.00
H1091  H     0.52348   0.70924   0.57200   0.00000  Uiso   1.00
H1092  H     0.61099   0.72957   0.47119   0.00000  Uiso   1.00
H1093  H     0.38900   0.93710   0.52878   0.00000  Uiso   1.00
H1094  H     0.43459   0.69966   0.34894   0.00000  Uiso   1.00
H1095  H     0.56541   0.96701   0.65106   0.00000  Uiso   1.00
H1096  H     0.43197   0.77352   0.40359   0.00000  Uiso   1.00
H1097  H     0.34950   0.76759   0.34359   0.00000  Uiso   1.00
H1098  H     0.37118   0.81910   0.66440   0.00000  Uiso   1.00
N1099  N     0.50001   0.83334   0.61736   0.00000  Uiso   1.00
N1100  N     0.49999   0.83332   0.38264   0.00000  Uiso   1.00
N1101  N     0.42520   0.78493   0.37124   0.00000  Uiso   1.00
N1102  N     0.57480   0.88174   0.62876   0.00000  Uiso   1.00
O1103  O     0.50000   0.77322   0.53958   0.00000  Uiso   1.00
O1104  O     0.61676   0.75924   0.48270   0.00000  Uiso   1.00
O1105  O     0.64099   0.91057   0.54687   0.00000  Uiso   1.00
O1106  O     0.38322   0.90743   0.51726   0.00000  Uiso   1.00
O1107  O     0.51505   0.72124   0.39359   0.00000  Uiso   1.00
O1108  O     0.43557   0.68874   0.38134   0.00000  Uiso   1.00
O1109  O     0.48496   0.94543   0.60641   0.00000  Uiso   1.00
O1110  O     0.56444   0.97792   0.61866   0.00000  Uiso   1.00
O1111  O     0.44685   0.74129   0.60755   0.00000  Uiso   1.00
O1112  O     0.38473   0.78538   0.58818   0.00000  Uiso   1.00
O1113  O     0.55315   0.92538   0.39244   0.00000  Uiso   1.00
O1114  O     0.50000   0.89345   0.46042   0.00000  Uiso   1.00
O1115  O     0.61527   0.88129   0.41183   0.00000  Uiso   1.00
O1116  O     0.50000   0.77321   0.46039   0.00000  Uiso   1.00
O1117  O     0.50000   0.89346   0.53961   0.00000  Uiso   1.00
O1118  O     0.42495   0.83334   0.53046   0.00000  Uiso   1.00
O1119  O     0.57505   0.83333   0.46954   0.00000  Uiso   1.00
O1120  O     0.42494   0.83333   0.45127   0.00000  Uiso   1.00
O1121  O     0.57506   0.83334   0.54873   0.00000  Uiso   1.00
O1122  O     0.35902   0.75609   0.45315   0.00000  Uiso   1.00
C1123  C     0.83378   0.75417   0.49921   0.00000  Uiso   1.00
C1124  C     0.84642   0.69075   0.54033   0.00000  Uiso   1.00
C1125  C     0.83140   0.95718   0.50213   0.00000  Uiso   1.00
C1126  C     0.83527   0.70948   0.49787   0.00000  Uiso   1.00
C1127  C     0.79815   0.80900   0.35333   0.00000  Uiso   1.00
C1128  C     0.86852   0.85766   0.64667   0.00000  Uiso   1.00
C1129  C     0.79946   0.80805   0.63747   0.00000  Uiso   1.00
C1130  C     0.86721   0.85862   0.36253   0.00000  Uiso   1.00
C1131  C     0.99687   0.77725   0.47252   0.00000  Uiso   1.00
C1132  C     0.66980   0.88942   0.52748   0.00000  Uiso   1.00
C1133  C     0.81454   0.70062   0.40932   0.00000  Uiso   1.00
C1134  C     0.83289   0.91250   0.50079   0.00000  Uiso   1.00
C1135  C     0.85213   0.96604   0.59068   0.00000  Uiso   1.00
C1136  C     0.70615   0.79544   0.35766   0.00000  Uiso   1.00
C1137  C     0.96052   0.87122   0.64234   0.00000  Uiso   1.00
C1138  C     0.76655   0.77639   0.60913   0.00000  Uiso   1.00
C1139  C     0.90011   0.89028   0.39087   0.00000  Uiso   1.00
C1140  C     0.73506   0.83074   0.48893   0.00000  Uiso   1.00
C1141  C     0.93161   0.83593   0.51107   0.00000  Uiso   1.00
C1142  C     0.68063   0.82086   0.48761   0.00000  Uiso   1.00
C1143  C     0.98603   0.84580   0.51239   0.00000  Uiso   1.00
C1144  C     0.82336   0.68486   0.45661   0.00000  Uiso   1.00
C1145  C     0.84331   0.98181   0.54339   0.00000  Uiso   1.00
C1146  C     0.82024   0.97591   0.45967   0.00000  Uiso   1.00
Cu1147 Cu    0.83333   0.83334   0.54689   0.00000  Uiso   1.00
Cu1148 Cu    0.83333   0.83333   0.45311   0.00000  Uiso   1.00
H1149  H     0.80985   0.95743   0.42800   0.00000  Uiso   1.00
H1150  H     0.68899   0.80809   0.38774   0.00000  Uiso   1.00
H1151  H     0.90137   0.89315   0.59641   0.00000  Uiso   1.00
H1152  H     0.98384   0.89908   0.65640   0.00000  Uiso   1.00
H1153  H     0.97767   0.85856   0.61226   0.00000  Uiso   1.00
H1154  H     0.96215   0.84757   0.33560   0.00000  Uiso   1.00
H1155  H     0.69853   0.76054   0.57167   0.00000  Uiso   1.00
H1156  H     0.96814   0.90613   0.42833   0.00000  Uiso   1.00
H1157  H     0.85682   0.70924   0.57200   0.00000  Uiso   1.00
H1158  H     0.94432   0.72957   0.47119   0.00000  Uiso   1.00
H1159  H     0.72234   0.93710   0.52878   0.00000  Uiso   1.00
H1160  H     0.76793   0.69966   0.34894   0.00000  Uiso   1.00
H1161  H     0.89874   0.96701   0.65106   0.00000  Uiso   1.00
H1162  H     0.76530   0.77352   0.40359   0.00000  Uiso   1.00
H1163  H     0.68283   0.76759   0.34359   0.00000  Uiso   1.00
H1164  H     0.70451   0.81910   0.66440   0.00000  Uiso   1.00
N1165  N     0.83335   0.83334   0.61736   0.00000  Uiso   1.00
N1166  N     0.83332   0.83332   0.38264   0.00000  Uiso   1.00
N1167  N     0.75853   0.78493   0.37124   0.00000  Uiso   1.00
N1168  N     0.90814   0.88174   0.62876   0.00000  Uiso   1.00
O1169  O     0.83333   0.77322   0.53958   0.00000  Uiso   1.00
O1170  O     0.95010   0.75924   0.48270   0.00000  Uiso   1.00
O1171  O     0.97432   0.91057   0.54687   0.00000  Uiso   1.00
O1172  O     0.71656   0.90743   0.51726   0.00000  Uiso   1.00
O1173  O     0.84838   0.72124   0.39359   0.00000  Uiso   1.00
O1174  O     0.76890   0.68874   0.38134   0.00000  Uiso   1.00
O1175  O     0.81829   0.94543   0.60641   0.00000  Uiso   1.00
O1176  O     0.89777   0.97792   0.61866   0.00000  Uiso   1.00
O1177  O     0.78018   0.74129   0.60755   0.00000  Uiso   1.00
O1178  O     0.71807   0.78538   0.58818   0.00000  Uiso   1.00
O1179  O     0.88648   0.92538   0.39244   0.00000  Uiso   1.00
O1180  O     0.83334   0.89345   0.46042   0.00000  Uiso   1.00
O1181  O     0.94860   0.88129   0.41183   0.00000  Uiso   1.00
O1182  O     0.83333   0.77321   0.46039   0.00000  Uiso   1.00
O1183  O     0.83334   0.89346   0.53961   0.00000  Uiso   1.00
O1184  O     0.75828   0.83334   0.53046   0.00000  Uiso   1.00
O1185  O     0.90839   0.83333   0.46954   0.00000  Uiso   1.00
O1186  O     0.75828   0.83333   0.45127   0.00000  Uiso   1.00
O1187  O     0.90839   0.83334   0.54873   0.00000  Uiso   1.00
O1188  O     0.69236   0.75609   0.45315   0.00000  Uiso   1.00
C1189  C     0.16711   0.08750   0.83254   0.00000  Uiso   1.00
C1190  C     0.17976   0.02408   0.87366   0.00000  Uiso   1.00
C1191  C     0.16473   0.29052   0.83546   0.00000  Uiso   1.00
C1192  C     0.16860   0.04282   0.83121   0.00000  Uiso   1.00
C1193  C     0.13148   0.14234   0.68666   0.00000  Uiso   1.00
C1194  C     0.20185   0.19100   0.98000   0.00000  Uiso   1.00
C1195  C     0.13279   0.14138   0.97081   0.00000  Uiso   1.00
C1196  C     0.20054   0.19195   0.69586   0.00000  Uiso   1.00
C1197  C     0.33020   0.11058   0.80585   0.00000  Uiso   1.00
C1198  C     0.00313   0.22275   0.86081   0.00000  Uiso   1.00
C1199  C     0.14787   0.03396   0.74265   0.00000  Uiso   1.00
C1200  C     0.16622   0.24583   0.83413   0.00000  Uiso   1.00
C1201  C     0.18546   0.29938   0.92402   0.00000  Uiso   1.00
C1202  C     0.03948   0.12878   0.69100   0.00000  Uiso   1.00
C1203  C     0.29385   0.20455   0.97567   0.00000  Uiso   1.00
C1204  C     0.09989   0.10973   0.94247   0.00000  Uiso   1.00
C1205  C     0.23344   0.22361   0.72420   0.00000  Uiso   1.00
C1206  C     0.06839   0.16407   0.82227   0.00000  Uiso   1.00
C1207  C     0.26494   0.16926   0.84440   0.00000  Uiso   1.00
C1208  C     0.01397   0.15419   0.82094   0.00000  Uiso   1.00
C1209  C     0.31937   0.17914   0.84573   0.00000  Uiso   1.00
C1210  C     0.15669   0.01819   0.78995   0.00000  Uiso   1.00
C1211  C     0.17664   0.31514   0.87672   0.00000  Uiso   1.00
C1212  C     0.15358   0.30925   0.79300   0.00000  Uiso   1.00
Cu1213 Cu    0.16667   0.16667   0.88022   0.00000  Uiso   1.00
Cu1214 Cu    0.16667   0.16666   0.78645   0.00000  Uiso   1.00
H1215  H     0.14318   0.29076   0.76134   0.00000  Uiso   1.00
H1216  H     0.02232   0.14143   0.72108   0.00000  Uiso   1.00
H1217  H     0.23470   0.22648   0.92974   0.00000  Uiso   1.00
H1218  H     0.31717   0.23241   0.98974   0.00000  Uiso   1.00
H1219  H     0.31101   0.19190   0.94559   0.00000  Uiso   1.00
H1220  H     0.29549   0.18090   0.66894   0.00000  Uiso   1.00
H1221  H     0.03186   0.09388   0.90500   0.00000  Uiso   1.00
H1222  H     0.30147   0.23946   0.76167   0.00000  Uiso   1.00
H1223  H     0.19015   0.04257   0.90533   0.00000  Uiso   1.00
H1224  H     0.27765   0.06291   0.80452   0.00000  Uiso   1.00
H1225  H     0.05567   0.27043   0.86211   0.00000  Uiso   1.00
H1226  H     0.10126   0.03299   0.68227   0.00000  Uiso   1.00
H1227  H     0.23208   0.30034   0.98439   0.00000  Uiso   1.00
H1228  H     0.09864   0.10685   0.73692   0.00000  Uiso   1.00
H1229  H     0.01617   0.10092   0.67693   0.00000  Uiso   1.00
H1230  H     0.03785   0.15243   0.99774   0.00000  Uiso   1.00
N1231  N     0.16668   0.16668   0.95069   0.00000  Uiso   1.00
N1232  N     0.16665   0.16666   0.71597   0.00000  Uiso   1.00
N1233  N     0.09187   0.11826   0.70457   0.00000  Uiso   1.00
N1234  N     0.24147   0.21507   0.96210   0.00000  Uiso   1.00
O1235  O     0.16666   0.10655   0.87291   0.00000  Uiso   1.00
O1236  O     0.28343   0.09257   0.81603   0.00000  Uiso   1.00
O1237  O     0.30766   0.24390   0.88020   0.00000  Uiso   1.00
O1238  O     0.04989   0.24076   0.85060   0.00000  Uiso   1.00
O1239  O     0.18171   0.05457   0.72693   0.00000  Uiso   1.00
O1240  O     0.10223   0.02207   0.71467   0.00000  Uiso   1.00
O1241  O     0.15162   0.27876   0.93974   0.00000  Uiso   1.00
O1242  O     0.23110   0.31126   0.95200   0.00000  Uiso   1.00
O1243  O     0.11351   0.07462   0.94089   0.00000  Uiso   1.00
O1244  O     0.05140   0.11871   0.92151   0.00000  Uiso   1.00
O1245  O     0.21982   0.25871   0.72578   0.00000  Uiso   1.00
O1246  O     0.16667   0.22678   0.79375   0.00000  Uiso   1.00
O1247  O     0.28193   0.21462   0.74516   0.00000  Uiso   1.00
O1248  O     0.16666   0.10654   0.79372   0.00000  Uiso   1.00
O1249  O     0.16667   0.22679   0.87294   0.00000  Uiso   1.00
O1250  O     0.09161   0.16667   0.86379   0.00000  Uiso   1.00
O1251  O     0.24172   0.16666   0.80288   0.00000  Uiso   1.00
O1252  O     0.09161   0.16666   0.78460   0.00000  Uiso   1.00
O1253  O     0.24172   0.16667   0.88207   0.00000  Uiso   1.00
O1254  O     0.02569   0.08942   0.78649   0.00000  Uiso   1.00
C1255  C     0.50044   0.08750   0.83254   0.00000  Uiso   1.00
C1256  C     0.51309   0.02408   0.87366   0.00000  Uiso   1.00
C1257  C     0.49807   0.29052   0.83546   0.00000  Uiso   1.00
C1258  C     0.50193   0.04282   0.83121   0.00000  Uiso   1.00
C1259  C     0.46482   0.14234   0.68666   0.00000  Uiso   1.00
C1260  C     0.53518   0.19100   0.98000   0.00000  Uiso   1.00
C1261  C     0.46613   0.14138   0.97081   0.00000  Uiso   1.00
C1262  C     0.53387   0.19195   0.69586   0.00000  Uiso   1.00
C1263  C     0.66354   0.11058   0.80585   0.00000  Uiso   1.00
C1264  C     0.33647   0.22275   0.86081   0.00000  Uiso   1.00
C1265  C     0.48121   0.03396   0.74265   0.00000  Uiso   1.00
C1266  C     0.49956   0.24583   0.83413   0.00000  Uiso   1.00
C1267  C     0.51880   0.29938   0.92402   0.00000  Uiso   1.00
C1268  C     0.37282   0.12878   0.69100   0.00000  Uiso   1.00
C1269  C     0.62718   0.20455   0.97567   0.00000  Uiso   1.00
C1270  C     0.43322   0.10973   0.94247   0.00000  Uiso   1.00
C1271  C     0.56678   0.22361   0.72420   0.00000  Uiso   1.00
C1272  C     0.40173   0.16407   0.82227   0.00000  Uiso   1.00
C1273  C     0.59827   0.16926   0.84440   0.00000  Uiso   1.00
C1274  C     0.34730   0.15419   0.82094   0.00000  Uiso   1.00
C1275  C     0.65270   0.17914   0.84573   0.00000  Uiso   1.00
C1276  C     0.49003   0.01819   0.78995   0.00000  Uiso   1.00
C1277  C     0.50997   0.31514   0.87672   0.00000  Uiso   1.00
C1278  C     0.48691   0.30925   0.79300   0.00000  Uiso   1.00
Cu1279 Cu    0.50000   0.16667   0.88022   0.00000  Uiso   1.00
Cu1280 Cu    0.50000   0.16666   0.78645   0.00000  Uiso   1.00
H1281  H     0.47652   0.29076   0.76134   0.00000  Uiso   1.00
H1282  H     0.35566   0.14143   0.72108   0.00000  Uiso   1.00
H1283  H     0.56803   0.22648   0.92974   0.00000  Uiso   1.00
H1284  H     0.65050   0.23241   0.98974   0.00000  Uiso   1.00
H1285  H     0.64434   0.19190   0.94559   0.00000  Uiso   1.00
H1286  H     0.62882   0.18090   0.66894   0.00000  Uiso   1.00
H1287  H     0.36519   0.09388   0.90500   0.00000  Uiso   1.00
H1288  H     0.63480   0.23946   0.76167   0.00000  Uiso   1.00
H1289  H     0.52348   0.04257   0.90533   0.00000  Uiso   1.00
H1290  H     0.61099   0.06291   0.80452   0.00000  Uiso   1.00
H1291  H     0.38900   0.27043   0.86211   0.00000  Uiso   1.00
H1292  H     0.43459   0.03299   0.68227   0.00000  Uiso   1.00
H1293  H     0.56541   0.30034   0.98439   0.00000  Uiso   1.00
H1294  H     0.43197   0.10685   0.73692   0.00000  Uiso   1.00
H1295  H     0.34950   0.10092   0.67693   0.00000  Uiso   1.00
H1296  H     0.37118   0.15243   0.99774   0.00000  Uiso   1.00
N1297  N     0.50001   0.16668   0.95069   0.00000  Uiso   1.00
N1298  N     0.49999   0.16666   0.71597   0.00000  Uiso   1.00
N1299  N     0.42520   0.11826   0.70457   0.00000  Uiso   1.00
N1300  N     0.57480   0.21507   0.96210   0.00000  Uiso   1.00
O1301  O     0.50000   0.10655   0.87291   0.00000  Uiso   1.00
O1302  O     0.61676   0.09257   0.81603   0.00000  Uiso   1.00
O1303  O     0.64099   0.24390   0.88020   0.00000  Uiso   1.00
O1304  O     0.38322   0.24076   0.85060   0.00000  Uiso   1.00
O1305  O     0.51505   0.05457   0.72693   0.00000  Uiso   1.00
O1306  O     0.43557   0.02207   0.71467   0.00000  Uiso   1.00
O1307  O     0.48496   0.27876   0.93974   0.00000  Uiso   1.00
O1308  O     0.56444   0.31126   0.95200   0.00000  Uiso   1.00
O1309  O     0.44685   0.07462   0.94089   0.00000  Uiso   1.00
O1310  O     0.38473   0.11871   0.92151   0.00000  Uiso   1.00
O1311  O     0.55315   0.25871   0.72578   0.00000  Uiso   1.00
O1312  O     0.50000   0.22678   0.79375   0.00000  Uiso   1.00
O1313  O     0.61527   0.21462   0.74516   0.00000  Uiso   1.00
O1314  O     0.50000   0.10654   0.79372   0.00000  Uiso   1.00
O1315  O     0.50000   0.22679   0.87294   0.00000  Uiso   1.00
O1316  O     0.42495   0.16667   0.86379   0.00000  Uiso   1.00
O1317  O     0.57505   0.16666   0.80288   0.00000  Uiso   1.00
O1318  O     0.42494   0.16666   0.78460   0.00000  Uiso   1.00
O1319  O     0.57506   0.16667   0.88207   0.00000  Uiso   1.00
O1320  O     0.35902   0.08942   0.78649   0.00000  Uiso   1.00
C1321  C     0.83378   0.08750   0.83254   0.00000  Uiso   1.00
C1322  C     0.84642   0.02408   0.87366   0.00000  Uiso   1.00
C1323  C     0.83140   0.29052   0.83546   0.00000  Uiso   1.00
C1324  C     0.83527   0.04282   0.83121   0.00000  Uiso   1.00
C1325  C     0.79815   0.14234   0.68666   0.00000  Uiso   1.00
C1326  C     0.86852   0.19100   0.98000   0.00000  Uiso   1.00
C1327  C     0.79946   0.14138   0.97081   0.00000  Uiso   1.00
C1328  C     0.86721   0.19195   0.69586   0.00000  Uiso   1.00
C1329  C     0.99687   0.11058   0.80585   0.00000  Uiso   1.00
C1330  C     0.66980   0.22275   0.86081   0.00000  Uiso   1.00
C1331  C     0.81454   0.03396   0.74265   0.00000  Uiso   1.00
C1332  C     0.83289   0.24583   0.83413   0.00000  Uiso   1.00
C1333  C     0.85213   0.29938   0.92402   0.00000  Uiso   1.00
C1334  C     0.70615   0.12878   0.69100   0.00000  Uiso   1.00
C1335  C     0.96052   0.20455   0.97567   0.00000  Uiso   1.00
C1336  C     0.76655   0.10973   0.94247   0.00000  Uiso   1.00
C1337  C     0.90011   0.22361   0.72420   0.00000  Uiso   1.00
C1338  C     0.73506   0.16407   0.82227   0.00000  Uiso   1.00
C1339  C     0.93161   0.16926   0.84440   0.00000  Uiso   1.00
C1340  C     0.68063   0.15419   0.82094   0.00000  Uiso   1.00
C1341  C     0.98603   0.17914   0.84573   0.00000  Uiso   1.00
C1342  C     0.82336   0.01819   0.78995   0.00000  Uiso   1.00
C1343  C     0.84331   0.31514   0.87672   0.00000  Uiso   1.00
C1344  C     0.82024   0.30925   0.79300   0.00000  Uiso   1.00
Cu1345 Cu    0.83333   0.16667   0.88022   0.00000  Uiso   1.00
Cu1346 Cu    0.83333   0.16666   0.78645   0.00000  Uiso   1.00
H1347  H     0.80985   0.29076   0.76134   0.00000  Uiso   1.00
H1348  H     0.68899   0.14143   0.72108   0.00000  Uiso   1.00
H1349  H     0.90137   0.22648   0.92974   0.00000  Uiso   1.00
H1350  H     0.98384   0.23241   0.98974   0.00000  Uiso   1.00
H1351  H     0.97767   0.19190   0.94559   0.00000  Uiso   1.00
H1352  H     0.96215   0.18090   0.66894   0.00000  Uiso   1.00
H1353  H     0.69853   0.09388   0.90500   0.00000  Uiso   1.00
H1354  H     0.96814   0.23946   0.76167   0.00000  Uiso   1.00
H1355  H     0.85682   0.04257   0.90533   0.00000  Uiso   1.00
H1356  H     0.94432   0.06291   0.80452   0.00000  Uiso   1.00
H1357  H     0.72234   0.27043   0.86211   0.00000  Uiso   1.00
H1358  H     0.76793   0.03299   0.68227   0.00000  Uiso   1.00
H1359  H     0.89874   0.30034   0.98439   0.00000  Uiso   1.00
H1360  H     0.76530   0.10685   0.73692   0.00000  Uiso   1.00
H1361  H     0.68283   0.10092   0.67693   0.00000  Uiso   1.00
H1362  H     0.70451   0.15243   0.99774   0.00000  Uiso   1.00
N1363  N     0.83335   0.16668   0.95069   0.00000  Uiso   1.00
N1364  N     0.83332   0.16666   0.71597   0.00000  Uiso   1.00
N1365  N     0.75853   0.11826   0.70457   0.00000  Uiso   1.00
N1366  N     0.90814   0.21507   0.96210   0.00000  Uiso   1.00
O1367  O     0.83333   0.10655   0.87291   0.00000  Uiso   1.00
O1368  O     0.95010   0.09257   0.81603   0.00000  Uiso   1.00
O1369  O     0.97432   0.24390   0.88020   0.00000  Uiso   1.00
O1370  O     0.71656   0.24076   0.85060   0.00000  Uiso   1.00
O1371  O     0.84838   0.05457   0.72693   0.00000  Uiso   1.00
O1372  O     0.76890   0.02207   0.71467   0.00000  Uiso   1.00
O1373  O     0.81829   0.27876   0.93974   0.00000  Uiso   1.00
O1374  O     0.89777   0.31126   0.95200   0.00000  Uiso   1.00
O1375  O     0.78018   0.07462   0.94089   0.00000  Uiso   1.00
O1376  O     0.71807   0.11871   0.92151   0.00000  Uiso   1.00
O1377  O     0.88648   0.25871   0.72578   0.00000  Uiso   1.00
O1378  O     0.83334   0.22678   0.79375   0.00000  Uiso   1.00
O1379  O     0.94860   0.21462   0.74516   0.00000  Uiso   1.00
O1380  O     0.83333   0.10654   0.79372   0.00000  Uiso   1.00
O1381  O     0.83334   0.22679   0.87294   0.00000  Uiso   1.00
O1382  O     0.75828   0.16667   0.86379   0.00000  Uiso   1.00
O1383  O     0.90839   0.16666   0.80288   0.00000  Uiso   1.00
O1384  O     0.75828   0.16666   0.78460   0.00000  Uiso   1.00
O1385  O     0.90839   0.16667   0.88207   0.00000  Uiso   1.00
O1386  O     0.69236   0.08942   0.78649   0.00000  Uiso   1.00
C1387  C     0.16711   0.42084   0.83254   0.00000  Uiso   1.00
C1388  C     0.17976   0.35742   0.87366   0.00000  Uiso   1.00
C1389  C     0.16473   0.62385   0.83546   0.00000  Uiso   1.00
C1390  C     0.16860   0.37615   0.83121   0.00000  Uiso   1.00
C1391  C     0.13148   0.47567   0.68666   0.00000  Uiso   1.00
C1392  C     0.20185   0.52433   0.98000   0.00000  Uiso   1.00
C1393  C     0.13279   0.47471   0.97081   0.00000  Uiso   1.00
C1394  C     0.20054   0.52529   0.69586   0.00000  Uiso   1.00
C1395  C     0.33020   0.44391   0.80585   0.00000  Uiso   1.00
C1396  C     0.00313   0.55609   0.86081   0.00000  Uiso   1.00
C1397  C     0.14787   0.36729   0.74265   0.00000  Uiso   1.00
C1398  C     0.16622   0.57916   0.83413   0.00000  Uiso   1.00
C1399  C     0.18546   0.63271   0.92402   0.00000  Uiso   1.00
C1400  C     0.03948   0.46211   0.69100   0.00000  Uiso   1.00
C1401  C     0.29385   0.53789   0.97567   0.00000  Uiso   1.00
C1402  C     0.09989   0.44306   0.94247   0.00000  Uiso   1.00
C1403  C     0.23344   0.55694   0.72420   0.00000  Uiso   1.00
C1404  C     0.06839   0.49741   0.82227   0.00000  Uiso   1.00
C1405  C     0.26494   0.50259   0.84440   0.00000  Uiso   1.00
C1406  C     0.01397   0.48753   0.82094   0.00000  Uiso   1.00
C1407  C     0.31937   0.51247   0.84573   0.00000  Uiso   1.00
C1408  C     0.15669   0.35152   0.78995   0.00000  Uiso   1.00
C1409  C     0.17664   0.64848   0.87672   0.00000  Uiso   1.00
C1410  C     0.15358   0.64258   0.79300   0.00000  Uiso   1.00
Cu1411 Cu    0.16667   0.50001   0.88022   0.00000  Uiso   1.00
Cu1412 Cu    0.16667   0.49999   0.78645   0.00000  Uiso   1.00
H1413  H     0.14318   0.62409   0.76134   0.00000  Uiso   1.00
H1414  H     0.02232   0.47476   0.72108   0.00000  Uiso   1.00
H1415  H     0.23470   0.55981   0.92974   0.00000  Uiso   1.00
H1416  H     0.31717   0.56574   0.98974   0.00000  Uiso   1.00
H1417  H     0.31101   0.52523   0.94559   0.00000  Uiso   1.00
H1418  H     0.29549   0.51424   0.66894   0.00000  Uiso   1.00
H1419  H     0.03186   0.42721   0.90500   0.00000  Uiso   1.00
H1420  H     0.30147   0.57279   0.76167   0.00000  Uiso   1.00
H1421  H     0.19015   0.37591   0.90533   0.00000  Uiso   1.00
H1422  H     0.27765   0.39624   0.80452   0.00000  Uiso   1.00
H1423  H     0.05567   0.60376   0.86211   0.00000  Uiso   1.00
H1424  H     0.10126   0.36632   0.68227   0.00000  Uiso   1.00
H1425  H     0.23208   0.63368   0.98439   0.00000  Uiso   1.00
H1426  H     0.09864   0.44018   0.73692   0.00000  Uiso   1.00
H1427  H     0.01617   0.43425   0.67693   0.00000  Uiso   1.00
H1428  H     0.03785   0.48576   0.99774   0.00000  Uiso   1.00
N1429  N     0.16668   0.50001   0.95069   0.00000  Uiso   1.00
N1430  N     0.16665   0.49999   0.71597   0.00000  Uiso   1.00
N1431  N     0.09187   0.45159   0.70457   0.00000  Uiso   1.00
N1432  N     0.24147   0.54841   0.96210   0.00000  Uiso   1.00
O1433  O     0.16666   0.43989   0.87291   0.00000  Uiso   1.00
O1434  O     0.28343   0.42591   0.81603   0.00000  Uiso   1.00
O1435  O     0.30766   0.57723   0.88020   0.00000  Uiso   1.00
O1436  O     0.04989   0.57410   0.85060   0.00000  Uiso   1.00
O1437  O     0.18171   0.38791   0.72693   0.00000  Uiso   1.00
O1438  O     0.10223   0.35541   0.71467   0.00000  Uiso   1.00
O1439  O     0.15162   0.61209   0.93974   0.00000  Uiso   1.00
O1440  O     0.23110   0.64459   0.95200   0.00000  Uiso   1.00
O1441  O     0.11351   0.40796   0.94089   0.00000  Uiso   1.00
O1442  O     0.05140   0.45205   0.92151   0.00000  Uiso   1.00
O1443  O     0.21982   0.59204   0.72578   0.00000  Uiso   1.00
O1444  O     0.16667   0.56011   0.79375   0.00000  Uiso   1.00
O1445  O     0.28193   0.54796   0.74516   0.00000  Uiso   1.00
O1446  O     0.16666   0.43988   0.79372   0.00000  Uiso   1.00
O1447  O     0.16667   0.56012   0.87294   0.00000  Uiso   1.00
O1448  O     0.09161   0.50000   0.86379   0.00000  Uiso   1.00
O1449  O     0.24172   0.50000   0.80288   0.00000  Uiso   1.00
O1450  O     0.09161   0.49999   0.78460   0.00000  Uiso   1.00
O1451  O     0.24172   0.50001   0.88207   0.00000  Uiso   1.00
O1452  O     0.02569   0.42276   0.78649   0.00000  Uiso   1.00
C1453  C     0.50044   0.42084   0.83254   0.00000  Uiso   1.00
C1454  C     0.51309   0.35742   0.87366   0.00000  Uiso   1.00
C1455  C     0.49807   0.62385   0.83546   0.00000  Uiso   1.00
C1456  C     0.50193   0.37615   0.83121   0.00000  Uiso   1.00
C1457  C     0.46482   0.47567   0.68666   0.00000  Uiso   1.00
C1458  C     0.53518   0.52433   0.98000   0.00000  Uiso   1.00
C1459  C     0.46613   0.47471   0.97081   0.00000  Uiso   1.00
C1460  C     0.53387   0.52529   0.69586   0.00000  Uiso   1.00
C1461  C     0.66354   0.44391   0.80585   0.00000  Uiso   1.00
C1462  C     0.33647   0.55609   0.86081   0.00000  Uiso   1.00
C1463  C     0.48121   0.36729   0.74265   0.00000  Uiso   1.00
C1464  C     0.49956   0.57916   0.83413   0.00000  Uiso   1.00
C1465  C     0.51880   0.63271   0.92402   0.00000  Uiso   1.00
C1466  C     0.37282   0.46211   0.69100   0.00000  Uiso   1.00
C1467  C     0.62718   0.53789   0.97567   0.00000  Uiso   1.00
C1468  C     0.43322   0.44306   0.94247   0.00000  Uiso   1.00
C1469  C     0.56678   0.55694   0.72420   0.00000  Uiso   1.00
C1470  C     0.40173   0.49741   0.82227   0.00000  Uiso   1.00
C1471  C     0.59827   0.50259   0.84440   0.00000  Uiso   1.00
C1472  C     0.34730   0.48753   0.82094   0.00000  Uiso   1.00
C1473  C     0.65270   0.51247   0.84573   0.00000  Uiso   1.00
C1474  C     0.49003   0.35152   0.78995   0.00000  Uiso   1.00
C1475  C     0.50997   0.64848   0.87672   0.00000  Uiso   1.00
C1476  C     0.48691   0.64258   0.79300   0.00000  Uiso   1.00
Cu1477 Cu    0.50000   0.50001   0.88022   0.00000  Uiso   1.00
Cu1478 Cu    0.50000   0.49999   0.78645   0.00000  Uiso   1.00
H1479  H     0.47652   0.62409   0.76134   0.00000  Uiso   1.00
H1480  H     0.35566   0.47476   0.72108   0.00000  Uiso   1.00
H1481  H     0.56803   0.55981   0.92974   0.00000  Uiso   1.00
H1482  H     0.65050   0.56574   0.98974   0.00000  Uiso   1.00
H1483  H     0.64434   0.52523   0.94559   0.00000  Uiso   1.00
H1484  H     0.62882   0.51424   0.66894   0.00000  Uiso   1.00
H1485  H     0.36519   0.42721   0.90500   0.00000  Uiso   1.00
H1486  H     0.63480   0.57279   0.76167   0.00000  Uiso   1.00
H1487  H     0.52348   0.37591   0.90533   0.00000  Uiso   1.00
H1488  H     0.61099   0.39624   0.80452   0.00000  Uiso   1.00
H1489  H     0.38900   0.60376   0.86211   0.00000  Uiso   1.00
H1490  H     0.43459   0.36632   0.68227   0.00000  Uiso   1.00
H1491  H     0.56541   0.63368   0.98439   0.00000  Uiso   1.00
H1492  H     0.43197   0.44018   0.73692   0.00000  Uiso   1.00
H1493  H     0.34950   0.43425   0.67693   0.00000  Uiso   1.00
H1494  H     0.37118   0.48576   0.99774   0.00000  Uiso   1.00
N1495  N     0.50001   0.50001   0.95069   0.00000  Uiso   1.00
N1496  N     0.49999   0.49999   0.71597   0.00000  Uiso   1.00
N1497  N     0.42520   0.45159   0.70457   0.00000  Uiso   1.00
N1498  N     0.57480   0.54841   0.96210   0.00000  Uiso   1.00
O1499  O     0.50000   0.43989   0.87291   0.00000  Uiso   1.00
O1500  O     0.61676   0.42591   0.81603   0.00000  Uiso   1.00
O1501  O     0.64099   0.57723   0.88020   0.00000  Uiso   1.00
O1502  O     0.38322   0.57410   0.85060   0.00000  Uiso   1.00
O1503  O     0.51505   0.38791   0.72693   0.00000  Uiso   1.00
O1504  O     0.43557   0.35541   0.71467   0.00000  Uiso   1.00
O1505  O     0.48496   0.61209   0.93974   0.00000  Uiso   1.00
O1506  O     0.56444   0.64459   0.95200   0.00000  Uiso   1.00
O1507  O     0.44685   0.40796   0.94089   0.00000  Uiso   1.00
O1508  O     0.38473   0.45205   0.92151   0.00000  Uiso   1.00
O1509  O     0.55315   0.59204   0.72578   0.00000  Uiso   1.00
O1510  O     0.50000   0.56011   0.79375   0.00000  Uiso   1.00
O1511  O     0.61527   0.54796   0.74516   0.00000  Uiso   1.00
O1512  O     0.50000   0.43988   0.79372   0.00000  Uiso   1.00
O1513  O     0.50000   0.56012   0.87294   0.00000  Uiso   1.00
O1514  O     0.42495   0.50000   0.86379   0.00000  Uiso   1.00
O1515  O     0.57505   0.50000   0.80288   0.00000  Uiso   1.00
O1516  O     0.42494   0.49999   0.78460   0.00000  Uiso   1.00
O1517  O     0.57506   0.50001   0.88207   0.00000  Uiso   1.00
O1518  O     0.35902   0.42276   0.78649   0.00000  Uiso   1.00
C1519  C     0.83378   0.42084   0.83254   0.00000  Uiso   1.00
C1520  C     0.84642   0.35742   0.87366   0.00000  Uiso   1.00
C1521  C     0.83140   0.62385   0.83546   0.00000  Uiso   1.00
C1522  C     0.83527   0.37615   0.83121   0.00000  Uiso   1.00
C1523  C     0.79815   0.47567   0.68666   0.00000  Uiso   1.00
C1524  C     0.86852   0.52433   0.98000   0.00000  Uiso   1.00
C1525  C     0.79946   0.47471   0.97081   0.00000  Uiso   1.00
C1526  C     0.86721   0.52529   0.69586   0.00000  Uiso   1.00
C1527  C     0.99687   0.44391   0.80585   0.00000  Uiso   1.00
C1528  C     0.66980   0.55609   0.86081   0.00000  Uiso   1.00
C1529  C     0.81454   0.36729   0.74265   0.00000  Uiso   1.00
C1530  C     0.83289   0.57916   0.83413   0.00000  Uiso   1.00
C1531  C     0.85213   0.63271   0.92402   0.00000  Uiso   1.00
C1532  C     0.70615   0.46211   0.69100   0.00000  Uiso   1.00
C1533  C     0.96052   0.53789   0.97567   0.00000  Uiso   1.00
C1534  C     0.76655   0.44306   0.94247   0.00000  Uiso   1.00
C1535  C     0.90011   0.55694   0.72420   0.00000  Uiso   1.00
C1536  C     0.73506   0.49741   0.82227   0.00000  Uiso   1.00
C1537  C     0.93161   0.50259   0.84440   0.00000  Uiso   1.00
C1538  C     0.68063   0.48753   0.82094   0.00000  Uiso   1.00
C1539  C     0.98603   0.51247   0.84573   0.00000  Uiso   1.00
C1540  C     0.82336   0.35152   0.78995   0.00000  Uiso   1.00
C1541  C     0.84331   0.64848   0.87672   0.00000  Uiso   1.00
C1542  C     0.82024   0.64258   0.79300   0.00000  Uiso   1.00
Cu1543 Cu    0.83333   0.50001   0.88022   0.00000  Uiso   1.00
Cu1544 Cu    0.83333   0.49999   0.78645   0.00000  Uiso   1.00
H1545  H     0.80985   0.62409   0.76134   0.00000  Uiso   1.00
H1546  H     0.68899   0.47476   0.72108   0.00000  Uiso   1.00
H1547  H     0.90137   0.55981   0.92974   0.00000  Uiso   1.00
H1548  H     0.98384   0.56574   0.98974   0.00000  Uiso   1.00
H1549  H     0.97767   0.52523   0.94559   0.00000  Uiso   1.00
H1550  H     0.96215   0.51424   0.66894   0.00000  Uiso   1.00
H1551  H     0.69853   0.42721   0.90500   0.00000  Uiso   1.00
H1552  H     0.96814   0.57279   0.76167   0.00000  Uiso   1.00
H1553  H     0.85682   0.37591   0.90533   0.00000  Uiso   1.00
H1554  H     0.94432   0.39624   0.80452   0.00000  Uiso   1.00
H1555  H     0.72234   0.60376   0.86211   0.00000  Uiso   1.00
H1556  H     0.76793   0.36632   0.68227   0.00000  Uiso   1.00
H1557  H     0.89874   0.63368   0.98439   0.00000  Uiso   1.00
H1558  H     0.76530   0.44018   0.73692   0.00000  Uiso   1.00
H1559  H     0.68283   0.43425   0.67693   0.00000  Uiso   1.00
H1560  H     0.70451   0.48576   0.99774   0.00000  Uiso   1.00
N1561  N     0.83335   0.50001   0.95069   0.00000  Uiso   1.00
N1562  N     0.83332   0.49999   0.71597   0.00000  Uiso   1.00
N1563  N     0.75853   0.45159   0.70457   0.00000  Uiso   1.00
N1564  N     0.90814   0.54841   0.96210   0.00000  Uiso   1.00
O1565  O     0.83333   0.43989   0.87291   0.00000  Uiso   1.00
O1566  O     0.95010   0.42591   0.81603   0.00000  Uiso   1.00
O1567  O     0.97432   0.57723   0.88020   0.00000  Uiso   1.00
O1568  O     0.71656   0.57410   0.85060   0.00000  Uiso   1.00
O1569  O     0.84838   0.38791   0.72693   0.00000  Uiso   1.00
O1570  O     0.76890   0.35541   0.71467   0.00000  Uiso   1.00
O1571  O     0.81829   0.61209   0.93974   0.00000  Uiso   1.00
O1572  O     0.89777   0.64459   0.95200   0.00000  Uiso   1.00
O1573  O     0.78018   0.40796   0.94089   0.00000  Uiso   1.00
O1574  O     0.71807   0.45205   0.92151   0.00000  Uiso   1.00
O1575  O     0.88648   0.59204   0.72578   0.00000  Uiso   1.00
O1576  O     0.83334   0.56011   0.79375   0.00000  Uiso   1.00
O1577  O     0.94860   0.54796   0.74516   0.00000  Uiso   1.00
O1578  O     0.83333   0.43988   0.79372   0.00000  Uiso   1.00
O1579  O     0.83334   0.56012   0.87294   0.00000  Uiso   1.00
O1580  O     0.75828   0.50000   0.86379   0.00000  Uiso   1.00
O1581  O     0.90839   0.50000   0.80288   0.00000  Uiso   1.00
O1582  O     0.75828   0.49999   0.78460   0.00000  Uiso   1.00
O1583  O     0.90839   0.50001   0.88207   0.00000  Uiso   1.00
O1584  O     0.69236   0.42276   0.78649   0.00000  Uiso   1.00
C1585  C     0.16711   0.75417   0.83254   0.00000  Uiso   1.00
C1586  C     0.17976   0.69075   0.87366   0.00000  Uiso   1.00
C1587  C     0.16473   0.95718   0.83546   0.00000  Uiso   1.00
C1588  C     0.16860   0.70948   0.83121   0.00000  Uiso   1.00
C1589  C     0.13148   0.80900   0.68666   0.00000  Uiso   1.00
C1590  C     0.20185   0.85766   0.98000   0.00000  Uiso   1.00
C1591  C     0.13279   0.80805   0.97081   0.00000  Uiso   1.00
C1592  C     0.20054   0.85862   0.69586   0.00000  Uiso   1.00
C1593  C     0.33020   0.77725   0.80585   0.00000  Uiso   1.00
C1594  C     0.00313   0.88942   0.86081   0.00000  Uiso   1.00
C1595  C     0.14787   0.70062   0.74265   0.00000  Uiso   1.00
C1596  C     0.16622   0.91250   0.83413   0.00000  Uiso   1.00
C1597  C     0.18546   0.96604   0.92402   0.00000  Uiso   1.00
C1598  C     0.03948   0.79544   0.69100   0.00000  Uiso   1.00
C1599  C     0.29385   0.87122   0.97567   0.00000  Uiso   1.00
C1600  C     0.09989   0.77639   0.94247   0.00000  Uiso   1.00
C1601  C     0.23344   0.89028   0.72420   0.00000  Uiso   1.00
C1602  C     0.06839   0.83074   0.82227   0.00000  Uiso   1.00
C1603  C     0.26494   0.83593   0.84440   0.00000  Uiso   1.00
C1604  C     0.01397   0.82086   0.82094   0.00000  Uiso   1.00
C1605  C     0.31937   0.84580   0.84573   0.00000  Uiso   1.00
C1606  C     0.15669   0.68486   0.78995   0.00000  Uiso   1.00
C1607  C     0.17664   0.98181   0.87672   0.00000  Uiso   1.00
C1608  C     0.15358   0.97591   0.79300   0.00000  Uiso   1.00
Cu1609 Cu    0.16667   0.83334   0.88022   0.00000  Uiso   1.00
Cu1610 Cu    0.16667   0.83333   0.78645   0.00000  Uiso   1.00
H1611  H     0.14318   0.95743   0.76134   0.00000  Uiso   1.00
H1612  H     0.02232   0.80809   0.72108   0.00000  Uiso   1.00
H1613  H     0.23470   0.89315   0.92974   0.00000  Uiso   1.00
H1614  H     0.31717   0.89908   0.98974   0.00000  Uiso   1.00
H1615  H     0.31101   0.85856   0.94559   0.00000  Uiso   1.00
H1616  H     0.29549   0.84757   0.66894   0.00000  Uiso   1.00
H1617  H     0.03186   0.76054   0.90500   0.00000  Uiso   1.00
H1618  H     0.30147   0.90613   0.76167   0.00000  Uiso   1.00
H1619  H     0.19015   0.70924   0.90533   0.00000  Uiso   1.00
H1620  H     0.27765   0.72957   0.80452   0.00000  Uiso   1.00
H1621  H     0.05567   0.93710   0.86211   0.00000  Uiso   1.00
H1622  H     0.10126   0.69966   0.68227   0.00000  Uiso   1.00
H1623  H     0.23208   0.96701   0.98439   0.00000  Uiso   1.00
H1624  H     0.09864   0.77352   0.73692   0.00000  Uiso   1.00
H1625  H     0.01617   0.76759   0.67693   0.00000  Uiso   1.00
H1626  H     0.03785   0.81910   0.99774   0.00000  Uiso   1.00
N1627  N     0.16668   0.83334   0.95069   0.00000  Uiso   1.00
N1628  N     0.16665   0.83332   0.71597   0.00000  Uiso   1.00
N1629  N     0.09187   0.78493   0.70457   0.00000  Uiso   1.00
N1630  N     0.24147   0.88174   0.96210   0.00000  Uiso   1.00
O1631  O     0.16666   0.77322   0.87291   0.00000  Uiso   1.00
O1632  O     0.28343   0.75924   0.81603   0.00000  Uiso   1.00
O1633  O     0.30766   0.91057   0.88020   0.00000  Uiso   1.00
O1634  O     0.04989   0.90743   0.85060   0.00000  Uiso   1.00
O1635  O     0.18171   0.72124   0.72693   0.00000  Uiso   1.00
O1636  O     0.10223   0.68874   0.71467   0.00000  Uiso   1.00
O1637  O     0.15162   0.94543   0.93974   0.00000  Uiso   1.00
O1638  O     0.23110   0.97792   0.95200   0.00000  Uiso   1.00
O1639  O     0.11351   0.74129   0.94089   0.00000  Uiso   1.00
O1640  O     0.05140   0.78538   0.92151   0.00000  Uiso   1.00
O1641  O     0.21982   0.92538   0.72578   0.00000  Uiso   1.00
O1642  O     0.16667   0.89345   0.79375   0.00000  Uiso   1.00
O1643  O     0.28193   0.88129   0.74516   0.00000  Uiso   1.00
O1644  O     0.16666   0.77321   0.79372   0.00000  Uiso   1.00
O1645  O     0.16667   0.89346   0.87294   0.00000  Uiso   1.00
O1646  O     0.09161   0.83334   0.86379   0.00000  Uiso   1.00
O1647  O     0.24172   0.83333   0.80288   0.00000  Uiso   1.00
O1648  O     0.09161   0.83333   0.78460   0.00000  Uiso   1.00
O1649  O     0.24172   0.83334   0.88207   0.00000  Uiso   1.00
O1650  O     0.02569   0.75609   0.78649   0.00000  Uiso   1.00
C1651  C     0.50044   0.75417   0.83254   0.00000  Uiso   1.00
C1652  C     0.51309   0.69075   0.87366   0.00000  Uiso   1.00
C1653  C     0.49807   0.95718   0.83546   0.00000  Uiso   1.00
C1654  C     0.50193   0.70948   0.83121   0.00000  Uiso   1.00
C1655  C     0.46482   0.80900   0.68666   0.00000  Uiso   1.00
C1656  C     0.53518   0.85766   0.98000   0.00000  Uiso   1.00
C1657  C     0.46613   0.80805   0.97081   0.00000  Uiso   1.00
C1658  C     0.53387   0.85862   0.69586   0.00000  Uiso   1.00
C1659  C     0.66354   0.77725   0.80585   0.00000  Uiso   1.00
C1660  C     0.33647   0.88942   0.86081   0.00000  Uiso   1.00
C1661  C     0.48121   0.70062   0.74265   0.00000  Uiso   1.00
C1662  C     0.49956   0.91250   0.83413   0.00000  Uiso   1.00
C1663  C     0.51880   0.96604   0.92402   0.00000  Uiso   1.00
C1664  C     0.37282   0.79544   0.69100   0.00000  Uiso   1.00
C1665  C     0.62718   0.87122   0.97567   0.00000  Uiso   1.00
C1666  C     0.43322   0.77639   0.94247   0.00000  Uiso   1.00
C1667  C     0.56678   0.89028   0.72420   0.00000  Uiso   1.00
C1668  C     0.40173   0.83074   0.82227   0.00000  Uiso   1.00
C1669  C     0.59827   0.83593   0.84440   0.00000  Uiso   1.00
C1670  C     0.34730   0.82086   0.82094   0.00000  Uiso   1.00
C1671  C     0.65270   0.84580   0.84573   0.00000  Uiso   1.00
C1672  C     0.49003   0.68486   0.78995   0.00000  Uiso   1.00
C1673  C     0.50997   0.98181   0.87672   0.00000  Uiso   1.00
C1674  C     0.48691   0.97591   0.79300   0.00000  Uiso   1.00
Cu1675 Cu    0.50000   0.83334   0.88022   0.00000  Uiso   1.00
Cu1676 Cu    0.50000   0.83333   0.78645   0.00000  Uiso   1.00
H1677  H     0.47652   0.95743   0.76134   0.00000  Uiso   1.00
H1678  H     0.35566   0.80809   0.72108   0.00000  Uiso   1.00
H1679  H     0.56803   0.89315   0.92974   0.00000  Uiso   1.00
H1680  H     0.65050   0.89908   0.98974   0.00000  Uiso   1.00
H1681  H     0.64434   0.85856   0.94559   0.00000  Uiso   1.00
H1682  H     0.62882   0.84757   0.66894   0.00000  Uiso   1.00
H1683  H     0.36519   0.76054   0.90500   0.00000  Uiso   1.00
H1684  H     0.63480   0.90613   0.76167   0.00000  Uiso   1.00
H1685  H     0.52348   0.70924   0.90533   0.00000  Uiso   1.00
H1686  H     0.61099   0.72957   0.80452   0.00000  Uiso   1.00
H1687  H     0.38900   0.93710   0.86211   0.00000  Uiso   1.00
H1688  H     0.43459   0.69966   0.68227   0.00000  Uiso   1.00
H1689  H     0.56541   0.96701   0.98439   0.00000  Uiso   1.00
H1690  H     0.43197   0.77352   0.73692   0.00000  Uiso   1.00
H1691  H     0.34950   0.76759   0.67693   0.00000  Uiso   1.00
H1692  H     0.37118   0.81910   0.99774   0.00000  Uiso   1.00
N1693  N     0.50001   0.83334   0.95069   0.00000  Uiso   1.00
N1694  N     0.49999   0.83332   0.71597   0.00000  Uiso   1.00
N1695  N     0.42520   0.78493   0.70457   0.00000  Uiso   1.00
N1696  N     0.57480   0.88174   0.96210   0.00000  Uiso   1.00
O1697  O     0.50000   0.77322   0.87291   0.00000  Uiso   1.00
O1698  O     0.61676   0.75924   0.81603   0.00000  Uiso   1.00
O1699  O     0.64099   0.91057   0.88020   0.00000  Uiso   1.00
O1700  O     0.38322   0.90743   0.85060   0.00000  Uiso   1.00
O1701  O     0.51505   0.72124   0.72693   0.00000  Uiso   1.00
O1702  O     0.43557   0.68874   0.71467   0.00000  Uiso   1.00
O1703  O     0.48496   0.94543   0.93974   0.00000  Uiso   1.00
O1704  O     0.56444   0.97792   0.95200   0.00000  Uiso   1.00
O1705  O     0.44685   0.74129   0.94089   0.00000  Uiso   1.00
O1706  O     0.38473   0.78538   0.92151   0.00000  Uiso   1.00
O1707  O     0.55315   0.92538   0.72578   0.00000  Uiso   1.00
O1708  O     0.50000   0.89345   0.79375   0.00000  Uiso   1.00
O1709  O     0.61527   0.88129   0.74516   0.00000  Uiso   1.00
O1710  O     0.50000   0.77321   0.79372   0.00000  Uiso   1.00
O1711  O     0.50000   0.89346   0.87294   0.00000  Uiso   1.00
O1712  O     0.42495   0.83334   0.86379   0.00000  Uiso   1.00
O1713  O     0.57505   0.83333   0.80288   0.00000  Uiso   1.00
O1714  O     0.42494   0.83333   0.78460   0.00000  Uiso   1.00
O1715  O     0.57506   0.83334   0.88207   0.00000  Uiso   1.00
O1716  O     0.35902   0.75609   0.78649   0.00000  Uiso   1.00
C1717  C     0.83378   0.75417   0.83254   0.00000  Uiso   1.00
C1718  C     0.84642   0.69075   0.87366   0.00000  Uiso   1.00
C1719  C     0.83140   0.95718   0.83546   0.00000  Uiso   1.00
C1720  C     0.83527   0.70948   0.83121   0.00000  Uiso   1.00
C1721  C     0.79815   0.80900   0.68666   0.00000  Uiso   1.00
C1722  C     0.86852   0.85766   0.98000   0.00000  Uiso   1.00
C1723  C     0.79946   0.80805   0.97081   0.00000  Uiso   1.00
C1724  C     0.86721   0.85862   0.69586   0.00000  Uiso   1.00
C1725  C     0.99687   0.77725   0.80585   0.00000  Uiso   1.00
C1726  C     0.66980   0.88942   0.86081   0.00000  Uiso   1.00
C1727  C     0.81454   0.70062   0.74265   0.00000  Uiso   1.00
C1728  C     0.83289   0.91250   0.83413   0.00000  Uiso   1.00
C1729  C     0.85213   0.96604   0.92402   0.00000  Uiso   1.00
C1730  C     0.70615   0.79544   0.69100   0.00000  Uiso   1.00
C1731  C     0.96052   0.87122   0.97567   0.00000  Uiso   1.00
C1732  C     0.76655   0.77639   0.94247   0.00000  Uiso   1.00
C1733  C     0.90011   0.89028   0.72420   0.00000  Uiso   1.00
C1734  C     0.73506   0.83074   0.82227   0.00000  Uiso   1.00
C1735  C     0.93161   0.83593   0.84440   0.00000  Uiso   1.00
C1736  C     0.68063   0.82086   0.82094   0.00000  Uiso   1.00
C1737  C     0.98603   0.84580   0.84573   0.00000  Uiso   1.00
C1738  C     0.82336   0.68486   0.78995   0.00000  Uiso   1.00
C1739  C     0.84331   0.98181   0.87672   0.00000  Uiso   1.00
C1740  C     0.82024   0.97591   0.79300   0.00000  Uiso   1.00
Cu1741 Cu    0.83333   0.83334   0.88022   0.00000  Uiso   1.00
Cu1742 Cu    0.83333   0.83333   0.78645   0.00000  Uiso   1.00
H1743  H     0.80985   0.95743   0.76134   0.00000  Uiso   1.00
H1744  H     0.68899   0.80809   0.72108   0.00000  Uiso   1.00
H1745  H     0.90137   0.89315   0.92974   0.00000  Uiso   1.00
H1746  H     0.98384   0.89908   0.98974   0.00000  Uiso   1.00
H1747  H     0.97767   0.85856   0.94559   0.00000  Uiso   1.00
H1748  H     0.96215   0.84757   0.66894   0.00000  Uiso   1.00
H1749  H     0.69853   0.76054   0.90500   0.00000  Uiso   1.00
H1750  H     0.96814   0.90613   0.76167   0.00000  Uiso   1.00
H1751  H     0.85682   0.70924   0.90533   0.00000  Uiso   1.00
H1752  H     0.94432   0.72957   0.80452   0.00000  Uiso   1.00
H1753  H     0.72234   0.93710   0.86211   0.00000  Uiso   1.00
H1754  H     0.76793   0.69966   0.68227   0.00000  Uiso   1.00
H1755  H     0.89874   0.96701   0.98439   0.00000  Uiso   1.00
H1756  H     0.76530   0.77352   0.73692   0.00000  Uiso   1.00
H1757  H     0.68283   0.76759   0.67693   0.00000  Uiso   1.00
H1758  H     0.70451   0.81910   0.99774   0.00000  Uiso   1.00
N1759  N     0.83335   0.83334   0.95069   0.00000  Uiso   1.00
N1760  N     0.83332   0.83332   0.71597   0.00000  Uiso   1.00
N1761  N     0.75853   0.78493   0.70457   0.00000  Uiso   1.00
N1762  N     0.90814   0.88174   0.96210   0.00000  Uiso   1.00
O1763  O     0.83333   0.77322   0.87291   0.00000  Uiso   1.00
O1764  O     0.95010   0.75924   0.81603   0.00000  Uiso   1.00
O1765  O     0.97432   0.91057   0.88020   0.00000  Uiso   1.00
O1766  O     0.71656   0.90743   0.85060   0.00000  Uiso   1.00
O1767  O     0.84838   0.72124   0.72693   0.00000  Uiso   1.00
O1768  O     0.76890   0.68874   0.71467   0.00000  Uiso   1.00
O1769  O     0.81829   0.94543   0.93974   0.00000  Uiso   1.00
O1770  O     0.89777   0.97792   0.95200   0.00000  Uiso   1.00
O1771  O     0.78018   0.74129   0.94089   0.00000  Uiso   1.00
O1772  O     0.71807   0.78538   0.92151   0.00000  Uiso   1.00
O1773  O     0.88648   0.92538   0.72578   0.00000  Uiso   1.00
O1774  O     0.83334   0.89345   0.79375   0.00000  Uiso   1.00
O1775  O     0.94860   0.88129   0.74516   0.00000  Uiso   1.00
O1776  O     0.83333   0.77321   0.79372   0.00000  Uiso   1.00
O1777  O     0.83334   0.89346   0.87294   0.00000  Uiso   1.00
O1778  O     0.75828   0.83334   0.86379   0.00000  Uiso   1.00
O1779  O     0.90839   0.83333   0.80288   0.00000  Uiso   1.00
O1780  O     0.75828   0.83333   0.78460   0.00000  Uiso   1.00
O1781  O     0.90839   0.83334   0.88207   0.00000  Uiso   1.00
O1782  O     0.69236   0.75609   0.78649   0.00000  Uiso   1.00
loop_
_geom_bond_atom_site_label_1
_geom_bond_atom_site_label_2
_geom_bond_distance
_geom_bond_site_symmetry_2
_ccdc_geom_bond_type
C1     C4      1.463   .     S
C1     O60     1.301   .     A
C1     O47     1.311   .     A
C2     H35     1.084   .     S
C2     C4      1.399   .     A
C2     C419    1.386   1_545 S
C3     C24     1.399   .     A
C3     C23     1.417   .     A
C3     C12     1.463   .     S
C4     C22     1.417   .     A
C5     N44     1.382   .     A
C5     N45     1.424   .     S
C5     C1195   1.430   1_554 S
C6     N43     1.382   .     A
C6     N46     1.424   .     S
C6     C602    1.430   .     S
C7     N43     1.371   .     A
C7     C16     1.478   .     S
C7     C599    1.430   .     S
C8     C17     1.478   .     S
C8     N44     1.371   .     A
C8     C1194   1.430   1_554 S
C9     O48     1.398   .     S
C9     C86     1.508   .     S
C9     O132    1.223   .     S
C10    O50     1.398   .     S
C10    C153    1.508   1_455 S
C10    O181    1.223   1_455 S
C11    O52     1.398   .     S
C11    O51     1.223   .     D
C11    C22     1.477   .     S
C12    O61     1.301   .     A
C12    O58     1.311   .     A
C13    O53     1.223   .     D
C13    C23     1.477   .     S
C13    O54     1.398   .     S
C14    H41     1.110   .     S
C14    N45     1.449   .     S
C14    H28     1.106   .     S
C14    H1230   1.107   1_554 S
C15    H31     1.106   .     S
C15    H30     1.110   .     S
C15    N46     1.449   .     S
C15    H626    1.107   .     S
C16    O56     1.396   .     S
C16    O55     1.221   .     D
C17    O59     1.396   .     S
C17    O57     1.221   .     D
C18    C20     1.443   .     S
C18    O64     1.312   .     A
C18    O62     1.284   .     A
C19    C21     1.443   .     S
C19    O65     1.312   .     A
C19    O63     1.284   .     A
C20    C141    1.508   1_455 S
C20    C153    1.367   1_455 S
C21    C86     1.367   .     S
C21    C76     1.508   .     S
C22    C420    1.386   1_545 S
C23    C200    1.386   .     S
C24    H27     1.084   .     S
C24    C220    1.386   .     S
Cu25   O62     1.973   .     S
Cu25   O47     1.970   .     S
Cu25   N43     2.043   .     S
Cu25   O61     1.982   .     S
Cu25   O65     1.964   .     S
Cu25   Cu26    2.719   .     S
Cu26   O63     1.973   .     S
Cu26   N44     2.043   .     S
Cu26   O58     1.970   .     S
Cu26   O60     1.982   .     S
Cu26   O64     1.964   .     S
H29    N46     1.020   .     S
H32    C1203   1.107   1_554 S
H33    O56     1.014   .     S
H34    O59     1.014   .     S
H36    O48     1.014   .     S
H37    O50     1.014   .     S
H38    O52     1.013   .     S
H39    O54     1.013   .     S
H40    N45     1.020   .     S
H42    C608    1.107   .     S
O49    C76     1.223   .     S
O66    C141    1.223   1_455 S
C67    C70     1.463   .     S
C67    O126    1.301   .     A
C67    O113    1.311   .     A
C68    H101    1.084   .     S
C68    C70     1.399   .     A
C68    C485    1.386   1_545 S
C69    C90     1.399   .     A
C69    C89     1.417   .     A
C69    C78     1.463   .     S
C70    C88     1.417   .     A
C71    N110    1.382   .     A
C71    N111    1.424   .     S
C71    C1261   1.430   1_554 S
C72    N109    1.382   .     A
C72    N112    1.424   .     S
C72    C668    1.430   .     S
C73    N109    1.371   .     A
C73    C82     1.478   .     S
C73    C665    1.430   .     S
C74    C83     1.478   .     S
C74    N110    1.371   .     A
C74    C1260   1.430   1_554 S
C75    O114    1.398   .     S
C75    C152    1.508   .     S
C75    O198    1.223   .     S
C76    O116    1.398   .     S
C77    O118    1.398   .     S
C77    O117    1.223   .     D
C77    C88     1.477   .     S
C78    O127    1.301   .     A
C78    O124    1.311   .     A
C79    O119    1.223   .     D
C79    C89     1.477   .     S
C79    O120    1.398   .     S
C80    H107    1.110   .     S
C80    N111    1.449   .     S
C80    H94     1.106   .     S
C80    H1296   1.107   1_554 S
C81    H97     1.106   .     S
C81    H96     1.110   .     S
C81    N112    1.449   .     S
C81    H692    1.107   .     S
C82    O122    1.396   .     S
C82    O121    1.221   .     D
C83    O125    1.396   .     S
C83    O123    1.221   .     D
C84    C86     1.443   .     S
C84    O130    1.312   .     A
C84    O128    1.284   .     A
C85    C87     1.443   .     S
C85    O131    1.312   .     A
C85    O129    1.284   .     A
C87    C152    1.367   .     S
C87    C142    1.508   .     S
C88    C486    1.386   1_545 S
C89    C266    1.386   .     S
C90    H93     1.084   .     S
C90    C286    1.386   .     S
Cu91   O128    1.973   .     S
Cu91   O113    1.970   .     S
Cu91   N109    2.043   .     S
Cu91   O127    1.982   .     S
Cu91   O131    1.964   .     S
Cu91   Cu92    2.719   .     S
Cu92   O129    1.973   .     S
Cu92   N110    2.043   .     S
Cu92   O124    1.970   .     S
Cu92   O126    1.982   .     S
Cu92   O130    1.964   .     S
H95    N112    1.020   .     S
H98    C1269   1.107   1_554 S
H99    O122    1.014   .     S
H100   O125    1.014   .     S
H102   O114    1.014   .     S
H103   O116    1.014   .     S
H104   O118    1.013   .     S
H105   O120    1.013   .     S
H106   N111    1.020   .     S
H108   C674    1.107   .     S
O115   C142    1.223   .     S
C133   C136    1.463   .     S
C133   O192    1.301   .     A
C133   O179    1.311   .     A
C134   H167    1.084   .     S
C134   C136    1.399   .     A
C134   C551    1.386   1_545 S
C135   C156    1.399   .     A
C135   C155    1.417   .     A
C135   C144    1.463   .     S
C136   C154    1.417   .     A
C137   N176    1.382   .     A
C137   N177    1.424   .     S
C137   C1327   1.430   1_554 S
C138   N175    1.382   .     A
C138   N178    1.424   .     S
C138   C734    1.430   .     S
C139   N175    1.371   .     A
C139   C148    1.478   .     S
C139   C731    1.430   .     S
C140   C149    1.478   .     S
C140   N176    1.371   .     A
C140   C1326   1.430   1_554 S
C141   O180    1.398   .     S
C141   C20     1.508   1_655 S
C141   O66     1.223   1_655 S
C142   O182    1.398   .     S
C143   O184    1.398   .     S
C143   O183    1.223   .     D
C143   C154    1.477   .     S
C144   O193    1.301   .     A
C144   O190    1.311   .     A
C145   O185    1.223   .     D
C145   C155    1.477   .     S
C145   O186    1.398   .     S
C146   H173    1.110   .     S
C146   N177    1.449   .     S
C146   H160    1.106   .     S
C146   H1362   1.107   1_554 S
C147   H163    1.106   .     S
C147   H162    1.110   .     S
C147   N178    1.449   .     S
C147   H758    1.107   .     S
C148   O188    1.396   .     S
C148   O187    1.221   .     D
C149   O191    1.396   .     S
C149   O189    1.221   .     D
C150   C152    1.443   .     S
C150   O196    1.312   .     A
C150   O194    1.284   .     A
C151   C153    1.443   .     S
C151   O197    1.312   .     A
C151   O195    1.284   .     A
C153   C20     1.367   1_655 S
C153   C10     1.508   1_655 S
C154   C552    1.386   1_545 S
C155   C332    1.386   .     S
C156   H159    1.084   .     S
C156   C352    1.386   .     S
Cu157  O194    1.973   .     S
Cu157  O179    1.970   .     S
Cu157  N175    2.043   .     S
Cu157  O193    1.982   .     S
Cu157  O197    1.964   .     S
Cu157  Cu158   2.719   .     S
Cu158  O195    1.973   .     S
Cu158  N176    2.043   .     S
Cu158  O190    1.970   .     S
Cu158  O192    1.982   .     S
Cu158  O196    1.964   .     S
H161   N178    1.020   .     S
H164   C1335   1.107   1_554 S
H165   O188    1.014   .     S
H166   O191    1.014   .     S
H168   O180    1.014   .     S
H169   O182    1.014   .     S
H170   O184    1.013   .     S
H171   O186    1.013   .     S
H172   N177    1.020   .     S
H174   C740    1.107   .     S
O181   C10     1.223   1_655 S
C199   C202    1.463   .     S
C199   O258    1.301   .     A
C199   O245    1.311   .     A
C200   H233    1.084   .     S
C200   C202    1.399   .     A
C201   C222    1.399   .     A
C201   C221    1.417   .     A
C201   C210    1.463   .     S
C202   C220    1.417   .     A
C203   N242    1.382   .     A
C203   N243    1.424   .     S
C203   C1393   1.430   1_554 S
C204   N241    1.382   .     A
C204   N244    1.424   .     S
C204   C800    1.430   .     S
C205   N241    1.371   .     A
C205   C214    1.478   .     S
C205   C797    1.430   .     S
C206   C215    1.478   .     S
C206   N242    1.371   .     A
C206   C1392   1.430   1_554 S
C207   O246    1.398   .     S
C207   C284    1.508   .     S
C207   O330    1.223   .     S
C208   O248    1.398   .     S
C208   C351    1.508   1_455 S
C208   O379    1.223   1_455 S
C209   O250    1.398   .     S
C209   O249    1.223   .     D
C209   C220    1.477   .     S
C210   O259    1.301   .     A
C210   O256    1.311   .     A
C211   O251    1.223   .     D
C211   C221    1.477   .     S
C211   O252    1.398   .     S
C212   H239    1.110   .     S
C212   N243    1.449   .     S
C212   H226    1.106   .     S
C212   H1428   1.107   1_554 S
C213   H229    1.106   .     S
C213   H228    1.110   .     S
C213   N244    1.449   .     S
C213   H824    1.107   .     S
C214   O254    1.396   .     S
C214   O253    1.221   .     D
C215   O257    1.396   .     S
C215   O255    1.221   .     D
C216   C218    1.443   .     S
C216   O262    1.312   .     A
C216   O260    1.284   .     A
C217   C219    1.443   .     S
C217   O263    1.312   .     A
C217   O261    1.284   .     A
C218   C339    1.508   1_455 S
C218   C351    1.367   1_455 S
C219   C284    1.367   .     S
C219   C274    1.508   .     S
C221   C398    1.386   .     S
C222   H225    1.084   .     S
C222   C418    1.386   .     S
Cu223  O260    1.973   .     S
Cu223  O245    1.970   .     S
Cu223  N241    2.043   .     S
Cu223  O259    1.982   .     S
Cu223  O263    1.964   .     S
Cu223  Cu224   2.719   .     S
Cu224  O261    1.973   .     S
Cu224  N242    2.043   .     S
Cu224  O256    1.970   .     S
Cu224  O258    1.982   .     S
Cu224  O262    1.964   .     S
H227   N244    1.020   .     S
H230   C1401   1.107   1_554 S
H231   O254    1.014   .     S
H232   O257    1.014   .     S
H234   O246    1.014   .     S
H235   O248    1.014   .     S
H236   O250    1.013   .     S
H237   O252    1.013   .     S
H238   N243    1.020   .     S
H240   C806    1.107   .     S
O247   C274    1.223   .     S
O264   C339    1.223   1_455 S
C265   C268    1.463   .     S
C265   O324    1.301   .     A
C265   O311    1.311   .     A
C266   H299    1.084   .     S
C266   C268    1.399   .     A
C267   C288    1.399   .     A
C267   C287    1.417   .     A
C267   C276    1.463   .     S
C268   C286    1.417   .     A
C269   N308    1.382   .     A
C269   N309    1.424   .     S
C269   C1459   1.430   1_554 S
C270   N307    1.382   .     A
C270   N310    1.424   .     S
C270   C866    1.430   .     S
C271   N307    1.371   .     A
C271   C280    1.478   .     S
C271   C863    1.430   .     S
C272   C281    1.478   .     S
C272   N308    1.371   .     A
C272   C1458   1.430   1_554 S
C273   O312    1.398   .     S
C273   C350    1.508   .     S
C273   O396    1.223   .     S
C274   O314    1.398   .     S
C275   O316    1.398   .     S
C275   O315    1.223   .     D
C275   C286    1.477   .     S
C276   O325    1.301   .     A
C276   O322    1.311   .     A
C277   O317    1.223   .     D
C277   C287    1.477   .     S
C277   O318    1.398   .     S
C278   H305    1.110   .     S
C278   N309    1.449   .     S
C278   H292    1.106   .     S
C278   H1494   1.107   1_554 S
C279   H295    1.106   .     S
C279   H294    1.110   .     S
C279   N310    1.449   .     S
C279   H890    1.107   .     S
C280   O320    1.396   .     S
C280   O319    1.221   .     D
C281   O323    1.396   .     S
C281   O321    1.221   .     D
C282   C284    1.443   .     S
C282   O328    1.312   .     A
C282   O326    1.284   .     A
C283   C285    1.443   .     S
C283   O329    1.312   .     A
C283   O327    1.284   .     A
C285   C350    1.367   .     S
C285   C340    1.508   .     S
C287   C464    1.386   .     S
C288   H291    1.084   .     S
C288   C484    1.386   .     S
Cu289  O326    1.973   .     S
Cu289  O311    1.970   .     S
Cu289  N307    2.043   .     S
Cu289  O325    1.982   .     S
Cu289  O329    1.964   .     S
Cu289  Cu290   2.719   .     S
Cu290  O327    1.973   .     S
Cu290  N308    2.043   .     S
Cu290  O322    1.970   .     S
Cu290  O324    1.982   .     S
Cu290  O328    1.964   .     S
H293   N310    1.020   .     S
H296   C1467   1.107   1_554 S
H297   O320    1.014   .     S
H298   O323    1.014   .     S
H300   O312    1.014   .     S
H301   O314    1.014   .     S
H302   O316    1.013   .     S
H303   O318    1.013   .     S
H304   N309    1.020   .     S
H306   C872    1.107   .     S
O313   C340    1.223   .     S
C331   C334    1.463   .     S
C331   O390    1.301   .     A
C331   O377    1.311   .     A
C332   H365    1.084   .     S
C332   C334    1.399   .     A
C333   C354    1.399   .     A
C333   C353    1.417   .     A
C333   C342    1.463   .     S
C334   C352    1.417   .     A
C335   N374    1.382   .     A
C335   N375    1.424   .     S
C335   C1525   1.430   1_554 S
C336   N373    1.382   .     A
C336   N376    1.424   .     S
C336   C932    1.430   .     S
C337   N373    1.371   .     A
C337   C346    1.478   .     S
C337   C929    1.430   .     S
C338   C347    1.478   .     S
C338   N374    1.371   .     A
C338   C1524   1.430   1_554 S
C339   O378    1.398   .     S
C339   C218    1.508   1_655 S
C339   O264    1.223   1_655 S
C340   O380    1.398   .     S
C341   O382    1.398   .     S
C341   O381    1.223   .     D
C341   C352    1.477   .     S
C342   O391    1.301   .     A
C342   O388    1.311   .     A
C343   O383    1.223   .     D
C343   C353    1.477   .     S
C343   O384    1.398   .     S
C344   H371    1.110   .     S
C344   N375    1.449   .     S
C344   H358    1.106   .     S
C344   H1560   1.107   1_554 S
C345   H361    1.106   .     S
C345   H360    1.110   .     S
C345   N376    1.449   .     S
C345   H956    1.107   .     S
C346   O386    1.396   .     S
C346   O385    1.221   .     D
C347   O389    1.396   .     S
C347   O387    1.221   .     D
C348   C350    1.443   .     S
C348   O394    1.312   .     A
C348   O392    1.284   .     A
C349   C351    1.443   .     S
C349   O395    1.312   .     A
C349   O393    1.284   .     A
C351   C218    1.367   1_655 S
C351   C208    1.508   1_655 S
C353   C530    1.386   .     S
C354   H357    1.084   .     S
C354   C550    1.386   .     S
Cu355  O392    1.973   .     S
Cu355  O377    1.970   .     S
Cu355  N373    2.043   .     S
Cu355  O391    1.982   .     S
Cu355  O395    1.964   .     S
Cu355  Cu356   2.719   .     S
Cu356  O393    1.973   .     S
Cu356  N374    2.043   .     S
Cu356  O388    1.970   .     S
Cu356  O390    1.982   .     S
Cu356  O394    1.964   .     S
H359   N376    1.020   .     S
H362   C1533   1.107   1_554 S
H363   O386    1.014   .     S
H364   O389    1.014   .     S
H366   O378    1.014   .     S
H367   O380    1.014   .     S
H368   O382    1.013   .     S
H369   O384    1.013   .     S
H370   N375    1.020   .     S
H372   C938    1.107   .     S
O379   C208    1.223   1_655 S
C397   C400    1.463   .     S
C397   O456    1.301   .     A
C397   O443    1.311   .     A
C398   H431    1.084   .     S
C398   C400    1.399   .     A
C399   C420    1.399   .     A
C399   C419    1.417   .     A
C399   C408    1.463   .     S
C400   C418    1.417   .     A
C401   N440    1.382   .     A
C401   N441    1.424   .     S
C401   C1591   1.430   1_554 S
C402   N439    1.382   .     A
C402   N442    1.424   .     S
C402   C998    1.430   .     S
C403   N439    1.371   .     A
C403   C412    1.478   .     S
C403   C995    1.430   .     S
C404   C413    1.478   .     S
C404   N440    1.371   .     A
C404   C1590   1.430   1_554 S
C405   O444    1.398   .     S
C405   C482    1.508   .     S
C405   O528    1.223   .     S
C406   O446    1.398   .     S
C406   C549    1.508   1_455 S
C406   O577    1.223   1_455 S
C407   O448    1.398   .     S
C407   O447    1.223   .     D
C407   C418    1.477   .     S
C408   O457    1.301   .     A
C408   O454    1.311   .     A
C409   O449    1.223   .     D
C409   C419    1.477   .     S
C409   O450    1.398   .     S
C410   H437    1.110   .     S
C410   N441    1.449   .     S
C410   H424    1.106   .     S
C410   H1626   1.107   1_554 S
C411   H427    1.106   .     S
C411   H426    1.110   .     S
C411   N442    1.449   .     S
C411   H1022   1.107   .     S
C412   O452    1.396   .     S
C412   O451    1.221   .     D
C413   O455    1.396   .     S
C413   O453    1.221   .     D
C414   C416    1.443   .     S
C414   O460    1.312   .     A
C414   O458    1.284   .     A
C415   C417    1.443   .     S
C415   O461    1.312   .     A
C415   O459    1.284   .     A
C416   C537    1.508   1_455 S
C416   C549    1.367   1_455 S
C417   C482    1.367   .     S
C417   C472    1.508   .     S
C419   C2      1.386   1_565 S
C420   H423    1.084   .     S
C420   C22     1.386   1_565 S
Cu421  O458    1.973   .     S
Cu421  O443    1.970   .     S
Cu421  N439    2.043   .     S
Cu421  O457    1.982   .     S
Cu421  O461    1.964   .     S
Cu421  Cu422   2.719   .     S
Cu422  O459    1.973   .     S
Cu422  N440    2.043   .     S
Cu422  O454    1.970   .     S
Cu422  O456    1.982   .     S
Cu422  O460    1.964   .     S
H425   N442    1.020   .     S
H428   C1599   1.107   1_554 S
H429   O452    1.014   .     S
H430   O455    1.014   .     S
H432   O444    1.014   .     S
H433   O446    1.014   .     S
H434   O448    1.013   .     S
H435   O450    1.013   .     S
H436   N441    1.020   .     S
H438   C1004   1.107   .     S
O445   C472    1.223   .     S
O462   C537    1.223   1_455 S
C463   C466    1.463   .     S
C463   O522    1.301   .     A
C463   O509    1.311   .     A
C464   H497    1.084   .     S
C464   C466    1.399   .     A
C465   C486    1.399   .     A
C465   C485    1.417   .     A
C465   C474    1.463   .     S
C466   C484    1.417   .     A
C467   N506    1.382   .     A
C467   N507    1.424   .     S
C467   C1657   1.430   1_554 S
C468   N505    1.382   .     A
C468   N508    1.424   .     S
C468   C1064   1.430   .     S
C469   N505    1.371   .     A
C469   C478    1.478   .     S
C469   C1061   1.430   .     S
C470   C479    1.478   .     S
C470   N506    1.371   .     A
C470   C1656   1.430   1_554 S
C471   O510    1.398   .     S
C471   C548    1.508   .     S
C471   O594    1.223   .     S
C472   O512    1.398   .     S
C473   O514    1.398   .     S
C473   O513    1.223   .     D
C473   C484    1.477   .     S
C474   O523    1.301   .     A
C474   O520    1.311   .     A
C475   O515    1.223   .     D
C475   C485    1.477   .     S
C475   O516    1.398   .     S
C476   H503    1.110   .     S
C476   N507    1.449   .     S
C476   H490    1.106   .     S
C476   H1692   1.107   1_554 S
C477   H493    1.106   .     S
C477   H492    1.110   .     S
C477   N508    1.449   .     S
C477   H1088   1.107   .     S
C478   O518    1.396   .     S
C478   O517    1.221   .     D
C479   O521    1.396   .     S
C479   O519    1.221   .     D
C480   C482    1.443   .     S
C480   O526    1.312   .     A
C480   O524    1.284   .     A
C481   C483    1.443   .     S
C481   O527    1.312   .     A
C481   O525    1.284   .     A
C483   C548    1.367   .     S
C483   C538    1.508   .     S
C485   C68     1.386   1_565 S
C486   H489    1.084   .     S
C486   C88     1.386   1_565 S
Cu487  O524    1.973   .     S
Cu487  O509    1.970   .     S
Cu487  N505    2.043   .     S
Cu487  O523    1.982   .     S
Cu487  O527    1.964   .     S
Cu487  Cu488   2.719   .     S
Cu488  O525    1.973   .     S
Cu488  N506    2.043   .     S
Cu488  O520    1.970   .     S
Cu488  O522    1.982   .     S
Cu488  O526    1.964   .     S
H491   N508    1.020   .     S
H494   C1665   1.107   1_554 S
H495   O518    1.014   .     S
H496   O521    1.014   .     S
H498   O510    1.014   .     S
H499   O512    1.014   .     S
H500   O514    1.013   .     S
H501   O516    1.013   .     S
H502   N507    1.020   .     S
H504   C1070   1.107   .     S
O511   C538    1.223   .     S
C529   C532    1.463   .     S
C529   O588    1.301   .     A
C529   O575    1.311   .     A
C530   H563    1.084   .     S
C530   C532    1.399   .     A
C531   C552    1.399   .     A
C531   C551    1.417   .     A
C531   C540    1.463   .     S
C532   C550    1.417   .     A
C533   N572    1.382   .     A
C533   N573    1.424   .     S
C533   C1723   1.430   1_554 S
C534   N571    1.382   .     A
C534   N574    1.424   .     S
C534   C1130   1.430   .     S
C535   N571    1.371   .     A
C535   C544    1.478   .     S
C535   C1127   1.430   .     S
C536   C545    1.478   .     S
C536   N572    1.371   .     A
C536   C1722   1.430   1_554 S
C537   O576    1.398   .     S
C537   C416    1.508   1_655 S
C537   O462    1.223   1_655 S
C538   O578    1.398   .     S
C539   O580    1.398   .     S
C539   O579    1.223   .     D
C539   C550    1.477   .     S
C540   O589    1.301   .     A
C540   O586    1.311   .     A
C541   O581    1.223   .     D
C541   C551    1.477   .     S
C541   O582    1.398   .     S
C542   H569    1.110   .     S
C542   N573    1.449   .     S
C542   H556    1.106   .     S
C542   H1758   1.107   1_554 S
C543   H559    1.106   .     S
C543   H558    1.110   .     S
C543   N574    1.449   .     S
C543   H1154   1.107   .     S
C544   O584    1.396   .     S
C544   O583    1.221   .     D
C545   O587    1.396   .     S
C545   O585    1.221   .     D
C546   C548    1.443   .     S
C546   O592    1.312   .     A
C546   O590    1.284   .     A
C547   C549    1.443   .     S
C547   O593    1.312   .     A
C547   O591    1.284   .     A
C549   C416    1.367   1_655 S
C549   C406    1.508   1_655 S
C551   C134    1.386   1_565 S
C552   H555    1.084   .     S
C552   C154    1.386   1_565 S
Cu553  O590    1.973   .     S
Cu553  O575    1.970   .     S
Cu553  N571    2.043   .     S
Cu553  O589    1.982   .     S
Cu553  O593    1.964   .     S
Cu553  Cu554   2.719   .     S
Cu554  O591    1.973   .     S
Cu554  N572    2.043   .     S
Cu554  O586    1.970   .     S
Cu554  O588    1.982   .     S
Cu554  O592    1.964   .     S
H557   N574    1.020   .     S
H560   C1731   1.107   1_554 S
H561   O584    1.014   .     S
H562   O587    1.014   .     S
H564   O576    1.014   .     S
H565   O578    1.014   .     S
H566   O580    1.013   .     S
H567   O582    1.013   .     S
H568   N573    1.020   .     S
H570   C1136   1.107   .     S
O577   C406    1.223   1_655 S
C595   C598    1.463   .     S
C595   O654    1.301   .     A
C595   O641    1.311   .     A
C596   H629    1.084   .     S
C596   C598    1.399   .     A
C596   C1013   1.386   1_545 S
C597   C618    1.399   .     A
C597   C617    1.417   .     A
C597   C606    1.463   .     S
C598   C616    1.417   .     A
C599   N638    1.382   .     A
C599   N639    1.424   .     S
C600   N637    1.382   .     A
C600   N640    1.424   .     S
C600   C1196   1.430   .     S
C601   N637    1.371   .     A
C601   C610    1.478   .     S
C601   C1193   1.430   .     S
C602   C611    1.478   .     S
C602   N638    1.371   .     A
C603   O642    1.398   .     S
C603   C680    1.508   .     S
C603   O726    1.223   .     S
C604   O644    1.398   .     S
C604   C747    1.508   1_455 S
C604   O775    1.223   1_455 S
C605   O646    1.398   .     S
C605   O645    1.223   .     D
C605   C616    1.477   .     S
C606   O655    1.301   .     A
C606   O652    1.311   .     A
C607   O647    1.223   .     D
C607   C617    1.477   .     S
C607   O648    1.398   .     S
C608   H635    1.110   .     S
C608   N639    1.449   .     S
C608   H622    1.106   .     S
C609   H625    1.106   .     S
C609   H624    1.110   .     S
C609   N640    1.449   .     S
C609   H1220   1.107   .     S
C610   O650    1.396   .     S
C610   O649    1.221   .     D
C611   O653    1.396   .     S
C611   O651    1.221   .     D
C612   C614    1.443   .     S
C612   O658    1.312   .     A
C612   O656    1.284   .     A
C613   C615    1.443   .     S
C613   O659    1.312   .     A
C613   O657    1.284   .     A
C614   C735    1.508   1_455 S
C614   C747    1.367   1_455 S
C615   C680    1.367   .     S
C615   C670    1.508   .     S
C616   C1014   1.386   1_545 S
C617   C794    1.386   .     S
C618   H621    1.084   .     S
C618   C814    1.386   .     S
Cu619  O656    1.973   .     S
Cu619  O641    1.970   .     S
Cu619  N637    2.043   .     S
Cu619  O655    1.982   .     S
Cu619  O659    1.964   .     S
Cu619  Cu620   2.719   .     S
Cu620  O657    1.973   .     S
Cu620  N638    2.043   .     S
Cu620  O652    1.970   .     S
Cu620  O654    1.982   .     S
Cu620  O658    1.964   .     S
H623   N640    1.020   .     S
H627   O650    1.014   .     S
H628   O653    1.014   .     S
H630   O642    1.014   .     S
H631   O644    1.014   .     S
H632   O646    1.013   .     S
H633   O648    1.013   .     S
H634   N639    1.020   .     S
H636   C1202   1.107   .     S
O643   C670    1.223   .     S
O660   C735    1.223   1_455 S
C661   C664    1.463   .     S
C661   O720    1.301   .     A
C661   O707    1.311   .     A
C662   H695    1.084   .     S
C662   C664    1.399   .     A
C662   C1079   1.386   1_545 S
C663   C684    1.399   .     A
C663   C683    1.417   .     A
C663   C672    1.463   .     S
C664   C682    1.417   .     A
C665   N704    1.382   .     A
C665   N705    1.424   .     S
C666   N703    1.382   .     A
C666   N706    1.424   .     S
C666   C1262   1.430   .     S
C667   N703    1.371   .     A
C667   C676    1.478   .     S
C667   C1259   1.430   .     S
C668   C677    1.478   .     S
C668   N704    1.371   .     A
C669   O708    1.398   .     S
C669   C746    1.508   .     S
C669   O792    1.223   .     S
C670   O710    1.398   .     S
C671   O712    1.398   .     S
C671   O711    1.223   .     D
C671   C682    1.477   .     S
C672   O721    1.301   .     A
C672   O718    1.311   .     A
C673   O713    1.223   .     D
C673   C683    1.477   .     S
C673   O714    1.398   .     S
C674   H701    1.110   .     S
C674   N705    1.449   .     S
C674   H688    1.106   .     S
C675   H691    1.106   .     S
C675   H690    1.110   .     S
C675   N706    1.449   .     S
C675   H1286   1.107   .     S
C676   O716    1.396   .     S
C676   O715    1.221   .     D
C677   O719    1.396   .     S
C677   O717    1.221   .     D
C678   C680    1.443   .     S
C678   O724    1.312   .     A
C678   O722    1.284   .     A
C679   C681    1.443   .     S
C679   O725    1.312   .     A
C679   O723    1.284   .     A
C681   C746    1.367   .     S
C681   C736    1.508   .     S
C682   C1080   1.386   1_545 S
C683   C860    1.386   .     S
C684   H687    1.084   .     S
C684   C880    1.386   .     S
Cu685  O722    1.973   .     S
Cu685  O707    1.970   .     S
Cu685  N703    2.043   .     S
Cu685  O721    1.982   .     S
Cu685  O725    1.964   .     S
Cu685  Cu686   2.719   .     S
Cu686  O723    1.973   .     S
Cu686  N704    2.043   .     S
Cu686  O718    1.970   .     S
Cu686  O720    1.982   .     S
Cu686  O724    1.964   .     S
H689   N706    1.020   .     S
H693   O716    1.014   .     S
H694   O719    1.014   .     S
H696   O708    1.014   .     S
H697   O710    1.014   .     S
H698   O712    1.013   .     S
H699   O714    1.013   .     S
H700   N705    1.020   .     S
H702   C1268   1.107   .     S
O709   C736    1.223   .     S
C727   C730    1.463   .     S
C727   O786    1.301   .     A
C727   O773    1.311   .     A
C728   H761    1.084   .     S
C728   C730    1.399   .     A
C728   C1145   1.386   1_545 S
C729   C750    1.399   .     A
C729   C749    1.417   .     A
C729   C738    1.463   .     S
C730   C748    1.417   .     A
C731   N770    1.382   .     A
C731   N771    1.424   .     S
C732   N769    1.382   .     A
C732   N772    1.424   .     S
C732   C1328   1.430   .     S
C733   N769    1.371   .     A
C733   C742    1.478   .     S
C733   C1325   1.430   .     S
C734   C743    1.478   .     S
C734   N770    1.371   .     A
C735   O774    1.398   .     S
C735   C614    1.508   1_655 S
C735   O660    1.223   1_655 S
C736   O776    1.398   .     S
C737   O778    1.398   .     S
C737   O777    1.223   .     D
C737   C748    1.477   .     S
C738   O787    1.301   .     A
C738   O784    1.311   .     A
C739   O779    1.223   .     D
C739   C749    1.477   .     S
C739   O780    1.398   .     S
C740   H767    1.110   .     S
C740   N771    1.449   .     S
C740   H754    1.106   .     S
C741   H757    1.106   .     S
C741   H756    1.110   .     S
C741   N772    1.449   .     S
C741   H1352   1.107   .     S
C742   O782    1.396   .     S
C742   O781    1.221   .     D
C743   O785    1.396   .     S
C743   O783    1.221   .     D
C744   C746    1.443   .     S
C744   O790    1.312   .     A
C744   O788    1.284   .     A
C745   C747    1.443   .     S
C745   O791    1.312   .     A
C745   O789    1.284   .     A
C747   C614    1.367   1_655 S
C747   C604    1.508   1_655 S
C748   C1146   1.386   1_545 S
C749   C926    1.386   .     S
C750   H753    1.084   .     S
C750   C946    1.386   .     S
Cu751  O788    1.973   .     S
Cu751  O773    1.970   .     S
Cu751  N769    2.043   .     S
Cu751  O787    1.982   .     S
Cu751  O791    1.964   .     S
Cu751  Cu752   2.719   .     S
Cu752  O789    1.973   .     S
Cu752  N770    2.043   .     S
Cu752  O784    1.970   .     S
Cu752  O786    1.982   .     S
Cu752  O790    1.964   .     S
H755   N772    1.020   .     S
H759   O782    1.014   .     S
H760   O785    1.014   .     S
H762   O774    1.014   .     S
H763   O776    1.014   .     S
H764   O778    1.013   .     S
H765   O780    1.013   .     S
H766   N771    1.020   .     S
H768   C1334   1.107   .     S
O775   C604    1.223   1_655 S
C793   C796    1.463   .     S
C793   O852    1.301   .     A
C793   O839    1.311   .     A
C794   H827    1.084   .     S
C794   C796    1.399   .     A
C795   C816    1.399   .     A
C795   C815    1.417   .     A
C795   C804    1.463   .     S
C796   C814    1.417   .     A
C797   N836    1.382   .     A
C797   N837    1.424   .     S
C798   N835    1.382   .     A
C798   N838    1.424   .     S
C798   C1394   1.430   .     S
C799   N835    1.371   .     A
C799   C808    1.478   .     S
C799   C1391   1.430   .     S
C800   C809    1.478   .     S
C800   N836    1.371   .     A
C801   O840    1.398   .     S
C801   C878    1.508   .     S
C801   O924    1.223   .     S
C802   O842    1.398   .     S
C802   C945    1.508   1_455 S
C802   O973    1.223   1_455 S
C803   O844    1.398   .     S
C803   O843    1.223   .     D
C803   C814    1.477   .     S
C804   O853    1.301   .     A
C804   O850    1.311   .     A
C805   O845    1.223   .     D
C805   C815    1.477   .     S
C805   O846    1.398   .     S
C806   H833    1.110   .     S
C806   N837    1.449   .     S
C806   H820    1.106   .     S
C807   H823    1.106   .     S
C807   H822    1.110   .     S
C807   N838    1.449   .     S
C807   H1418   1.107   .     S
C808   O848    1.396   .     S
C808   O847    1.221   .     D
C809   O851    1.396   .     S
C809   O849    1.221   .     D
C810   C812    1.443   .     S
C810   O856    1.312   .     A
C810   O854    1.284   .     A
C811   C813    1.443   .     S
C811   O857    1.312   .     A
C811   O855    1.284   .     A
C812   C933    1.508   1_455 S
C812   C945    1.367   1_455 S
C813   C878    1.367   .     S
C813   C868    1.508   .     S
C815   C992    1.386   .     S
C816   H819    1.084   .     S
C816   C1012   1.386   .     S
Cu817  O854    1.973   .     S
Cu817  O839    1.970   .     S
Cu817  N835    2.043   .     S
Cu817  O853    1.982   .     S
Cu817  O857    1.964   .     S
Cu817  Cu818   2.719   .     S
Cu818  O855    1.973   .     S
Cu818  N836    2.043   .     S
Cu818  O850    1.970   .     S
Cu818  O852    1.982   .     S
Cu818  O856    1.964   .     S
H821   N838    1.020   .     S
H825   O848    1.014   .     S
H826   O851    1.014   .     S
H828   O840    1.014   .     S
H829   O842    1.014   .     S
H830   O844    1.013   .     S
H831   O846    1.013   .     S
H832   N837    1.020   .     S
H834   C1400   1.107   .     S
O841   C868    1.223   .     S
O858   C933    1.223   1_455 S
C859   C862    1.463   .     S
C859   O918    1.301   .     A
C859   O905    1.311   .     A
C860   H893    1.084   .     S
C860   C862    1.399   .     A
C861   C882    1.399   .     A
C861   C881    1.417   .     A
C861   C870    1.463   .     S
C862   C880    1.417   .     A
C863   N902    1.382   .     A
C863   N903    1.424   .     S
C864   N901    1.382   .     A
C864   N904    1.424   .     S
C864   C1460   1.430   .     S
C865   N901    1.371   .     A
C865   C874    1.478   .     S
C865   C1457   1.430   .     S
C866   C875    1.478   .     S
C866   N902    1.371   .     A
C867   O906    1.398   .     S
C867   C944    1.508   .     S
C867   O990    1.223   .     S
C868   O908    1.398   .     S
C869   O910    1.398   .     S
C869   O909    1.223   .     D
C869   C880    1.477   .     S
C870   O919    1.301   .     A
C870   O916    1.311   .     A
C871   O911    1.223   .     D
C871   C881    1.477   .     S
C871   O912    1.398   .     S
C872   H899    1.110   .     S
C872   N903    1.449   .     S
C872   H886    1.106   .     S
C873   H889    1.106   .     S
C873   H888    1.110   .     S
C873   N904    1.449   .     S
C873   H1484   1.107   .     S
C874   O914    1.396   .     S
C874   O913    1.221   .     D
C875   O917    1.396   .     S
C875   O915    1.221   .     D
C876   C878    1.443   .     S
C876   O922    1.312   .     A
C876   O920    1.284   .     A
C877   C879    1.443   .     S
C877   O923    1.312   .     A
C877   O921    1.284   .     A
C879   C944    1.367   .     S
C879   C934    1.508   .     S
C881   C1058   1.386   .     S
C882   H885    1.084   .     S
C882   C1078   1.386   .     S
Cu883  O920    1.973   .     S
Cu883  O905    1.970   .     S
Cu883  N901    2.043   .     S
Cu883  O919    1.982   .     S
Cu883  O923    1.964   .     S
Cu883  Cu884   2.719   .     S
Cu884  O921    1.973   .     S
Cu884  N902    2.043   .     S
Cu884  O916    1.970   .     S
Cu884  O918    1.982   .     S
Cu884  O922    1.964   .     S
H887   N904    1.020   .     S
H891   O914    1.014   .     S
H892   O917    1.014   .     S
H894   O906    1.014   .     S
H895   O908    1.014   .     S
H896   O910    1.013   .     S
H897   O912    1.013   .     S
H898   N903    1.020   .     S
H900   C1466   1.107   .     S
O907   C934    1.223   .     S
C925   C928    1.463   .     S
C925   O984    1.301   .     A
C925   O971    1.311   .     A
C926   H959    1.084   .     S
C926   C928    1.399   .     A
C927   C948    1.399   .     A
C927   C947    1.417   .     A
C927   C936    1.463   .     S
C928   C946    1.417   .     A
C929   N968    1.382   .     A
C929   N969    1.424   .     S
C930   N967    1.382   .     A
C930   N970    1.424   .     S
C930   C1526   1.430   .     S
C931   N967    1.371   .     A
C931   C940    1.478   .     S
C931   C1523   1.430   .     S
C932   C941    1.478   .     S
C932   N968    1.371   .     A
C933   O972    1.398   .     S
C933   C812    1.508   1_655 S
C933   O858    1.223   1_655 S
C934   O974    1.398   .     S
C935   O976    1.398   .     S
C935   O975    1.223   .     D
C935   C946    1.477   .     S
C936   O985    1.301   .     A
C936   O982    1.311   .     A
C937   O977    1.223   .     D
C937   C947    1.477   .     S
C937   O978    1.398   .     S
C938   H965    1.110   .     S
C938   N969    1.449   .     S
C938   H952    1.106   .     S
C939   H955    1.106   .     S
C939   H954    1.110   .     S
C939   N970    1.449   .     S
C939   H1550   1.107   .     S
C940   O980    1.396   .     S
C940   O979    1.221   .     D
C941   O983    1.396   .     S
C941   O981    1.221   .     D
C942   C944    1.443   .     S
C942   O988    1.312   .     A
C942   O986    1.284   .     A
C943   C945    1.443   .     S
C943   O989    1.312   .     A
C943   O987    1.284   .     A
C945   C812    1.367   1_655 S
C945   C802    1.508   1_655 S
C947   C1124   1.386   .     S
C948   H951    1.084   .     S
C948   C1144   1.386   .     S
Cu949  O986    1.973   .     S
Cu949  O971    1.970   .     S
Cu949  N967    2.043   .     S
Cu949  O985    1.982   .     S
Cu949  O989    1.964   .     S
Cu949  Cu950   2.719   .     S
Cu950  O987    1.973   .     S
Cu950  N968    2.043   .     S
Cu950  O982    1.970   .     S
Cu950  O984    1.982   .     S
Cu950  O988    1.964   .     S
H953   N970    1.020   .     S
H957   O980    1.014   .     S
H958   O983    1.014   .     S
H960   O972    1.014   .     S
H961   O974    1.014   .     S
H962   O976    1.013   .     S
H963   O978    1.013   .     S
H964   N969    1.020   .     S
H966   C1532   1.107   .     S
O973   C802    1.223   1_655 S
C991   C994    1.463   .     S
C991   O1050   1.301   .     A
C991   O1037   1.311   .     A
C992   H1025   1.084   .     S
C992   C994    1.399   .     A
C993   C1014   1.399   .     A
C993   C1013   1.417   .     A
C993   C1002   1.463   .     S
C994   C1012   1.417   .     A
C995   N1034   1.382   .     A
C995   N1035   1.424   .     S
C996   N1033   1.382   .     A
C996   N1036   1.424   .     S
C996   C1592   1.430   .     S
C997   N1033   1.371   .     A
C997   C1006   1.478   .     S
C997   C1589   1.430   .     S
C998   C1007   1.478   .     S
C998   N1034   1.371   .     A
C999   O1038   1.398   .     S
C999   C1076   1.508   .     S
C999   O1122   1.223   .     S
C1000  O1040   1.398   .     S
C1000  C1143   1.508   1_455 S
C1000  O1171   1.223   1_455 S
C1001  O1042   1.398   .     S
C1001  O1041   1.223   .     D
C1001  C1012   1.477   .     S
C1002  O1051   1.301   .     A
C1002  O1048   1.311   .     A
C1003  O1043   1.223   .     D
C1003  C1013   1.477   .     S
C1003  O1044   1.398   .     S
C1004  H1031   1.110   .     S
C1004  N1035   1.449   .     S
C1004  H1018   1.106   .     S
C1005  H1021   1.106   .     S
C1005  H1020   1.110   .     S
C1005  N1036   1.449   .     S
C1005  H1616   1.107   .     S
C1006  O1046   1.396   .     S
C1006  O1045   1.221   .     D
C1007  O1049   1.396   .     S
C1007  O1047   1.221   .     D
C1008  C1010   1.443   .     S
C1008  O1054   1.312   .     A
C1008  O1052   1.284   .     A
C1009  C1011   1.443   .     S
C1009  O1055   1.312   .     A
C1009  O1053   1.284   .     A
C1010  C1131   1.508   1_455 S
C1010  C1143   1.367   1_455 S
C1011  C1076   1.367   .     S
C1011  C1066   1.508   .     S
C1013  C596    1.386   1_565 S
C1014  H1017   1.084   .     S
C1014  C616    1.386   1_565 S
Cu1015 O1052   1.973   .     S
Cu1015 O1037   1.970   .     S
Cu1015 N1033   2.043   .     S
Cu1015 O1051   1.982   .     S
Cu1015 O1055   1.964   .     S
Cu1015 Cu1016  2.719   .     S
Cu1016 O1053   1.973   .     S
Cu1016 N1034   2.043   .     S
Cu1016 O1048   1.970   .     S
Cu1016 O1050   1.982   .     S
Cu1016 O1054   1.964   .     S
H1019  N1036   1.020   .     S
H1023  O1046   1.014   .     S
H1024  O1049   1.014   .     S
H1026  O1038   1.014   .     S
H1027  O1040   1.014   .     S
H1028  O1042   1.013   .     S
H1029  O1044   1.013   .     S
H1030  N1035   1.020   .     S
H1032  C1598   1.107   .     S
O1039  C1066   1.223   .     S
O1056  C1131   1.223   1_455 S
C1057  C1060   1.463   .     S
C1057  O1116   1.301   .     A
C1057  O1103   1.311   .     A
C1058  H1091   1.084   .     S
C1058  C1060   1.399   .     A
C1059  C1080   1.399   .     A
C1059  C1079   1.417   .     A
C1059  C1068   1.463   .     S
C1060  C1078   1.417   .     A
C1061  N1100   1.382   .     A
C1061  N1101   1.424   .     S
C1062  N1099   1.382   .     A
C1062  N1102   1.424   .     S
C1062  C1658   1.430   .     S
C1063  N1099   1.371   .     A
C1063  C1072   1.478   .     S
C1063  C1655   1.430   .     S
C1064  C1073   1.478   .     S
C1064  N1100   1.371   .     A
C1065  O1104   1.398   .     S
C1065  C1142   1.508   .     S
C1065  O1188   1.223   .     S
C1066  O1106   1.398   .     S
C1067  O1108   1.398   .     S
C1067  O1107   1.223   .     D
C1067  C1078   1.477   .     S
C1068  O1117   1.301   .     A
C1068  O1114   1.311   .     A
C1069  O1109   1.223   .     D
C1069  C1079   1.477   .     S
C1069  O1110   1.398   .     S
C1070  H1097   1.110   .     S
C1070  N1101   1.449   .     S
C1070  H1084   1.106   .     S
C1071  H1087   1.106   .     S
C1071  H1086   1.110   .     S
C1071  N1102   1.449   .     S
C1071  H1682   1.107   .     S
C1072  O1112   1.396   .     S
C1072  O1111   1.221   .     D
C1073  O1115   1.396   .     S
C1073  O1113   1.221   .     D
C1074  C1076   1.443   .     S
C1074  O1120   1.312   .     A
C1074  O1118   1.284   .     A
C1075  C1077   1.443   .     S
C1075  O1121   1.312   .     A
C1075  O1119   1.284   .     A
C1077  C1142   1.367   .     S
C1077  C1132   1.508   .     S
C1079  C662    1.386   1_565 S
C1080  H1083   1.084   .     S
C1080  C682    1.386   1_565 S
Cu1081 O1118   1.973   .     S
Cu1081 O1103   1.970   .     S
Cu1081 N1099   2.043   .     S
Cu1081 O1117   1.982   .     S
Cu1081 O1121   1.964   .     S
Cu1081 Cu1082  2.719   .     S
Cu1082 O1119   1.973   .     S
Cu1082 N1100   2.043   .     S
Cu1082 O1114   1.970   .     S
Cu1082 O1116   1.982   .     S
Cu1082 O1120   1.964   .     S
H1085  N1102   1.020   .     S
H1089  O1112   1.014   .     S
H1090  O1115   1.014   .     S
H1092  O1104   1.014   .     S
H1093  O1106   1.014   .     S
H1094  O1108   1.013   .     S
H1095  O1110   1.013   .     S
H1096  N1101   1.020   .     S
H1098  C1664   1.107   .     S
O1105  C1132   1.223   .     S
C1123  C1126   1.463   .     S
C1123  O1182   1.301   .     A
C1123  O1169   1.311   .     A
C1124  H1157   1.084   .     S
C1124  C1126   1.399   .     A
C1125  C1146   1.399   .     A
C1125  C1145   1.417   .     A
C1125  C1134   1.463   .     S
C1126  C1144   1.417   .     A
C1127  N1166   1.382   .     A
C1127  N1167   1.424   .     S
C1128  N1165   1.382   .     A
C1128  N1168   1.424   .     S
C1128  C1724   1.430   .     S
C1129  N1165   1.371   .     A
C1129  C1138   1.478   .     S
C1129  C1721   1.430   .     S
C1130  C1139   1.478   .     S
C1130  N1166   1.371   .     A
C1131  O1170   1.398   .     S
C1131  C1010   1.508   1_655 S
C1131  O1056   1.223   1_655 S
C1132  O1172   1.398   .     S
C1133  O1174   1.398   .     S
C1133  O1173   1.223   .     D
C1133  C1144   1.477   .     S
C1134  O1183   1.301   .     A
C1134  O1180   1.311   .     A
C1135  O1175   1.223   .     D
C1135  C1145   1.477   .     S
C1135  O1176   1.398   .     S
C1136  H1163   1.110   .     S
C1136  N1167   1.449   .     S
C1136  H1150   1.106   .     S
C1137  H1153   1.106   .     S
C1137  H1152   1.110   .     S
C1137  N1168   1.449   .     S
C1137  H1748   1.107   .     S
C1138  O1178   1.396   .     S
C1138  O1177   1.221   .     D
C1139  O1181   1.396   .     S
C1139  O1179   1.221   .     D
C1140  C1142   1.443   .     S
C1140  O1186   1.312   .     A
C1140  O1184   1.284   .     A
C1141  C1143   1.443   .     S
C1141  O1187   1.312   .     A
C1141  O1185   1.284   .     A
C1143  C1010   1.367   1_655 S
C1143  C1000   1.508   1_655 S
C1145  C728    1.386   1_565 S
C1146  H1149   1.084   .     S
C1146  C748    1.386   1_565 S
Cu1147 O1184   1.973   .     S
Cu1147 O1169   1.970   .     S
Cu1147 N1165   2.043   .     S
Cu1147 O1183   1.982   .     S
Cu1147 O1187   1.964   .     S
Cu1147 Cu1148  2.719   .     S
Cu1148 O1185   1.973   .     S
Cu1148 N1166   2.043   .     S
Cu1148 O1180   1.970   .     S
Cu1148 O1182   1.982   .     S
Cu1148 O1186   1.964   .     S
H1151  N1168   1.020   .     S
H1155  O1178   1.014   .     S
H1156  O1181   1.014   .     S
H1158  O1170   1.014   .     S
H1159  O1172   1.014   .     S
H1160  O1174   1.013   .     S
H1161  O1176   1.013   .     S
H1162  N1167   1.020   .     S
H1164  C1730   1.107   .     S
O1171  C1000   1.223   1_655 S
C1189  C1192   1.463   .     S
C1189  O1248   1.301   .     A
C1189  O1235   1.311   .     A
C1190  H1223   1.084   .     S
C1190  C1192   1.399   .     A
C1190  C1607   1.386   1_545 S
C1191  C1212   1.399   .     A
C1191  C1211   1.417   .     A
C1191  C1200   1.463   .     S
C1192  C1210   1.417   .     A
C1193  N1232   1.382   .     A
C1193  N1233   1.424   .     S
C1194  N1231   1.382   .     A
C1194  N1234   1.424   .     S
C1194  C8      1.430   1_556 S
C1195  N1231   1.371   .     A
C1195  C1204   1.478   .     S
C1195  C5      1.430   1_556 S
C1196  C1205   1.478   .     S
C1196  N1232   1.371   .     A
C1197  O1236   1.398   .     S
C1197  C1274   1.508   .     S
C1197  O1320   1.223   .     S
C1198  O1238   1.398   .     S
C1198  C1341   1.508   1_455 S
C1198  O1369   1.223   1_455 S
C1199  O1240   1.398   .     S
C1199  O1239   1.223   .     D
C1199  C1210   1.477   .     S
C1200  O1249   1.301   .     A
C1200  O1246   1.311   .     A
C1201  O1241   1.223   .     D
C1201  C1211   1.477   .     S
C1201  O1242   1.398   .     S
C1202  H1229   1.110   .     S
C1202  N1233   1.449   .     S
C1202  H1216   1.106   .     S
C1203  H1219   1.106   .     S
C1203  H1218   1.110   .     S
C1203  N1234   1.449   .     S
C1203  H32     1.107   1_556 S
C1204  O1244   1.396   .     S
C1204  O1243   1.221   .     D
C1205  O1247   1.396   .     S
C1205  O1245   1.221   .     D
C1206  C1208   1.443   .     S
C1206  O1252   1.312   .     A
C1206  O1250   1.284   .     A
C1207  C1209   1.443   .     S
C1207  O1253   1.312   .     A
C1207  O1251   1.284   .     A
C1208  C1329   1.508   1_455 S
C1208  C1341   1.367   1_455 S
C1209  C1274   1.367   .     S
C1209  C1264   1.508   .     S
C1210  C1608   1.386   1_545 S
C1211  C1388   1.386   .     S
C1212  H1215   1.084   .     S
C1212  C1408   1.386   .     S
Cu1213 O1250   1.973   .     S
Cu1213 O1235   1.970   .     S
Cu1213 N1231   2.043   .     S
Cu1213 O1249   1.982   .     S
Cu1213 O1253   1.964   .     S
Cu1213 Cu1214  2.719   .     S
Cu1214 O1251   1.973   .     S
Cu1214 N1232   2.043   .     S
Cu1214 O1246   1.970   .     S
Cu1214 O1248   1.982   .     S
Cu1214 O1252   1.964   .     S
H1217  N1234   1.020   .     S
H1221  O1244   1.014   .     S
H1222  O1247   1.014   .     S
H1224  O1236   1.014   .     S
H1225  O1238   1.014   .     S
H1226  O1240   1.013   .     S
H1227  O1242   1.013   .     S
H1228  N1233   1.020   .     S
H1230  C14     1.107   1_556 S
O1237  C1264   1.223   .     S
O1254  C1329   1.223   1_455 S
C1255  C1258   1.463   .     S
C1255  O1314   1.301   .     A
C1255  O1301   1.311   .     A
C1256  H1289   1.084   .     S
C1256  C1258   1.399   .     A
C1256  C1673   1.386   1_545 S
C1257  C1278   1.399   .     A
C1257  C1277   1.417   .     A
C1257  C1266   1.463   .     S
C1258  C1276   1.417   .     A
C1259  N1298   1.382   .     A
C1259  N1299   1.424   .     S
C1260  N1297   1.382   .     A
C1260  N1300   1.424   .     S
C1260  C74     1.430   1_556 S
C1261  N1297   1.371   .     A
C1261  C1270   1.478   .     S
C1261  C71     1.430   1_556 S
C1262  C1271   1.478   .     S
C1262  N1298   1.371   .     A
C1263  O1302   1.398   .     S
C1263  C1340   1.508   .     S
C1263  O1386   1.223   .     S
C1264  O1304   1.398   .     S
C1265  O1306   1.398   .     S
C1265  O1305   1.223   .     D
C1265  C1276   1.477   .     S
C1266  O1315   1.301   .     A
C1266  O1312   1.311   .     A
C1267  O1307   1.223   .     D
C1267  C1277   1.477   .     S
C1267  O1308   1.398   .     S
C1268  H1295   1.110   .     S
C1268  N1299   1.449   .     S
C1268  H1282   1.106   .     S
C1269  H1285   1.106   .     S
C1269  H1284   1.110   .     S
C1269  N1300   1.449   .     S
C1269  H98     1.107   1_556 S
C1270  O1310   1.396   .     S
C1270  O1309   1.221   .     D
C1271  O1313   1.396   .     S
C1271  O1311   1.221   .     D
C1272  C1274   1.443   .     S
C1272  O1318   1.312   .     A
C1272  O1316   1.284   .     A
C1273  C1275   1.443   .     S
C1273  O1319   1.312   .     A
C1273  O1317   1.284   .     A
C1275  C1340   1.367   .     S
C1275  C1330   1.508   .     S
C1276  C1674   1.386   1_545 S
C1277  C1454   1.386   .     S
C1278  H1281   1.084   .     S
C1278  C1474   1.386   .     S
Cu1279 O1316   1.973   .     S
Cu1279 O1301   1.970   .     S
Cu1279 N1297   2.043   .     S
Cu1279 O1315   1.982   .     S
Cu1279 O1319   1.964   .     S
Cu1279 Cu1280  2.719   .     S
Cu1280 O1317   1.973   .     S
Cu1280 N1298   2.043   .     S
Cu1280 O1312   1.970   .     S
Cu1280 O1314   1.982   .     S
Cu1280 O1318   1.964   .     S
H1283  N1300   1.020   .     S
H1287  O1310   1.014   .     S
H1288  O1313   1.014   .     S
H1290  O1302   1.014   .     S
H1291  O1304   1.014   .     S
H1292  O1306   1.013   .     S
H1293  O1308   1.013   .     S
H1294  N1299   1.020   .     S
H1296  C80     1.107   1_556 S
O1303  C1330   1.223   .     S
C1321  C1324   1.463   .     S
C1321  O1380   1.301   .     A
C1321  O1367   1.311   .     A
C1322  H1355   1.084   .     S
C1322  C1324   1.399   .     A
C1322  C1739   1.386   1_545 S
C1323  C1344   1.399   .     A
C1323  C1343   1.417   .     A
C1323  C1332   1.463   .     S
C1324  C1342   1.417   .     A
C1325  N1364   1.382   .     A
C1325  N1365   1.424   .     S
C1326  N1363   1.382   .     A
C1326  N1366   1.424   .     S
C1326  C140    1.430   1_556 S
C1327  N1363   1.371   .     A
C1327  C1336   1.478   .     S
C1327  C137    1.430   1_556 S
C1328  C1337   1.478   .     S
C1328  N1364   1.371   .     A
C1329  O1368   1.398   .     S
C1329  C1208   1.508   1_655 S
C1329  O1254   1.223   1_655 S
C1330  O1370   1.398   .     S
C1331  O1372   1.398   .     S
C1331  O1371   1.223   .     D
C1331  C1342   1.477   .     S
C1332  O1381   1.301   .     A
C1332  O1378   1.311   .     A
C1333  O1373   1.223   .     D
C1333  C1343   1.477   .     S
C1333  O1374   1.398   .     S
C1334  H1361   1.110   .     S
C1334  N1365   1.449   .     S
C1334  H1348   1.106   .     S
C1335  H1351   1.106   .     S
C1335  H1350   1.110   .     S
C1335  N1366   1.449   .     S
C1335  H164    1.107   1_556 S
C1336  O1376   1.396   .     S
C1336  O1375   1.221   .     D
C1337  O1379   1.396   .     S
C1337  O1377   1.221   .     D
C1338  C1340   1.443   .     S
C1338  O1384   1.312   .     A
C1338  O1382   1.284   .     A
C1339  C1341   1.443   .     S
C1339  O1385   1.312   .     A
C1339  O1383   1.284   .     A
C1341  C1208   1.367   1_655 S
C1341  C1198   1.508   1_655 S
C1342  C1740   1.386   1_545 S
C1343  C1520   1.386   .     S
C1344  H1347   1.084   .     S
C1344  C1540   1.386   .     S
Cu1345 O1382   1.973   .     S
Cu1345 O1367   1.970   .     S
Cu1345 N1363   2.043   .     S
Cu1345 O1381   1.982   .     S
Cu1345 O1385   1.964   .     S
Cu1345 Cu1346  2.719   .     S
Cu1346 O1383   1.973   .     S
Cu1346 N1364   2.043   .     S
Cu1346 O1378   1.970   .     S
Cu1346 O1380   1.982   .     S
Cu1346 O1384   1.964   .     S
H1349  N1366   1.020   .     S
H1353  O1376   1.014   .     S
H1354  O1379   1.014   .     S
H1356  O1368   1.014   .     S
H1357  O1370   1.014   .     S
H1358  O1372   1.013   .     S
H1359  O1374   1.013   .     S
H1360  N1365   1.020   .     S
H1362  C146    1.107   1_556 S
O1369  C1198   1.223   1_655 S
C1387  C1390   1.463   .     S
C1387  O1446   1.301   .     A
C1387  O1433   1.311   .     A
C1388  H1421   1.084   .     S
C1388  C1390   1.399   .     A
C1389  C1410   1.399   .     A
C1389  C1409   1.417   .     A
C1389  C1398   1.463   .     S
C1390  C1408   1.417   .     A
C1391  N1430   1.382   .     A
C1391  N1431   1.424   .     S
C1392  N1429   1.382   .     A
C1392  N1432   1.424   .     S
C1392  C206    1.430   1_556 S
C1393  N1429   1.371   .     A
C1393  C1402   1.478   .     S
C1393  C203    1.430   1_556 S
C1394  C1403   1.478   .     S
C1394  N1430   1.371   .     A
C1395  O1434   1.398   .     S
C1395  C1472   1.508   .     S
C1395  O1518   1.223   .     S
C1396  O1436   1.398   .     S
C1396  C1539   1.508   1_455 S
C1396  O1567   1.223   1_455 S
C1397  O1438   1.398   .     S
C1397  O1437   1.223   .     D
C1397  C1408   1.477   .     S
C1398  O1447   1.301   .     A
C1398  O1444   1.311   .     A
C1399  O1439   1.223   .     D
C1399  C1409   1.477   .     S
C1399  O1440   1.398   .     S
C1400  H1427   1.110   .     S
C1400  N1431   1.449   .     S
C1400  H1414   1.106   .     S
C1401  H1417   1.106   .     S
C1401  H1416   1.110   .     S
C1401  N1432   1.449   .     S
C1401  H230    1.107   1_556 S
C1402  O1442   1.396   .     S
C1402  O1441   1.221   .     D
C1403  O1445   1.396   .     S
C1403  O1443   1.221   .     D
C1404  C1406   1.443   .     S
C1404  O1450   1.312   .     A
C1404  O1448   1.284   .     A
C1405  C1407   1.443   .     S
C1405  O1451   1.312   .     A
C1405  O1449   1.284   .     A
C1406  C1527   1.508   1_455 S
C1406  C1539   1.367   1_455 S
C1407  C1472   1.367   .     S
C1407  C1462   1.508   .     S
C1409  C1586   1.386   .     S
C1410  H1413   1.084   .     S
C1410  C1606   1.386   .     S
Cu1411 O1448   1.973   .     S
Cu1411 O1433   1.970   .     S
Cu1411 N1429   2.043   .     S
Cu1411 O1447   1.982   .     S
Cu1411 O1451   1.964   .     S
Cu1411 Cu1412  2.719   .     S
Cu1412 O1449   1.973   .     S
Cu1412 N1430   2.043   .     S
Cu1412 O1444   1.970   .     S
Cu1412 O1446   1.982   .     S
Cu1412 O1450   1.964   .     S
H1415  N1432   1.020   .     S
H1419  O1442   1.014   .     S
H1420  O1445   1.014   .     S
H1422  O1434   1.014   .     S
H1423  O1436   1.014   .     S
H1424  O1438   1.013   .     S
H1425  O1440   1.013   .     S
H1426  N1431   1.020   .     S
H1428  C212    1.107   1_556 S
O1435  C1462   1.223   .     S
O1452  C1527   1.223   1_455 S
C1453  C1456   1.463   .     S
C1453  O1512   1.301   .     A
C1453  O1499   1.311   .     A
C1454  H1487   1.084   .     S
C1454  C1456   1.399   .     A
C1455  C1476   1.399   .     A
C1455  C1475   1.417   .     A
C1455  C1464   1.463   .     S
C1456  C1474   1.417   .     A
C1457  N1496   1.382   .     A
C1457  N1497   1.424   .     S
C1458  N1495   1.382   .     A
C1458  N1498   1.424   .     S
C1458  C272    1.430   1_556 S
C1459  N1495   1.371   .     A
C1459  C1468   1.478   .     S
C1459  C269    1.430   1_556 S
C1460  C1469   1.478   .     S
C1460  N1496   1.371   .     A
C1461  O1500   1.398   .     S
C1461  C1538   1.508   .     S
C1461  O1584   1.223   .     S
C1462  O1502   1.398   .     S
C1463  O1504   1.398   .     S
C1463  O1503   1.223   .     D
C1463  C1474   1.477   .     S
C1464  O1513   1.301   .     A
C1464  O1510   1.311   .     A
C1465  O1505   1.223   .     D
C1465  C1475   1.477   .     S
C1465  O1506   1.398   .     S
C1466  H1493   1.110   .     S
C1466  N1497   1.449   .     S
C1466  H1480   1.106   .     S
C1467  H1483   1.106   .     S
C1467  H1482   1.110   .     S
C1467  N1498   1.449   .     S
C1467  H296    1.107   1_556 S
C1468  O1508   1.396   .     S
C1468  O1507   1.221   .     D
C1469  O1511   1.396   .     S
C1469  O1509   1.221   .     D
C1470  C1472   1.443   .     S
C1470  O1516   1.312   .     A
C1470  O1514   1.284   .     A
C1471  C1473   1.443   .     S
C1471  O1517   1.312   .     A
C1471  O1515   1.284   .     A
C1473  C1538   1.367   .     S
C1473  C1528   1.508   .     S
C1475  C1652   1.386   .     S
C1476  H1479   1.084   .     S
C1476  C1672   1.386   .     S
Cu1477 O1514   1.973   .     S
Cu1477 O1499   1.970   .     S
Cu1477 N1495   2.043   .     S
Cu1477 O1513   1.982   .     S
Cu1477 O1517   1.964   .     S
Cu1477 Cu1478  2.719   .     S
Cu1478 O1515   1.973   .     S
Cu1478 N1496   2.043   .     S
Cu1478 O1510   1.970   .     S
Cu1478 O1512   1.982   .     S
Cu1478 O1516   1.964   .     S
H1481  N1498   1.020   .     S
H1485  O1508   1.014   .     S
H1486  O1511   1.014   .     S
H1488  O1500   1.014   .     S
H1489  O1502   1.014   .     S
H1490  O1504   1.013   .     S
H1491  O1506   1.013   .     S
H1492  N1497   1.020   .     S
H1494  C278    1.107   1_556 S
O1501  C1528   1.223   .     S
C1519  C1522   1.463   .     S
C1519  O1578   1.301   .     A
C1519  O1565   1.311   .     A
C1520  H1553   1.084   .     S
C1520  C1522   1.399   .     A
C1521  C1542   1.399   .     A
C1521  C1541   1.417   .     A
C1521  C1530   1.463   .     S
C1522  C1540   1.417   .     A
C1523  N1562   1.382   .     A
C1523  N1563   1.424   .     S
C1524  N1561   1.382   .     A
C1524  N1564   1.424   .     S
C1524  C338    1.430   1_556 S
C1525  N1561   1.371   .     A
C1525  C1534   1.478   .     S
C1525  C335    1.430   1_556 S
C1526  C1535   1.478   .     S
C1526  N1562   1.371   .     A
C1527  O1566   1.398   .     S
C1527  C1406   1.508   1_655 S
C1527  O1452   1.223   1_655 S
C1528  O1568   1.398   .     S
C1529  O1570   1.398   .     S
C1529  O1569   1.223   .     D
C1529  C1540   1.477   .     S
C1530  O1579   1.301   .     A
C1530  O1576   1.311   .     A
C1531  O1571   1.223   .     D
C1531  C1541   1.477   .     S
C1531  O1572   1.398   .     S
C1532  H1559   1.110   .     S
C1532  N1563   1.449   .     S
C1532  H1546   1.106   .     S
C1533  H1549   1.106   .     S
C1533  H1548   1.110   .     S
C1533  N1564   1.449   .     S
C1533  H362    1.107   1_556 S
C1534  O1574   1.396   .     S
C1534  O1573   1.221   .     D
C1535  O1577   1.396   .     S
C1535  O1575   1.221   .     D
C1536  C1538   1.443   .     S
C1536  O1582   1.312   .     A
C1536  O1580   1.284   .     A
C1537  C1539   1.443   .     S
C1537  O1583   1.312   .     A
C1537  O1581   1.284   .     A
C1539  C1406   1.367   1_655 S
C1539  C1396   1.508   1_655 S
C1541  C1718   1.386   .     S
C1542  H1545   1.084   .     S
C1542  C1738   1.386   .     S
Cu1543 O1580   1.973   .     S
Cu1543 O1565   1.970   .     S
Cu1543 N1561   2.043   .     S
Cu1543 O1579   1.982   .     S
Cu1543 O1583   1.964   .     S
Cu1543 Cu1544  2.719   .     S
Cu1544 O1581   1.973   .     S
Cu1544 N1562   2.043   .     S
Cu1544 O1576   1.970   .     S
Cu1544 O1578   1.982   .     S
Cu1544 O1582   1.964   .     S
H1547  N1564   1.020   .     S
H1551  O1574   1.014   .     S
H1552  O1577   1.014   .     S
H1554  O1566   1.014   .     S
H1555  O1568   1.014   .     S
H1556  O1570   1.013   .     S
H1557  O1572   1.013   .     S
H1558  N1563   1.020   .     S
H1560  C344    1.107   1_556 S
O1567  C1396   1.223   1_655 S
C1585  C1588   1.463   .     S
C1585  O1644   1.301   .     A
C1585  O1631   1.311   .     A
C1586  H1619   1.084   .     S
C1586  C1588   1.399   .     A
C1587  C1608   1.399   .     A
C1587  C1607   1.417   .     A
C1587  C1596   1.463   .     S
C1588  C1606   1.417   .     A
C1589  N1628   1.382   .     A
C1589  N1629   1.424   .     S
C1590  N1627   1.382   .     A
C1590  N1630   1.424   .     S
C1590  C404    1.430   1_556 S
C1591  N1627   1.371   .     A
C1591  C1600   1.478   .     S
C1591  C401    1.430   1_556 S
C1592  C1601   1.478   .     S
C1592  N1628   1.371   .     A
C1593  O1632   1.398   .     S
C1593  C1670   1.508   .     S
C1593  O1716   1.223   .     S
C1594  O1634   1.398   .     S
C1594  C1737   1.508   1_455 S
C1594  O1765   1.223   1_455 S
C1595  O1636   1.398   .     S
C1595  O1635   1.223   .     D
C1595  C1606   1.477   .     S
C1596  O1645   1.301   .     A
C1596  O1642   1.311   .     A
C1597  O1637   1.223   .     D
C1597  C1607   1.477   .     S
C1597  O1638   1.398   .     S
C1598  H1625   1.110   .     S
C1598  N1629   1.449   .     S
C1598  H1612   1.106   .     S
C1599  H1615   1.106   .     S
C1599  H1614   1.110   .     S
C1599  N1630   1.449   .     S
C1599  H428    1.107   1_556 S
C1600  O1640   1.396   .     S
C1600  O1639   1.221   .     D
C1601  O1643   1.396   .     S
C1601  O1641   1.221   .     D
C1602  C1604   1.443   .     S
C1602  O1648   1.312   .     A
C1602  O1646   1.284   .     A
C1603  C1605   1.443   .     S
C1603  O1649   1.312   .     A
C1603  O1647   1.284   .     A
C1604  C1725   1.508   1_455 S
C1604  C1737   1.367   1_455 S
C1605  C1670   1.367   .     S
C1605  C1660   1.508   .     S
C1607  C1190   1.386   1_565 S
C1608  H1611   1.084   .     S
C1608  C1210   1.386   1_565 S
Cu1609 O1646   1.973   .     S
Cu1609 O1631   1.970   .     S
Cu1609 N1627   2.043   .     S
Cu1609 O1645   1.982   .     S
Cu1609 O1649   1.964   .     S
Cu1609 Cu1610  2.719   .     S
Cu1610 O1647   1.973   .     S
Cu1610 N1628   2.043   .     S
Cu1610 O1642   1.970   .     S
Cu1610 O1644   1.982   .     S
Cu1610 O1648   1.964   .     S
H1613  N1630   1.020   .     S
H1617  O1640   1.014   .     S
H1618  O1643   1.014   .     S
H1620  O1632   1.014   .     S
H1621  O1634   1.014   .     S
H1622  O1636   1.013   .     S
H1623  O1638   1.013   .     S
H1624  N1629   1.020   .     S
H1626  C410    1.107   1_556 S
O1633  C1660   1.223   .     S
O1650  C1725   1.223   1_455 S
C1651  C1654   1.463   .     S
C1651  O1710   1.301   .     A
C1651  O1697   1.311   .     A
C1652  H1685   1.084   .     S
C1652  C1654   1.399   .     A
C1653  C1674   1.399   .     A
C1653  C1673   1.417   .     A
C1653  C1662   1.463   .     S
C1654  C1672   1.417   .     A
C1655  N1694   1.382   .     A
C1655  N1695   1.424   .     S
C1656  N1693   1.382   .     A
C1656  N1696   1.424   .     S
C1656  C470    1.430   1_556 S
C1657  N1693   1.371   .     A
C1657  C1666   1.478   .     S
C1657  C467    1.430   1_556 S
C1658  C1667   1.478   .     S
C1658  N1694   1.371   .     A
C1659  O1698   1.398   .     S
C1659  C1736   1.508   .     S
C1659  O1782   1.223   .     S
C1660  O1700   1.398   .     S
C1661  O1702   1.398   .     S
C1661  O1701   1.223   .     D
C1661  C1672   1.477   .     S
C1662  O1711   1.301   .     A
C1662  O1708   1.311   .     A
C1663  O1703   1.223   .     D
C1663  C1673   1.477   .     S
C1663  O1704   1.398   .     S
C1664  H1691   1.110   .     S
C1664  N1695   1.449   .     S
C1664  H1678   1.106   .     S
C1665  H1681   1.106   .     S
C1665  H1680   1.110   .     S
C1665  N1696   1.449   .     S
C1665  H494    1.107   1_556 S
C1666  O1706   1.396   .     S
C1666  O1705   1.221   .     D
C1667  O1709   1.396   .     S
C1667  O1707   1.221   .     D
C1668  C1670   1.443   .     S
C1668  O1714   1.312   .     A
C1668  O1712   1.284   .     A
C1669  C1671   1.443   .     S
C1669  O1715   1.312   .     A
C1669  O1713   1.284   .     A
C1671  C1736   1.367   .     S
C1671  C1726   1.508   .     S
C1673  C1256   1.386   1_565 S
C1674  H1677   1.084   .     S
C1674  C1276   1.386   1_565 S
Cu1675 O1712   1.973   .     S
Cu1675 O1697   1.970   .     S
Cu1675 N1693   2.043   .     S
Cu1675 O1711   1.982   .     S
Cu1675 O1715   1.964   .     S
Cu1675 Cu1676  2.719   .     S
Cu1676 O1713   1.973   .     S
Cu1676 N1694   2.043   .     S
Cu1676 O1708   1.970   .     S
Cu1676 O1710   1.982   .     S
Cu1676 O1714   1.964   .     S
H1679  N1696   1.020   .     S
H1683  O1706   1.014   .     S
H1684  O1709   1.014   .     S
H1686  O1698   1.014   .     S
H1687  O1700   1.014   .     S
H1688  O1702   1.013   .     S
H1689  O1704   1.013   .     S
H1690  N1695   1.020   .     S
H1692  C476    1.107   1_556 S
O1699  C1726   1.223   .     S
C1717  C1720   1.463   .     S
C1717  O1776   1.301   .     A
C1717  O1763   1.311   .     A
C1718  H1751   1.084   .     S
C1718  C1720   1.399   .     A
C1719  C1740   1.399   .     A
C1719  C1739   1.417   .     A
C1719  C1728   1.463   .     S
C1720  C1738   1.417   .     A
C1721  N1760   1.382   .     A
C1721  N1761   1.424   .     S
C1722  N1759   1.382   .     A
C1722  N1762   1.424   .     S
C1722  C536    1.430   1_556 S
C1723  N1759   1.371   .     A
C1723  C1732   1.478   .     S
C1723  C533    1.430   1_556 S
C1724  C1733   1.478   .     S
C1724  N1760   1.371   .     A
C1725  O1764   1.398   .     S
C1725  C1604   1.508   1_655 S
C1725  O1650   1.223   1_655 S
C1726  O1766   1.398   .     S
C1727  O1768   1.398   .     S
C1727  O1767   1.223   .     D
C1727  C1738   1.477   .     S
C1728  O1777   1.301   .     A
C1728  O1774   1.311   .     A
C1729  O1769   1.223   .     D
C1729  C1739   1.477   .     S
C1729  O1770   1.398   .     S
C1730  H1757   1.110   .     S
C1730  N1761   1.449   .     S
C1730  H1744   1.106   .     S
C1731  H1747   1.106   .     S
C1731  H1746   1.110   .     S
C1731  N1762   1.449   .     S
C1731  H560    1.107   1_556 S
C1732  O1772   1.396   .     S
C1732  O1771   1.221   .     D
C1733  O1775   1.396   .     S
C1733  O1773   1.221   .     D
C1734  C1736   1.443   .     S
C1734  O1780   1.312   .     A
C1734  O1778   1.284   .     A
C1735  C1737   1.443   .     S
C1735  O1781   1.312   .     A
C1735  O1779   1.284   .     A
C1737  C1604   1.367   1_655 S
C1737  C1594   1.508   1_655 S
C1739  C1322   1.386   1_565 S
C1740  H1743   1.084   .     S
C1740  C1342   1.386   1_565 S
Cu1741 O1778   1.973   .     S
Cu1741 O1763   1.970   .     S
Cu1741 N1759   2.043   .     S
Cu1741 O1777   1.982   .     S
Cu1741 O1781   1.964   .     S
Cu1741 Cu1742  2.719   .     S
Cu1742 O1779   1.973   .     S
Cu1742 N1760   2.043   .     S
Cu1742 O1774   1.970   .     S
Cu1742 O1776   1.982   .     S
Cu1742 O1780   1.964   .     S
H1745  N1762   1.020   .     S
H1749  O1772   1.014   .     S
H1750  O1775   1.014   .     S
H1752  O1764   1.014   .     S
H1753  O1766   1.014   .     S
H1754  O1768   1.013   .     S
H1755  O1770   1.013   .     S
H1756  N1761   1.020   .     S
H1758  C542    1.107   1_556 S
O1765  C1594   1.223   1_655 S
