data_str_m2_o1_o2_pcu_sym.24
_audit_creation_date              2020-01-03
_audit_creation_method            'Materials Studio'
_symmetry_space_group_name_H-M    'P1'
_symmetry_Int_Tables_number       1
_symmetry_cell_setting            triclinic
loop_
_symmetry_equiv_pos_as_xyz
  x,y,z
_cell_length_a                    32.5022
_cell_length_b                    28.5116
_cell_length_c                    30.3310
_cell_angle_alpha                 89.8487
_cell_angle_beta                  90.1943
_cell_angle_gamma                 90.0000
loop_
_atom_site_label
_atom_site_type_symbol
_atom_site_fract_x
_atom_site_fract_y
_atom_site_fract_z
_atom_site_U_iso_or_equiv
_atom_site_adp_type
_atom_site_occupancy
C1     C     0.08734   0.16667   0.24999   0.00000  Uiso   1.00
C2     C     0.31205   0.20929   0.25006   0.00000  Uiso   1.00
C3     C     0.31205   0.12404   0.25008   0.00000  Uiso   1.00
C4     C     0.02128   0.20929   0.25000   0.00000  Uiso   1.00
C5     C     0.15083   0.20547   0.04683   0.00000  Uiso   1.00
C6     C     0.14697   0.13067   0.45332   0.00000  Uiso   1.00
C7     C     0.18538   0.20340   0.45279   0.00000  Uiso   1.00
C8     C     0.18273   0.12876   0.04682   0.00000  Uiso   1.00
C9     C     0.15041   0.20552   0.09279   0.00000  Uiso   1.00
C10    C     0.14653   0.12993   0.40748   0.00000  Uiso   1.00
C11    C     0.18595   0.20315   0.40681   0.00000  Uiso   1.00
C12    C     0.24600   0.16667   0.25004   0.00000  Uiso   1.00
C13    C     0.18365   0.12838   0.09289   0.00000  Uiso   1.00
C14    C     0.16699   0.16690   0.11632   0.00000  Uiso   1.00
C15    C     0.16637   0.16636   0.38358   0.00000  Uiso   1.00
C16    C     0.16662   0.16717   0.02398   0.00000  Uiso   1.00
C17    C     0.16625   0.16716   0.47592   0.00000  Uiso   1.00
C18    C     0.29060   0.16666   0.25007   0.00000  Uiso   1.00
C19    C     0.04273   0.16666   0.25001   0.00000  Uiso   1.00
C20    C     0.16675   0.16673   0.16485   0.00000  Uiso   1.00
C21    C     0.16647   0.16656   0.33511   0.00000  Uiso   1.00
C22    C     0.14053   0.02490   0.22315   0.00000  Uiso   1.00
C23    C     0.19283   0.30844   0.27682   0.00000  Uiso   1.00
C24    C     0.19280   0.02475   0.27686   0.00000  Uiso   1.00
C25    C     0.14050   0.30859   0.22319   0.00000  Uiso   1.00
C26    C     0.02128   0.12404   0.25005   0.00000  Uiso   1.00
Cu27   Cu    0.16667   0.21355   0.25000   0.00000  Uiso   1.00
Cu28   Cu    0.16667   0.11978   0.25000   0.00000  Uiso   1.00
H29    H     0.11960   0.04370   0.20166   0.00000  Uiso   1.00
H30    H     0.29604   0.24261   0.25007   0.00000  Uiso   1.00
H31    H     0.29604   0.09072   0.25010   0.00000  Uiso   1.00
H32    H     0.03729   0.24261   0.24996   0.00000  Uiso   1.00
H33    H     0.10158   0.24745   0.10482   0.00000  Uiso   1.00
H34    H     0.14769   0.27491   0.10594   0.00000  Uiso   1.00
H35    H     0.10356   0.10659   0.36390   0.00000  Uiso   1.00
H36    H     0.14558   0.07100   0.37000   0.00000  Uiso   1.00
H37    H     0.19441   0.27184   0.39293   0.00000  Uiso   1.00
H38    H     0.23805   0.23954   0.39452   0.00000  Uiso   1.00
H39    H     0.22974   0.10162   0.12979   0.00000  Uiso   1.00
H40    H     0.21381   0.28964   0.29825   0.00000  Uiso   1.00
H41    H     0.21022   0.06287   0.09384   0.00000  Uiso   1.00
H42    H     0.21370   0.04344   0.29837   0.00000  Uiso   1.00
H43    H     0.11951   0.28991   0.20177   0.00000  Uiso   1.00
H44    H     0.13800   0.23502   0.02890   0.00000  Uiso   1.00
H45    H     0.13173   0.10289   0.47147   0.00000  Uiso   1.00
H46    H     0.20063   0.23147   0.47051   0.00000  Uiso   1.00
H47    H     0.19539   0.09951   0.02858   0.00000  Uiso   1.00
H48    H     0.03730   0.09072   0.25005   0.00000  Uiso   1.00
N49    N     0.16667   0.28402   0.25000   0.00000  Uiso   1.00
N50    N     0.16667   0.04931   0.25000   0.00000  Uiso   1.00
N51    N     0.13214   0.24439   0.11532   0.00000  Uiso   1.00
N52    N     0.12462   0.09247   0.38644   0.00000  Uiso   1.00
N53    N     0.20741   0.23972   0.38392   0.00000  Uiso   1.00
N54    N     0.20227   0.08954   0.11583   0.00000  Uiso   1.00
O55    O     0.10655   0.20625   0.24999   0.00000  Uiso   1.00
O56    O     0.22679   0.12709   0.25000   0.00000  Uiso   1.00
O57    O     0.22679   0.20625   0.25000   0.00000  Uiso   1.00
O58    O     0.10655   0.12709   0.24999   0.00000  Uiso   1.00
O59    O     0.16666   0.20626   0.18573   0.00000  Uiso   1.00
O60    O     0.16667   0.12707   0.31427   0.00000  Uiso   1.00
O61    O     0.16667   0.20626   0.31427   0.00000  Uiso   1.00
O62    O     0.16666   0.12707   0.18573   0.00000  Uiso   1.00
C63    C     0.42067   0.16667   0.24999   0.00000  Uiso   1.00
C64    C     0.64538   0.20929   0.25006   0.00000  Uiso   1.00
C65    C     0.64539   0.12404   0.25008   0.00000  Uiso   1.00
C66    C     0.35462   0.20929   0.25000   0.00000  Uiso   1.00
C67    C     0.48416   0.20547   0.04683   0.00000  Uiso   1.00
C68    C     0.48031   0.13067   0.45332   0.00000  Uiso   1.00
C69    C     0.51872   0.20340   0.45279   0.00000  Uiso   1.00
C70    C     0.51607   0.12876   0.04682   0.00000  Uiso   1.00
C71    C     0.48375   0.20552   0.09279   0.00000  Uiso   1.00
C72    C     0.47987   0.12993   0.40748   0.00000  Uiso   1.00
C73    C     0.51928   0.20315   0.40681   0.00000  Uiso   1.00
C74    C     0.57933   0.16667   0.25004   0.00000  Uiso   1.00
C75    C     0.51698   0.12838   0.09289   0.00000  Uiso   1.00
C76    C     0.50032   0.16690   0.11632   0.00000  Uiso   1.00
C77    C     0.49970   0.16636   0.38358   0.00000  Uiso   1.00
C78    C     0.49996   0.16717   0.02398   0.00000  Uiso   1.00
C79    C     0.49958   0.16716   0.47592   0.00000  Uiso   1.00
C80    C     0.62393   0.16666   0.25007   0.00000  Uiso   1.00
C81    C     0.37607   0.16666   0.25001   0.00000  Uiso   1.00
C82    C     0.50008   0.16673   0.16485   0.00000  Uiso   1.00
C83    C     0.49980   0.16656   0.33511   0.00000  Uiso   1.00
C84    C     0.47386   0.02490   0.22315   0.00000  Uiso   1.00
C85    C     0.52616   0.30844   0.27682   0.00000  Uiso   1.00
C86    C     0.52613   0.02475   0.27686   0.00000  Uiso   1.00
C87    C     0.47383   0.30859   0.22319   0.00000  Uiso   1.00
C88    C     0.35462   0.12404   0.25005   0.00000  Uiso   1.00
Cu89   Cu    0.50000   0.21355   0.25000   0.00000  Uiso   1.00
Cu90   Cu    0.50000   0.11978   0.25000   0.00000  Uiso   1.00
H91    H     0.45294   0.04370   0.20166   0.00000  Uiso   1.00
H92    H     0.62937   0.24261   0.25007   0.00000  Uiso   1.00
H93    H     0.62937   0.09072   0.25010   0.00000  Uiso   1.00
H94    H     0.37063   0.24261   0.24996   0.00000  Uiso   1.00
H95    H     0.43491   0.24745   0.10482   0.00000  Uiso   1.00
H96    H     0.48102   0.27491   0.10594   0.00000  Uiso   1.00
H97    H     0.43689   0.10659   0.36390   0.00000  Uiso   1.00
H98    H     0.47891   0.07100   0.37000   0.00000  Uiso   1.00
H99    H     0.52775   0.27184   0.39293   0.00000  Uiso   1.00
H100   H     0.57139   0.23954   0.39452   0.00000  Uiso   1.00
H101   H     0.56307   0.10162   0.12979   0.00000  Uiso   1.00
H102   H     0.54714   0.28964   0.29825   0.00000  Uiso   1.00
H103   H     0.54356   0.06287   0.09384   0.00000  Uiso   1.00
H104   H     0.54704   0.04344   0.29837   0.00000  Uiso   1.00
H105   H     0.45284   0.28991   0.20177   0.00000  Uiso   1.00
H106   H     0.47133   0.23502   0.02890   0.00000  Uiso   1.00
H107   H     0.46507   0.10289   0.47147   0.00000  Uiso   1.00
H108   H     0.53396   0.23147   0.47051   0.00000  Uiso   1.00
H109   H     0.52872   0.09951   0.02858   0.00000  Uiso   1.00
H110   H     0.37063   0.09072   0.25005   0.00000  Uiso   1.00
N111   N     0.50000   0.28402   0.25000   0.00000  Uiso   1.00
N112   N     0.50000   0.04931   0.25000   0.00000  Uiso   1.00
N113   N     0.46547   0.24439   0.11532   0.00000  Uiso   1.00
N114   N     0.45795   0.09247   0.38644   0.00000  Uiso   1.00
N115   N     0.54075   0.23972   0.38392   0.00000  Uiso   1.00
N116   N     0.53560   0.08954   0.11583   0.00000  Uiso   1.00
O117   O     0.43988   0.20625   0.24999   0.00000  Uiso   1.00
O118   O     0.56012   0.12709   0.25000   0.00000  Uiso   1.00
O119   O     0.56012   0.20625   0.25000   0.00000  Uiso   1.00
O120   O     0.43988   0.12709   0.24999   0.00000  Uiso   1.00
O121   O     0.50000   0.20626   0.18573   0.00000  Uiso   1.00
O122   O     0.50000   0.12707   0.31427   0.00000  Uiso   1.00
O123   O     0.50000   0.20626   0.31427   0.00000  Uiso   1.00
O124   O     0.50000   0.12707   0.18573   0.00000  Uiso   1.00
C125   C     0.75401   0.16667   0.24999   0.00000  Uiso   1.00
C126   C     0.97872   0.20929   0.25006   0.00000  Uiso   1.00
C127   C     0.97872   0.12404   0.25008   0.00000  Uiso   1.00
C128   C     0.68795   0.20929   0.25000   0.00000  Uiso   1.00
C129   C     0.81750   0.20547   0.04683   0.00000  Uiso   1.00
C130   C     0.81364   0.13067   0.45332   0.00000  Uiso   1.00
C131   C     0.85205   0.20340   0.45279   0.00000  Uiso   1.00
C132   C     0.84940   0.12876   0.04682   0.00000  Uiso   1.00
C133   C     0.81708   0.20552   0.09279   0.00000  Uiso   1.00
C134   C     0.81320   0.12993   0.40748   0.00000  Uiso   1.00
C135   C     0.85262   0.20315   0.40681   0.00000  Uiso   1.00
C136   C     0.91266   0.16667   0.25004   0.00000  Uiso   1.00
C137   C     0.85032   0.12838   0.09289   0.00000  Uiso   1.00
C138   C     0.83365   0.16690   0.11632   0.00000  Uiso   1.00
C139   C     0.83303   0.16636   0.38358   0.00000  Uiso   1.00
C140   C     0.83329   0.16717   0.02398   0.00000  Uiso   1.00
C141   C     0.83292   0.16716   0.47592   0.00000  Uiso   1.00
C142   C     0.95727   0.16666   0.25007   0.00000  Uiso   1.00
C143   C     0.70940   0.16666   0.25001   0.00000  Uiso   1.00
C144   C     0.83342   0.16673   0.16485   0.00000  Uiso   1.00
C145   C     0.83314   0.16656   0.33511   0.00000  Uiso   1.00
C146   C     0.80719   0.02490   0.22315   0.00000  Uiso   1.00
C147   C     0.85950   0.30844   0.27682   0.00000  Uiso   1.00
C148   C     0.85947   0.02475   0.27686   0.00000  Uiso   1.00
C149   C     0.80716   0.30859   0.22319   0.00000  Uiso   1.00
C150   C     0.68795   0.12404   0.25005   0.00000  Uiso   1.00
Cu151  Cu    0.83333   0.21355   0.25000   0.00000  Uiso   1.00
Cu152  Cu    0.83333   0.11978   0.25000   0.00000  Uiso   1.00
H153   H     0.78627   0.04370   0.20166   0.00000  Uiso   1.00
H154   H     0.96271   0.24261   0.25007   0.00000  Uiso   1.00
H155   H     0.96271   0.09072   0.25010   0.00000  Uiso   1.00
H156   H     0.70396   0.24261   0.24996   0.00000  Uiso   1.00
H157   H     0.76824   0.24745   0.10482   0.00000  Uiso   1.00
H158   H     0.81436   0.27491   0.10594   0.00000  Uiso   1.00
H159   H     0.77022   0.10659   0.36390   0.00000  Uiso   1.00
H160   H     0.81225   0.07100   0.37000   0.00000  Uiso   1.00
H161   H     0.86108   0.27184   0.39293   0.00000  Uiso   1.00
H162   H     0.90472   0.23954   0.39452   0.00000  Uiso   1.00
H163   H     0.89640   0.10162   0.12979   0.00000  Uiso   1.00
H164   H     0.88048   0.28964   0.29825   0.00000  Uiso   1.00
H165   H     0.87689   0.06287   0.09384   0.00000  Uiso   1.00
H166   H     0.88037   0.04344   0.29837   0.00000  Uiso   1.00
H167   H     0.78618   0.28991   0.20177   0.00000  Uiso   1.00
H168   H     0.80467   0.23502   0.02890   0.00000  Uiso   1.00
H169   H     0.79840   0.10289   0.47147   0.00000  Uiso   1.00
H170   H     0.86730   0.23147   0.47051   0.00000  Uiso   1.00
H171   H     0.86206   0.09951   0.02858   0.00000  Uiso   1.00
H172   H     0.70396   0.09072   0.25005   0.00000  Uiso   1.00
N173   N     0.83333   0.28402   0.25000   0.00000  Uiso   1.00
N174   N     0.83333   0.04931   0.25000   0.00000  Uiso   1.00
N175   N     0.79880   0.24439   0.11532   0.00000  Uiso   1.00
N176   N     0.79129   0.09247   0.38644   0.00000  Uiso   1.00
N177   N     0.87408   0.23972   0.38392   0.00000  Uiso   1.00
N178   N     0.86893   0.08954   0.11583   0.00000  Uiso   1.00
O179   O     0.77321   0.20625   0.24999   0.00000  Uiso   1.00
O180   O     0.89345   0.12709   0.25000   0.00000  Uiso   1.00
O181   O     0.89345   0.20625   0.25000   0.00000  Uiso   1.00
O182   O     0.77321   0.12709   0.24999   0.00000  Uiso   1.00
O183   O     0.83333   0.20626   0.18573   0.00000  Uiso   1.00
O184   O     0.83334   0.12707   0.31427   0.00000  Uiso   1.00
O185   O     0.83334   0.20626   0.31427   0.00000  Uiso   1.00
O186   O     0.83333   0.12707   0.18573   0.00000  Uiso   1.00
C187   C     0.08734   0.50000   0.24999   0.00000  Uiso   1.00
C188   C     0.31205   0.54262   0.25006   0.00000  Uiso   1.00
C189   C     0.31205   0.45737   0.25008   0.00000  Uiso   1.00
C190   C     0.02128   0.54262   0.25000   0.00000  Uiso   1.00
C191   C     0.15083   0.53881   0.04683   0.00000  Uiso   1.00
C192   C     0.14697   0.46401   0.45332   0.00000  Uiso   1.00
C193   C     0.18538   0.53673   0.45279   0.00000  Uiso   1.00
C194   C     0.18273   0.46210   0.04682   0.00000  Uiso   1.00
C195   C     0.15041   0.53886   0.09279   0.00000  Uiso   1.00
C196   C     0.14653   0.46326   0.40748   0.00000  Uiso   1.00
C197   C     0.18595   0.53648   0.40681   0.00000  Uiso   1.00
C198   C     0.24600   0.50000   0.25004   0.00000  Uiso   1.00
C199   C     0.18365   0.46172   0.09289   0.00000  Uiso   1.00
C200   C     0.16699   0.50024   0.11632   0.00000  Uiso   1.00
C201   C     0.16637   0.49970   0.38358   0.00000  Uiso   1.00
C202   C     0.16662   0.50050   0.02398   0.00000  Uiso   1.00
C203   C     0.16625   0.50049   0.47592   0.00000  Uiso   1.00
C204   C     0.29060   0.50000   0.25007   0.00000  Uiso   1.00
C205   C     0.04273   0.50000   0.25001   0.00000  Uiso   1.00
C206   C     0.16675   0.50006   0.16485   0.00000  Uiso   1.00
C207   C     0.16647   0.49989   0.33511   0.00000  Uiso   1.00
C208   C     0.14053   0.35823   0.22315   0.00000  Uiso   1.00
C209   C     0.19283   0.64177   0.27682   0.00000  Uiso   1.00
C210   C     0.19280   0.35809   0.27686   0.00000  Uiso   1.00
C211   C     0.14050   0.64192   0.22319   0.00000  Uiso   1.00
C212   C     0.02128   0.45737   0.25005   0.00000  Uiso   1.00
Cu213  Cu    0.16667   0.54689   0.25000   0.00000  Uiso   1.00
Cu214  Cu    0.16667   0.45311   0.25000   0.00000  Uiso   1.00
H215   H     0.11960   0.37704   0.20166   0.00000  Uiso   1.00
H216   H     0.29604   0.57594   0.25007   0.00000  Uiso   1.00
H217   H     0.29604   0.42405   0.25010   0.00000  Uiso   1.00
H218   H     0.03729   0.57595   0.24996   0.00000  Uiso   1.00
H219   H     0.10158   0.58078   0.10482   0.00000  Uiso   1.00
H220   H     0.14769   0.60824   0.10594   0.00000  Uiso   1.00
H221   H     0.10356   0.43993   0.36390   0.00000  Uiso   1.00
H222   H     0.14558   0.40433   0.37000   0.00000  Uiso   1.00
H223   H     0.19441   0.60517   0.39293   0.00000  Uiso   1.00
H224   H     0.23805   0.57288   0.39452   0.00000  Uiso   1.00
H225   H     0.22974   0.43495   0.12979   0.00000  Uiso   1.00
H226   H     0.21381   0.62298   0.29825   0.00000  Uiso   1.00
H227   H     0.21022   0.39620   0.09384   0.00000  Uiso   1.00
H228   H     0.21370   0.37677   0.29837   0.00000  Uiso   1.00
H229   H     0.11951   0.62324   0.20177   0.00000  Uiso   1.00
H230   H     0.13800   0.56836   0.02890   0.00000  Uiso   1.00
H231   H     0.13173   0.43622   0.47147   0.00000  Uiso   1.00
H232   H     0.20063   0.56480   0.47051   0.00000  Uiso   1.00
H233   H     0.19539   0.43284   0.02858   0.00000  Uiso   1.00
H234   H     0.03730   0.42405   0.25005   0.00000  Uiso   1.00
N235   N     0.16667   0.61736   0.25000   0.00000  Uiso   1.00
N236   N     0.16667   0.38264   0.25000   0.00000  Uiso   1.00
N237   N     0.13214   0.57772   0.11532   0.00000  Uiso   1.00
N238   N     0.12462   0.42580   0.38644   0.00000  Uiso   1.00
N239   N     0.20741   0.57306   0.38392   0.00000  Uiso   1.00
N240   N     0.20227   0.42287   0.11583   0.00000  Uiso   1.00
O241   O     0.10655   0.53958   0.24999   0.00000  Uiso   1.00
O242   O     0.22679   0.46042   0.25000   0.00000  Uiso   1.00
O243   O     0.22679   0.53958   0.25000   0.00000  Uiso   1.00
O244   O     0.10655   0.46042   0.24999   0.00000  Uiso   1.00
O245   O     0.16666   0.53959   0.18573   0.00000  Uiso   1.00
O246   O     0.16667   0.46041   0.31427   0.00000  Uiso   1.00
O247   O     0.16667   0.53959   0.31427   0.00000  Uiso   1.00
O248   O     0.16666   0.46041   0.18573   0.00000  Uiso   1.00
C249   C     0.42067   0.50000   0.24999   0.00000  Uiso   1.00
C250   C     0.64538   0.54262   0.25006   0.00000  Uiso   1.00
C251   C     0.64539   0.45737   0.25008   0.00000  Uiso   1.00
C252   C     0.35462   0.54262   0.25000   0.00000  Uiso   1.00
C253   C     0.48416   0.53881   0.04683   0.00000  Uiso   1.00
C254   C     0.48031   0.46401   0.45332   0.00000  Uiso   1.00
C255   C     0.51872   0.53673   0.45279   0.00000  Uiso   1.00
C256   C     0.51607   0.46210   0.04682   0.00000  Uiso   1.00
C257   C     0.48375   0.53886   0.09279   0.00000  Uiso   1.00
C258   C     0.47987   0.46326   0.40748   0.00000  Uiso   1.00
C259   C     0.51928   0.53648   0.40681   0.00000  Uiso   1.00
C260   C     0.57933   0.50000   0.25004   0.00000  Uiso   1.00
C261   C     0.51698   0.46172   0.09289   0.00000  Uiso   1.00
C262   C     0.50032   0.50024   0.11632   0.00000  Uiso   1.00
C263   C     0.49970   0.49970   0.38358   0.00000  Uiso   1.00
C264   C     0.49996   0.50050   0.02398   0.00000  Uiso   1.00
C265   C     0.49958   0.50049   0.47592   0.00000  Uiso   1.00
C266   C     0.62393   0.50000   0.25007   0.00000  Uiso   1.00
C267   C     0.37607   0.50000   0.25001   0.00000  Uiso   1.00
C268   C     0.50008   0.50006   0.16485   0.00000  Uiso   1.00
C269   C     0.49980   0.49989   0.33511   0.00000  Uiso   1.00
C270   C     0.47386   0.35823   0.22315   0.00000  Uiso   1.00
C271   C     0.52616   0.64177   0.27682   0.00000  Uiso   1.00
C272   C     0.52613   0.35809   0.27686   0.00000  Uiso   1.00
C273   C     0.47383   0.64192   0.22319   0.00000  Uiso   1.00
C274   C     0.35462   0.45737   0.25005   0.00000  Uiso   1.00
Cu275  Cu    0.50000   0.54689   0.25000   0.00000  Uiso   1.00
Cu276  Cu    0.50000   0.45311   0.25000   0.00000  Uiso   1.00
H277   H     0.45294   0.37704   0.20166   0.00000  Uiso   1.00
H278   H     0.62937   0.57594   0.25007   0.00000  Uiso   1.00
H279   H     0.62937   0.42405   0.25010   0.00000  Uiso   1.00
H280   H     0.37063   0.57595   0.24996   0.00000  Uiso   1.00
H281   H     0.43491   0.58078   0.10482   0.00000  Uiso   1.00
H282   H     0.48102   0.60824   0.10594   0.00000  Uiso   1.00
H283   H     0.43689   0.43993   0.36390   0.00000  Uiso   1.00
H284   H     0.47891   0.40433   0.37000   0.00000  Uiso   1.00
H285   H     0.52775   0.60517   0.39293   0.00000  Uiso   1.00
H286   H     0.57139   0.57288   0.39452   0.00000  Uiso   1.00
H287   H     0.56307   0.43495   0.12979   0.00000  Uiso   1.00
H288   H     0.54714   0.62298   0.29825   0.00000  Uiso   1.00
H289   H     0.54356   0.39620   0.09384   0.00000  Uiso   1.00
H290   H     0.54704   0.37677   0.29837   0.00000  Uiso   1.00
H291   H     0.45284   0.62324   0.20177   0.00000  Uiso   1.00
H292   H     0.47133   0.56836   0.02890   0.00000  Uiso   1.00
H293   H     0.46507   0.43622   0.47147   0.00000  Uiso   1.00
H294   H     0.53396   0.56480   0.47051   0.00000  Uiso   1.00
H295   H     0.52872   0.43284   0.02858   0.00000  Uiso   1.00
H296   H     0.37063   0.42405   0.25005   0.00000  Uiso   1.00
N297   N     0.50000   0.61736   0.25000   0.00000  Uiso   1.00
N298   N     0.50000   0.38264   0.25000   0.00000  Uiso   1.00
N299   N     0.46547   0.57772   0.11532   0.00000  Uiso   1.00
N300   N     0.45795   0.42580   0.38644   0.00000  Uiso   1.00
N301   N     0.54075   0.57306   0.38392   0.00000  Uiso   1.00
N302   N     0.53560   0.42287   0.11583   0.00000  Uiso   1.00
O303   O     0.43988   0.53958   0.24999   0.00000  Uiso   1.00
O304   O     0.56012   0.46042   0.25000   0.00000  Uiso   1.00
O305   O     0.56012   0.53958   0.25000   0.00000  Uiso   1.00
O306   O     0.43988   0.46042   0.24999   0.00000  Uiso   1.00
O307   O     0.50000   0.53959   0.18573   0.00000  Uiso   1.00
O308   O     0.50000   0.46041   0.31427   0.00000  Uiso   1.00
O309   O     0.50000   0.53959   0.31427   0.00000  Uiso   1.00
O310   O     0.50000   0.46041   0.18573   0.00000  Uiso   1.00
C311   C     0.75401   0.50000   0.24999   0.00000  Uiso   1.00
C312   C     0.97872   0.54262   0.25006   0.00000  Uiso   1.00
C313   C     0.97872   0.45737   0.25008   0.00000  Uiso   1.00
C314   C     0.68795   0.54262   0.25000   0.00000  Uiso   1.00
C315   C     0.81750   0.53881   0.04683   0.00000  Uiso   1.00
C316   C     0.81364   0.46401   0.45332   0.00000  Uiso   1.00
C317   C     0.85205   0.53673   0.45279   0.00000  Uiso   1.00
C318   C     0.84940   0.46210   0.04682   0.00000  Uiso   1.00
C319   C     0.81708   0.53886   0.09279   0.00000  Uiso   1.00
C320   C     0.81320   0.46326   0.40748   0.00000  Uiso   1.00
C321   C     0.85262   0.53648   0.40681   0.00000  Uiso   1.00
C322   C     0.91266   0.50000   0.25004   0.00000  Uiso   1.00
C323   C     0.85032   0.46172   0.09289   0.00000  Uiso   1.00
C324   C     0.83365   0.50024   0.11632   0.00000  Uiso   1.00
C325   C     0.83303   0.49970   0.38358   0.00000  Uiso   1.00
C326   C     0.83329   0.50050   0.02398   0.00000  Uiso   1.00
C327   C     0.83292   0.50049   0.47592   0.00000  Uiso   1.00
C328   C     0.95727   0.50000   0.25007   0.00000  Uiso   1.00
C329   C     0.70940   0.50000   0.25001   0.00000  Uiso   1.00
C330   C     0.83342   0.50006   0.16485   0.00000  Uiso   1.00
C331   C     0.83314   0.49989   0.33511   0.00000  Uiso   1.00
C332   C     0.80719   0.35823   0.22315   0.00000  Uiso   1.00
C333   C     0.85950   0.64177   0.27682   0.00000  Uiso   1.00
C334   C     0.85947   0.35809   0.27686   0.00000  Uiso   1.00
C335   C     0.80716   0.64192   0.22319   0.00000  Uiso   1.00
C336   C     0.68795   0.45737   0.25005   0.00000  Uiso   1.00
Cu337  Cu    0.83333   0.54689   0.25000   0.00000  Uiso   1.00
Cu338  Cu    0.83333   0.45311   0.25000   0.00000  Uiso   1.00
H339   H     0.78627   0.37704   0.20166   0.00000  Uiso   1.00
H340   H     0.96271   0.57594   0.25007   0.00000  Uiso   1.00
H341   H     0.96271   0.42405   0.25010   0.00000  Uiso   1.00
H342   H     0.70396   0.57595   0.24996   0.00000  Uiso   1.00
H343   H     0.76824   0.58078   0.10482   0.00000  Uiso   1.00
H344   H     0.81436   0.60824   0.10594   0.00000  Uiso   1.00
H345   H     0.77022   0.43993   0.36390   0.00000  Uiso   1.00
H346   H     0.81225   0.40433   0.37000   0.00000  Uiso   1.00
H347   H     0.86108   0.60517   0.39293   0.00000  Uiso   1.00
H348   H     0.90472   0.57288   0.39452   0.00000  Uiso   1.00
H349   H     0.89640   0.43495   0.12979   0.00000  Uiso   1.00
H350   H     0.88048   0.62298   0.29825   0.00000  Uiso   1.00
H351   H     0.87689   0.39620   0.09384   0.00000  Uiso   1.00
H352   H     0.88037   0.37677   0.29837   0.00000  Uiso   1.00
H353   H     0.78618   0.62324   0.20177   0.00000  Uiso   1.00
H354   H     0.80467   0.56836   0.02890   0.00000  Uiso   1.00
H355   H     0.79840   0.43622   0.47147   0.00000  Uiso   1.00
H356   H     0.86730   0.56480   0.47051   0.00000  Uiso   1.00
H357   H     0.86206   0.43284   0.02858   0.00000  Uiso   1.00
H358   H     0.70396   0.42405   0.25005   0.00000  Uiso   1.00
N359   N     0.83333   0.61736   0.25000   0.00000  Uiso   1.00
N360   N     0.83333   0.38264   0.25000   0.00000  Uiso   1.00
N361   N     0.79880   0.57772   0.11532   0.00000  Uiso   1.00
N362   N     0.79129   0.42580   0.38644   0.00000  Uiso   1.00
N363   N     0.87408   0.57306   0.38392   0.00000  Uiso   1.00
N364   N     0.86893   0.42287   0.11583   0.00000  Uiso   1.00
O365   O     0.77321   0.53958   0.24999   0.00000  Uiso   1.00
O366   O     0.89345   0.46042   0.25000   0.00000  Uiso   1.00
O367   O     0.89345   0.53958   0.25000   0.00000  Uiso   1.00
O368   O     0.77321   0.46042   0.24999   0.00000  Uiso   1.00
O369   O     0.83333   0.53959   0.18573   0.00000  Uiso   1.00
O370   O     0.83334   0.46041   0.31427   0.00000  Uiso   1.00
O371   O     0.83334   0.53959   0.31427   0.00000  Uiso   1.00
O372   O     0.83333   0.46041   0.18573   0.00000  Uiso   1.00
C373   C     0.08734   0.83333   0.24999   0.00000  Uiso   1.00
C374   C     0.31205   0.87596   0.25006   0.00000  Uiso   1.00
C375   C     0.31205   0.79071   0.25008   0.00000  Uiso   1.00
C376   C     0.02128   0.87596   0.25000   0.00000  Uiso   1.00
C377   C     0.15083   0.87214   0.04683   0.00000  Uiso   1.00
C378   C     0.14697   0.79734   0.45332   0.00000  Uiso   1.00
C379   C     0.18538   0.87007   0.45279   0.00000  Uiso   1.00
C380   C     0.18273   0.79543   0.04682   0.00000  Uiso   1.00
C381   C     0.15041   0.87219   0.09279   0.00000  Uiso   1.00
C382   C     0.14653   0.79659   0.40748   0.00000  Uiso   1.00
C383   C     0.18595   0.86982   0.40681   0.00000  Uiso   1.00
C384   C     0.24600   0.83333   0.25004   0.00000  Uiso   1.00
C385   C     0.18365   0.79505   0.09289   0.00000  Uiso   1.00
C386   C     0.16699   0.83357   0.11632   0.00000  Uiso   1.00
C387   C     0.16637   0.83303   0.38358   0.00000  Uiso   1.00
C388   C     0.16662   0.83383   0.02398   0.00000  Uiso   1.00
C389   C     0.16625   0.83383   0.47592   0.00000  Uiso   1.00
C390   C     0.29060   0.83333   0.25007   0.00000  Uiso   1.00
C391   C     0.04273   0.83333   0.25001   0.00000  Uiso   1.00
C392   C     0.16675   0.83340   0.16485   0.00000  Uiso   1.00
C393   C     0.16647   0.83322   0.33511   0.00000  Uiso   1.00
C394   C     0.14053   0.69157   0.22315   0.00000  Uiso   1.00
C395   C     0.19283   0.97511   0.27682   0.00000  Uiso   1.00
C396   C     0.19280   0.69142   0.27686   0.00000  Uiso   1.00
C397   C     0.14050   0.97525   0.22319   0.00000  Uiso   1.00
C398   C     0.02128   0.79071   0.25005   0.00000  Uiso   1.00
Cu399  Cu    0.16667   0.88022   0.25000   0.00000  Uiso   1.00
Cu400  Cu    0.16667   0.78645   0.25000   0.00000  Uiso   1.00
H401   H     0.11960   0.71037   0.20166   0.00000  Uiso   1.00
H402   H     0.29604   0.90928   0.25007   0.00000  Uiso   1.00
H403   H     0.29604   0.75738   0.25010   0.00000  Uiso   1.00
H404   H     0.03729   0.90928   0.24996   0.00000  Uiso   1.00
H405   H     0.10158   0.91412   0.10482   0.00000  Uiso   1.00
H406   H     0.14769   0.94158   0.10594   0.00000  Uiso   1.00
H407   H     0.10356   0.77326   0.36390   0.00000  Uiso   1.00
H408   H     0.14558   0.73767   0.37000   0.00000  Uiso   1.00
H409   H     0.19441   0.93850   0.39293   0.00000  Uiso   1.00
H410   H     0.23805   0.90621   0.39452   0.00000  Uiso   1.00
H411   H     0.22974   0.76829   0.12979   0.00000  Uiso   1.00
H412   H     0.21381   0.95631   0.29825   0.00000  Uiso   1.00
H413   H     0.21022   0.72954   0.09384   0.00000  Uiso   1.00
H414   H     0.21370   0.71011   0.29837   0.00000  Uiso   1.00
H415   H     0.11951   0.95658   0.20177   0.00000  Uiso   1.00
H416   H     0.13800   0.90169   0.02890   0.00000  Uiso   1.00
H417   H     0.13173   0.76956   0.47147   0.00000  Uiso   1.00
H418   H     0.20063   0.89814   0.47051   0.00000  Uiso   1.00
H419   H     0.19539   0.76618   0.02858   0.00000  Uiso   1.00
H420   H     0.03730   0.75738   0.25005   0.00000  Uiso   1.00
N421   N     0.16667   0.95069   0.25000   0.00000  Uiso   1.00
N422   N     0.16667   0.71598   0.25000   0.00000  Uiso   1.00
N423   N     0.13214   0.91106   0.11532   0.00000  Uiso   1.00
N424   N     0.12462   0.75914   0.38644   0.00000  Uiso   1.00
N425   N     0.20741   0.90639   0.38392   0.00000  Uiso   1.00
N426   N     0.20227   0.75621   0.11583   0.00000  Uiso   1.00
O427   O     0.10655   0.87291   0.24999   0.00000  Uiso   1.00
O428   O     0.22679   0.79375   0.25000   0.00000  Uiso   1.00
O429   O     0.22679   0.87291   0.25000   0.00000  Uiso   1.00
O430   O     0.10655   0.79375   0.24999   0.00000  Uiso   1.00
O431   O     0.16666   0.87293   0.18573   0.00000  Uiso   1.00
O432   O     0.16667   0.79374   0.31427   0.00000  Uiso   1.00
O433   O     0.16667   0.87293   0.31427   0.00000  Uiso   1.00
O434   O     0.16666   0.79374   0.18573   0.00000  Uiso   1.00
C435   C     0.42067   0.83333   0.24999   0.00000  Uiso   1.00
C436   C     0.64538   0.87596   0.25006   0.00000  Uiso   1.00
C437   C     0.64539   0.79071   0.25008   0.00000  Uiso   1.00
C438   C     0.35462   0.87596   0.25000   0.00000  Uiso   1.00
C439   C     0.48416   0.87214   0.04683   0.00000  Uiso   1.00
C440   C     0.48031   0.79734   0.45332   0.00000  Uiso   1.00
C441   C     0.51872   0.87007   0.45279   0.00000  Uiso   1.00
C442   C     0.51607   0.79543   0.04682   0.00000  Uiso   1.00
C443   C     0.48375   0.87219   0.09279   0.00000  Uiso   1.00
C444   C     0.47987   0.79659   0.40748   0.00000  Uiso   1.00
C445   C     0.51928   0.86982   0.40681   0.00000  Uiso   1.00
C446   C     0.57933   0.83333   0.25004   0.00000  Uiso   1.00
C447   C     0.51698   0.79505   0.09289   0.00000  Uiso   1.00
C448   C     0.50032   0.83357   0.11632   0.00000  Uiso   1.00
C449   C     0.49970   0.83303   0.38358   0.00000  Uiso   1.00
C450   C     0.49996   0.83383   0.02398   0.00000  Uiso   1.00
C451   C     0.49958   0.83383   0.47592   0.00000  Uiso   1.00
C452   C     0.62393   0.83333   0.25007   0.00000  Uiso   1.00
C453   C     0.37607   0.83333   0.25001   0.00000  Uiso   1.00
C454   C     0.50008   0.83340   0.16485   0.00000  Uiso   1.00
C455   C     0.49980   0.83322   0.33511   0.00000  Uiso   1.00
C456   C     0.47386   0.69157   0.22315   0.00000  Uiso   1.00
C457   C     0.52616   0.97511   0.27682   0.00000  Uiso   1.00
C458   C     0.52613   0.69142   0.27686   0.00000  Uiso   1.00
C459   C     0.47383   0.97525   0.22319   0.00000  Uiso   1.00
C460   C     0.35462   0.79071   0.25005   0.00000  Uiso   1.00
Cu461  Cu    0.50000   0.88022   0.25000   0.00000  Uiso   1.00
Cu462  Cu    0.50000   0.78645   0.25000   0.00000  Uiso   1.00
H463   H     0.45294   0.71037   0.20166   0.00000  Uiso   1.00
H464   H     0.62937   0.90928   0.25007   0.00000  Uiso   1.00
H465   H     0.62937   0.75738   0.25010   0.00000  Uiso   1.00
H466   H     0.37063   0.90928   0.24996   0.00000  Uiso   1.00
H467   H     0.43491   0.91412   0.10482   0.00000  Uiso   1.00
H468   H     0.48102   0.94158   0.10594   0.00000  Uiso   1.00
H469   H     0.43689   0.77326   0.36390   0.00000  Uiso   1.00
H470   H     0.47891   0.73767   0.37000   0.00000  Uiso   1.00
H471   H     0.52775   0.93850   0.39293   0.00000  Uiso   1.00
H472   H     0.57139   0.90621   0.39452   0.00000  Uiso   1.00
H473   H     0.56307   0.76829   0.12979   0.00000  Uiso   1.00
H474   H     0.54714   0.95631   0.29825   0.00000  Uiso   1.00
H475   H     0.54356   0.72954   0.09384   0.00000  Uiso   1.00
H476   H     0.54704   0.71011   0.29837   0.00000  Uiso   1.00
H477   H     0.45284   0.95658   0.20177   0.00000  Uiso   1.00
H478   H     0.47133   0.90169   0.02890   0.00000  Uiso   1.00
H479   H     0.46507   0.76956   0.47147   0.00000  Uiso   1.00
H480   H     0.53396   0.89814   0.47051   0.00000  Uiso   1.00
H481   H     0.52872   0.76618   0.02858   0.00000  Uiso   1.00
H482   H     0.37063   0.75738   0.25005   0.00000  Uiso   1.00
N483   N     0.50000   0.95069   0.25000   0.00000  Uiso   1.00
N484   N     0.50000   0.71598   0.25000   0.00000  Uiso   1.00
N485   N     0.46547   0.91106   0.11532   0.00000  Uiso   1.00
N486   N     0.45795   0.75914   0.38644   0.00000  Uiso   1.00
N487   N     0.54075   0.90639   0.38392   0.00000  Uiso   1.00
N488   N     0.53560   0.75621   0.11583   0.00000  Uiso   1.00
O489   O     0.43988   0.87291   0.24999   0.00000  Uiso   1.00
O490   O     0.56012   0.79375   0.25000   0.00000  Uiso   1.00
O491   O     0.56012   0.87291   0.25000   0.00000  Uiso   1.00
O492   O     0.43988   0.79375   0.24999   0.00000  Uiso   1.00
O493   O     0.50000   0.87293   0.18573   0.00000  Uiso   1.00
O494   O     0.50000   0.79374   0.31427   0.00000  Uiso   1.00
O495   O     0.50000   0.87293   0.31427   0.00000  Uiso   1.00
O496   O     0.50000   0.79374   0.18573   0.00000  Uiso   1.00
C497   C     0.75401   0.83333   0.24999   0.00000  Uiso   1.00
C498   C     0.97872   0.87596   0.25006   0.00000  Uiso   1.00
C499   C     0.97872   0.79071   0.25008   0.00000  Uiso   1.00
C500   C     0.68795   0.87596   0.25000   0.00000  Uiso   1.00
C501   C     0.81750   0.87214   0.04683   0.00000  Uiso   1.00
C502   C     0.81364   0.79734   0.45332   0.00000  Uiso   1.00
C503   C     0.85205   0.87007   0.45279   0.00000  Uiso   1.00
C504   C     0.84940   0.79543   0.04682   0.00000  Uiso   1.00
C505   C     0.81708   0.87219   0.09279   0.00000  Uiso   1.00
C506   C     0.81320   0.79659   0.40748   0.00000  Uiso   1.00
C507   C     0.85262   0.86982   0.40681   0.00000  Uiso   1.00
C508   C     0.91266   0.83333   0.25004   0.00000  Uiso   1.00
C509   C     0.85032   0.79505   0.09289   0.00000  Uiso   1.00
C510   C     0.83365   0.83357   0.11632   0.00000  Uiso   1.00
C511   C     0.83303   0.83303   0.38358   0.00000  Uiso   1.00
C512   C     0.83329   0.83383   0.02398   0.00000  Uiso   1.00
C513   C     0.83292   0.83383   0.47592   0.00000  Uiso   1.00
C514   C     0.95727   0.83333   0.25007   0.00000  Uiso   1.00
C515   C     0.70940   0.83333   0.25001   0.00000  Uiso   1.00
C516   C     0.83342   0.83340   0.16485   0.00000  Uiso   1.00
C517   C     0.83314   0.83322   0.33511   0.00000  Uiso   1.00
C518   C     0.80719   0.69157   0.22315   0.00000  Uiso   1.00
C519   C     0.85950   0.97511   0.27682   0.00000  Uiso   1.00
C520   C     0.85947   0.69142   0.27686   0.00000  Uiso   1.00
C521   C     0.80716   0.97525   0.22319   0.00000  Uiso   1.00
C522   C     0.68795   0.79071   0.25005   0.00000  Uiso   1.00
Cu523  Cu    0.83333   0.88022   0.25000   0.00000  Uiso   1.00
Cu524  Cu    0.83333   0.78645   0.25000   0.00000  Uiso   1.00
H525   H     0.78627   0.71037   0.20166   0.00000  Uiso   1.00
H526   H     0.96271   0.90928   0.25007   0.00000  Uiso   1.00
H527   H     0.96271   0.75738   0.25010   0.00000  Uiso   1.00
H528   H     0.70396   0.90928   0.24996   0.00000  Uiso   1.00
H529   H     0.76824   0.91412   0.10482   0.00000  Uiso   1.00
H530   H     0.81436   0.94158   0.10594   0.00000  Uiso   1.00
H531   H     0.77022   0.77326   0.36390   0.00000  Uiso   1.00
H532   H     0.81225   0.73767   0.37000   0.00000  Uiso   1.00
H533   H     0.86108   0.93850   0.39293   0.00000  Uiso   1.00
H534   H     0.90472   0.90621   0.39452   0.00000  Uiso   1.00
H535   H     0.89640   0.76829   0.12979   0.00000  Uiso   1.00
H536   H     0.88048   0.95631   0.29825   0.00000  Uiso   1.00
H537   H     0.87689   0.72954   0.09384   0.00000  Uiso   1.00
H538   H     0.88037   0.71011   0.29837   0.00000  Uiso   1.00
H539   H     0.78618   0.95658   0.20177   0.00000  Uiso   1.00
H540   H     0.80467   0.90169   0.02890   0.00000  Uiso   1.00
H541   H     0.79840   0.76956   0.47147   0.00000  Uiso   1.00
H542   H     0.86730   0.89814   0.47051   0.00000  Uiso   1.00
H543   H     0.86206   0.76618   0.02858   0.00000  Uiso   1.00
H544   H     0.70396   0.75738   0.25005   0.00000  Uiso   1.00
N545   N     0.83333   0.95069   0.25000   0.00000  Uiso   1.00
N546   N     0.83333   0.71598   0.25000   0.00000  Uiso   1.00
N547   N     0.79880   0.91106   0.11532   0.00000  Uiso   1.00
N548   N     0.79129   0.75914   0.38644   0.00000  Uiso   1.00
N549   N     0.87408   0.90639   0.38392   0.00000  Uiso   1.00
N550   N     0.86893   0.75621   0.11583   0.00000  Uiso   1.00
O551   O     0.77321   0.87291   0.24999   0.00000  Uiso   1.00
O552   O     0.89345   0.79375   0.25000   0.00000  Uiso   1.00
O553   O     0.89345   0.87291   0.25000   0.00000  Uiso   1.00
O554   O     0.77321   0.79375   0.24999   0.00000  Uiso   1.00
O555   O     0.83333   0.87293   0.18573   0.00000  Uiso   1.00
O556   O     0.83334   0.79374   0.31427   0.00000  Uiso   1.00
O557   O     0.83334   0.87293   0.31427   0.00000  Uiso   1.00
O558   O     0.83333   0.79374   0.18573   0.00000  Uiso   1.00
C559   C     0.08734   0.16667   0.74999   0.00000  Uiso   1.00
C560   C     0.31205   0.20929   0.75006   0.00000  Uiso   1.00
C561   C     0.31205   0.12404   0.75008   0.00000  Uiso   1.00
C562   C     0.02128   0.20929   0.75000   0.00000  Uiso   1.00
C563   C     0.15083   0.20547   0.54683   0.00000  Uiso   1.00
C564   C     0.14697   0.13067   0.95332   0.00000  Uiso   1.00
C565   C     0.18538   0.20340   0.95279   0.00000  Uiso   1.00
C566   C     0.18273   0.12876   0.54682   0.00000  Uiso   1.00
C567   C     0.15041   0.20552   0.59279   0.00000  Uiso   1.00
C568   C     0.14653   0.12993   0.90748   0.00000  Uiso   1.00
C569   C     0.18595   0.20315   0.90681   0.00000  Uiso   1.00
C570   C     0.24600   0.16667   0.75004   0.00000  Uiso   1.00
C571   C     0.18365   0.12838   0.59289   0.00000  Uiso   1.00
C572   C     0.16699   0.16690   0.61632   0.00000  Uiso   1.00
C573   C     0.16637   0.16636   0.88358   0.00000  Uiso   1.00
C574   C     0.16662   0.16717   0.52398   0.00000  Uiso   1.00
C575   C     0.16625   0.16716   0.97592   0.00000  Uiso   1.00
C576   C     0.29060   0.16666   0.75007   0.00000  Uiso   1.00
C577   C     0.04273   0.16666   0.75001   0.00000  Uiso   1.00
C578   C     0.16675   0.16673   0.66485   0.00000  Uiso   1.00
C579   C     0.16647   0.16656   0.83511   0.00000  Uiso   1.00
C580   C     0.14053   0.02490   0.72315   0.00000  Uiso   1.00
C581   C     0.19283   0.30844   0.77682   0.00000  Uiso   1.00
C582   C     0.19280   0.02475   0.77686   0.00000  Uiso   1.00
C583   C     0.14050   0.30859   0.72319   0.00000  Uiso   1.00
C584   C     0.02128   0.12404   0.75005   0.00000  Uiso   1.00
Cu585  Cu    0.16667   0.21355   0.75000   0.00000  Uiso   1.00
Cu586  Cu    0.16667   0.11978   0.75000   0.00000  Uiso   1.00
H587   H     0.11960   0.04370   0.70166   0.00000  Uiso   1.00
H588   H     0.29604   0.24261   0.75007   0.00000  Uiso   1.00
H589   H     0.29604   0.09072   0.75010   0.00000  Uiso   1.00
H590   H     0.03729   0.24261   0.74996   0.00000  Uiso   1.00
H591   H     0.10158   0.24745   0.60482   0.00000  Uiso   1.00
H592   H     0.14769   0.27491   0.60594   0.00000  Uiso   1.00
H593   H     0.10356   0.10659   0.86390   0.00000  Uiso   1.00
H594   H     0.14558   0.07100   0.87000   0.00000  Uiso   1.00
H595   H     0.19441   0.27184   0.89293   0.00000  Uiso   1.00
H596   H     0.23805   0.23954   0.89452   0.00000  Uiso   1.00
H597   H     0.22974   0.10162   0.62979   0.00000  Uiso   1.00
H598   H     0.21381   0.28964   0.79825   0.00000  Uiso   1.00
H599   H     0.21022   0.06287   0.59384   0.00000  Uiso   1.00
H600   H     0.21370   0.04344   0.79837   0.00000  Uiso   1.00
H601   H     0.11951   0.28991   0.70177   0.00000  Uiso   1.00
H602   H     0.13800   0.23502   0.52890   0.00000  Uiso   1.00
H603   H     0.13173   0.10289   0.97147   0.00000  Uiso   1.00
H604   H     0.20063   0.23147   0.97051   0.00000  Uiso   1.00
H605   H     0.19539   0.09951   0.52858   0.00000  Uiso   1.00
H606   H     0.03730   0.09072   0.75005   0.00000  Uiso   1.00
N607   N     0.16667   0.28402   0.75000   0.00000  Uiso   1.00
N608   N     0.16667   0.04931   0.75000   0.00000  Uiso   1.00
N609   N     0.13214   0.24439   0.61532   0.00000  Uiso   1.00
N610   N     0.12462   0.09247   0.88644   0.00000  Uiso   1.00
N611   N     0.20741   0.23972   0.88392   0.00000  Uiso   1.00
N612   N     0.20227   0.08954   0.61583   0.00000  Uiso   1.00
O613   O     0.10655   0.20625   0.74999   0.00000  Uiso   1.00
O614   O     0.22679   0.12709   0.75000   0.00000  Uiso   1.00
O615   O     0.22679   0.20625   0.75000   0.00000  Uiso   1.00
O616   O     0.10655   0.12709   0.74999   0.00000  Uiso   1.00
O617   O     0.16666   0.20626   0.68573   0.00000  Uiso   1.00
O618   O     0.16667   0.12707   0.81427   0.00000  Uiso   1.00
O619   O     0.16667   0.20626   0.81427   0.00000  Uiso   1.00
O620   O     0.16666   0.12707   0.68573   0.00000  Uiso   1.00
C621   C     0.42067   0.16667   0.74999   0.00000  Uiso   1.00
C622   C     0.64538   0.20929   0.75006   0.00000  Uiso   1.00
C623   C     0.64539   0.12404   0.75008   0.00000  Uiso   1.00
C624   C     0.35462   0.20929   0.75000   0.00000  Uiso   1.00
C625   C     0.48416   0.20547   0.54683   0.00000  Uiso   1.00
C626   C     0.48031   0.13067   0.95332   0.00000  Uiso   1.00
C627   C     0.51872   0.20340   0.95279   0.00000  Uiso   1.00
C628   C     0.51607   0.12876   0.54682   0.00000  Uiso   1.00
C629   C     0.48375   0.20552   0.59279   0.00000  Uiso   1.00
C630   C     0.47987   0.12993   0.90748   0.00000  Uiso   1.00
C631   C     0.51928   0.20315   0.90681   0.00000  Uiso   1.00
C632   C     0.57933   0.16667   0.75004   0.00000  Uiso   1.00
C633   C     0.51698   0.12838   0.59289   0.00000  Uiso   1.00
C634   C     0.50032   0.16690   0.61632   0.00000  Uiso   1.00
C635   C     0.49970   0.16636   0.88358   0.00000  Uiso   1.00
C636   C     0.49996   0.16717   0.52398   0.00000  Uiso   1.00
C637   C     0.49958   0.16716   0.97592   0.00000  Uiso   1.00
C638   C     0.62393   0.16666   0.75007   0.00000  Uiso   1.00
C639   C     0.37607   0.16666   0.75001   0.00000  Uiso   1.00
C640   C     0.50008   0.16673   0.66485   0.00000  Uiso   1.00
C641   C     0.49980   0.16656   0.83511   0.00000  Uiso   1.00
C642   C     0.47386   0.02490   0.72315   0.00000  Uiso   1.00
C643   C     0.52616   0.30844   0.77682   0.00000  Uiso   1.00
C644   C     0.52613   0.02475   0.77686   0.00000  Uiso   1.00
C645   C     0.47383   0.30859   0.72319   0.00000  Uiso   1.00
C646   C     0.35462   0.12404   0.75005   0.00000  Uiso   1.00
Cu647  Cu    0.50000   0.21355   0.75000   0.00000  Uiso   1.00
Cu648  Cu    0.50000   0.11978   0.75000   0.00000  Uiso   1.00
H649   H     0.45294   0.04370   0.70166   0.00000  Uiso   1.00
H650   H     0.62937   0.24261   0.75007   0.00000  Uiso   1.00
H651   H     0.62937   0.09072   0.75010   0.00000  Uiso   1.00
H652   H     0.37063   0.24261   0.74996   0.00000  Uiso   1.00
H653   H     0.43491   0.24745   0.60482   0.00000  Uiso   1.00
H654   H     0.48102   0.27491   0.60594   0.00000  Uiso   1.00
H655   H     0.43689   0.10659   0.86390   0.00000  Uiso   1.00
H656   H     0.47891   0.07100   0.87000   0.00000  Uiso   1.00
H657   H     0.52775   0.27184   0.89293   0.00000  Uiso   1.00
H658   H     0.57139   0.23954   0.89452   0.00000  Uiso   1.00
H659   H     0.56307   0.10162   0.62979   0.00000  Uiso   1.00
H660   H     0.54714   0.28964   0.79825   0.00000  Uiso   1.00
H661   H     0.54356   0.06287   0.59384   0.00000  Uiso   1.00
H662   H     0.54704   0.04344   0.79837   0.00000  Uiso   1.00
H663   H     0.45284   0.28991   0.70177   0.00000  Uiso   1.00
H664   H     0.47133   0.23502   0.52890   0.00000  Uiso   1.00
H665   H     0.46507   0.10289   0.97147   0.00000  Uiso   1.00
H666   H     0.53396   0.23147   0.97051   0.00000  Uiso   1.00
H667   H     0.52872   0.09951   0.52858   0.00000  Uiso   1.00
H668   H     0.37063   0.09072   0.75005   0.00000  Uiso   1.00
N669   N     0.50000   0.28402   0.75000   0.00000  Uiso   1.00
N670   N     0.50000   0.04931   0.75000   0.00000  Uiso   1.00
N671   N     0.46547   0.24439   0.61532   0.00000  Uiso   1.00
N672   N     0.45795   0.09247   0.88644   0.00000  Uiso   1.00
N673   N     0.54075   0.23972   0.88392   0.00000  Uiso   1.00
N674   N     0.53560   0.08954   0.61583   0.00000  Uiso   1.00
O675   O     0.43988   0.20625   0.74999   0.00000  Uiso   1.00
O676   O     0.56012   0.12709   0.75000   0.00000  Uiso   1.00
O677   O     0.56012   0.20625   0.75000   0.00000  Uiso   1.00
O678   O     0.43988   0.12709   0.74999   0.00000  Uiso   1.00
O679   O     0.50000   0.20626   0.68573   0.00000  Uiso   1.00
O680   O     0.50000   0.12707   0.81427   0.00000  Uiso   1.00
O681   O     0.50000   0.20626   0.81427   0.00000  Uiso   1.00
O682   O     0.50000   0.12707   0.68573   0.00000  Uiso   1.00
C683   C     0.75401   0.16667   0.74999   0.00000  Uiso   1.00
C684   C     0.97872   0.20929   0.75006   0.00000  Uiso   1.00
C685   C     0.97872   0.12404   0.75008   0.00000  Uiso   1.00
C686   C     0.68795   0.20929   0.75000   0.00000  Uiso   1.00
C687   C     0.81750   0.20547   0.54683   0.00000  Uiso   1.00
C688   C     0.81364   0.13067   0.95332   0.00000  Uiso   1.00
C689   C     0.85205   0.20340   0.95279   0.00000  Uiso   1.00
C690   C     0.84940   0.12876   0.54682   0.00000  Uiso   1.00
C691   C     0.81708   0.20552   0.59279   0.00000  Uiso   1.00
C692   C     0.81320   0.12993   0.90748   0.00000  Uiso   1.00
C693   C     0.85262   0.20315   0.90681   0.00000  Uiso   1.00
C694   C     0.91266   0.16667   0.75004   0.00000  Uiso   1.00
C695   C     0.85032   0.12838   0.59289   0.00000  Uiso   1.00
C696   C     0.83365   0.16690   0.61632   0.00000  Uiso   1.00
C697   C     0.83303   0.16636   0.88358   0.00000  Uiso   1.00
C698   C     0.83329   0.16717   0.52398   0.00000  Uiso   1.00
C699   C     0.83292   0.16716   0.97592   0.00000  Uiso   1.00
C700   C     0.95727   0.16666   0.75007   0.00000  Uiso   1.00
C701   C     0.70940   0.16666   0.75001   0.00000  Uiso   1.00
C702   C     0.83342   0.16673   0.66485   0.00000  Uiso   1.00
C703   C     0.83314   0.16656   0.83511   0.00000  Uiso   1.00
C704   C     0.80719   0.02490   0.72315   0.00000  Uiso   1.00
C705   C     0.85950   0.30844   0.77682   0.00000  Uiso   1.00
C706   C     0.85947   0.02475   0.77686   0.00000  Uiso   1.00
C707   C     0.80716   0.30859   0.72319   0.00000  Uiso   1.00
C708   C     0.68795   0.12404   0.75005   0.00000  Uiso   1.00
Cu709  Cu    0.83333   0.21355   0.75000   0.00000  Uiso   1.00
Cu710  Cu    0.83333   0.11978   0.75000   0.00000  Uiso   1.00
H711   H     0.78627   0.04370   0.70166   0.00000  Uiso   1.00
H712   H     0.96271   0.24261   0.75007   0.00000  Uiso   1.00
H713   H     0.96271   0.09072   0.75010   0.00000  Uiso   1.00
H714   H     0.70396   0.24261   0.74996   0.00000  Uiso   1.00
H715   H     0.76824   0.24745   0.60482   0.00000  Uiso   1.00
H716   H     0.81436   0.27491   0.60594   0.00000  Uiso   1.00
H717   H     0.77022   0.10659   0.86390   0.00000  Uiso   1.00
H718   H     0.81225   0.07100   0.87000   0.00000  Uiso   1.00
H719   H     0.86108   0.27184   0.89293   0.00000  Uiso   1.00
H720   H     0.90472   0.23954   0.89452   0.00000  Uiso   1.00
H721   H     0.89640   0.10162   0.62979   0.00000  Uiso   1.00
H722   H     0.88048   0.28964   0.79825   0.00000  Uiso   1.00
H723   H     0.87689   0.06287   0.59384   0.00000  Uiso   1.00
H724   H     0.88037   0.04344   0.79837   0.00000  Uiso   1.00
H725   H     0.78618   0.28991   0.70177   0.00000  Uiso   1.00
H726   H     0.80467   0.23502   0.52890   0.00000  Uiso   1.00
H727   H     0.79840   0.10289   0.97147   0.00000  Uiso   1.00
H728   H     0.86730   0.23147   0.97051   0.00000  Uiso   1.00
H729   H     0.86206   0.09951   0.52858   0.00000  Uiso   1.00
H730   H     0.70396   0.09072   0.75005   0.00000  Uiso   1.00
N731   N     0.83333   0.28402   0.75000   0.00000  Uiso   1.00
N732   N     0.83333   0.04931   0.75000   0.00000  Uiso   1.00
N733   N     0.79880   0.24439   0.61532   0.00000  Uiso   1.00
N734   N     0.79129   0.09247   0.88644   0.00000  Uiso   1.00
N735   N     0.87408   0.23972   0.88392   0.00000  Uiso   1.00
N736   N     0.86893   0.08954   0.61583   0.00000  Uiso   1.00
O737   O     0.77321   0.20625   0.74999   0.00000  Uiso   1.00
O738   O     0.89345   0.12709   0.75000   0.00000  Uiso   1.00
O739   O     0.89345   0.20625   0.75000   0.00000  Uiso   1.00
O740   O     0.77321   0.12709   0.74999   0.00000  Uiso   1.00
O741   O     0.83333   0.20626   0.68573   0.00000  Uiso   1.00
O742   O     0.83334   0.12707   0.81427   0.00000  Uiso   1.00
O743   O     0.83334   0.20626   0.81427   0.00000  Uiso   1.00
O744   O     0.83333   0.12707   0.68573   0.00000  Uiso   1.00
C745   C     0.08734   0.50000   0.74999   0.00000  Uiso   1.00
C746   C     0.31205   0.54262   0.75006   0.00000  Uiso   1.00
C747   C     0.31205   0.45737   0.75008   0.00000  Uiso   1.00
C748   C     0.02128   0.54262   0.75000   0.00000  Uiso   1.00
C749   C     0.15083   0.53881   0.54683   0.00000  Uiso   1.00
C750   C     0.14697   0.46401   0.95332   0.00000  Uiso   1.00
C751   C     0.18538   0.53673   0.95279   0.00000  Uiso   1.00
C752   C     0.18273   0.46210   0.54682   0.00000  Uiso   1.00
C753   C     0.15041   0.53886   0.59279   0.00000  Uiso   1.00
C754   C     0.14653   0.46326   0.90748   0.00000  Uiso   1.00
C755   C     0.18595   0.53648   0.90681   0.00000  Uiso   1.00
C756   C     0.24600   0.50000   0.75004   0.00000  Uiso   1.00
C757   C     0.18365   0.46172   0.59289   0.00000  Uiso   1.00
C758   C     0.16699   0.50024   0.61632   0.00000  Uiso   1.00
C759   C     0.16637   0.49970   0.88358   0.00000  Uiso   1.00
C760   C     0.16662   0.50050   0.52398   0.00000  Uiso   1.00
C761   C     0.16625   0.50049   0.97592   0.00000  Uiso   1.00
C762   C     0.29060   0.50000   0.75007   0.00000  Uiso   1.00
C763   C     0.04273   0.50000   0.75001   0.00000  Uiso   1.00
C764   C     0.16675   0.50006   0.66485   0.00000  Uiso   1.00
C765   C     0.16647   0.49989   0.83511   0.00000  Uiso   1.00
C766   C     0.14053   0.35823   0.72315   0.00000  Uiso   1.00
C767   C     0.19283   0.64177   0.77682   0.00000  Uiso   1.00
C768   C     0.19280   0.35809   0.77686   0.00000  Uiso   1.00
C769   C     0.14050   0.64192   0.72319   0.00000  Uiso   1.00
C770   C     0.02128   0.45737   0.75005   0.00000  Uiso   1.00
Cu771  Cu    0.16667   0.54689   0.75000   0.00000  Uiso   1.00
Cu772  Cu    0.16667   0.45311   0.75000   0.00000  Uiso   1.00
H773   H     0.11960   0.37704   0.70166   0.00000  Uiso   1.00
H774   H     0.29604   0.57594   0.75007   0.00000  Uiso   1.00
H775   H     0.29604   0.42405   0.75010   0.00000  Uiso   1.00
H776   H     0.03729   0.57595   0.74996   0.00000  Uiso   1.00
H777   H     0.10158   0.58078   0.60482   0.00000  Uiso   1.00
H778   H     0.14769   0.60824   0.60594   0.00000  Uiso   1.00
H779   H     0.10356   0.43993   0.86390   0.00000  Uiso   1.00
H780   H     0.14558   0.40433   0.87000   0.00000  Uiso   1.00
H781   H     0.19441   0.60517   0.89293   0.00000  Uiso   1.00
H782   H     0.23805   0.57288   0.89452   0.00000  Uiso   1.00
H783   H     0.22974   0.43495   0.62979   0.00000  Uiso   1.00
H784   H     0.21381   0.62298   0.79825   0.00000  Uiso   1.00
H785   H     0.21022   0.39620   0.59384   0.00000  Uiso   1.00
H786   H     0.21370   0.37677   0.79837   0.00000  Uiso   1.00
H787   H     0.11951   0.62324   0.70177   0.00000  Uiso   1.00
H788   H     0.13800   0.56836   0.52890   0.00000  Uiso   1.00
H789   H     0.13173   0.43622   0.97147   0.00000  Uiso   1.00
H790   H     0.20063   0.56480   0.97051   0.00000  Uiso   1.00
H791   H     0.19539   0.43284   0.52858   0.00000  Uiso   1.00
H792   H     0.03730   0.42405   0.75005   0.00000  Uiso   1.00
N793   N     0.16667   0.61736   0.75000   0.00000  Uiso   1.00
N794   N     0.16667   0.38264   0.75000   0.00000  Uiso   1.00
N795   N     0.13214   0.57772   0.61532   0.00000  Uiso   1.00
N796   N     0.12462   0.42580   0.88644   0.00000  Uiso   1.00
N797   N     0.20741   0.57306   0.88392   0.00000  Uiso   1.00
N798   N     0.20227   0.42287   0.61583   0.00000  Uiso   1.00
O799   O     0.10655   0.53958   0.74999   0.00000  Uiso   1.00
O800   O     0.22679   0.46042   0.75000   0.00000  Uiso   1.00
O801   O     0.22679   0.53958   0.75000   0.00000  Uiso   1.00
O802   O     0.10655   0.46042   0.74999   0.00000  Uiso   1.00
O803   O     0.16666   0.53959   0.68573   0.00000  Uiso   1.00
O804   O     0.16667   0.46041   0.81427   0.00000  Uiso   1.00
O805   O     0.16667   0.53959   0.81427   0.00000  Uiso   1.00
O806   O     0.16666   0.46041   0.68573   0.00000  Uiso   1.00
C807   C     0.42067   0.50000   0.74999   0.00000  Uiso   1.00
C808   C     0.64538   0.54262   0.75006   0.00000  Uiso   1.00
C809   C     0.64539   0.45737   0.75008   0.00000  Uiso   1.00
C810   C     0.35462   0.54262   0.75000   0.00000  Uiso   1.00
C811   C     0.48416   0.53881   0.54683   0.00000  Uiso   1.00
C812   C     0.48031   0.46401   0.95332   0.00000  Uiso   1.00
C813   C     0.51872   0.53673   0.95279   0.00000  Uiso   1.00
C814   C     0.51607   0.46210   0.54682   0.00000  Uiso   1.00
C815   C     0.48375   0.53886   0.59279   0.00000  Uiso   1.00
C816   C     0.47987   0.46326   0.90748   0.00000  Uiso   1.00
C817   C     0.51928   0.53648   0.90681   0.00000  Uiso   1.00
C818   C     0.57933   0.50000   0.75004   0.00000  Uiso   1.00
C819   C     0.51698   0.46172   0.59289   0.00000  Uiso   1.00
C820   C     0.50032   0.50024   0.61632   0.00000  Uiso   1.00
C821   C     0.49970   0.49970   0.88358   0.00000  Uiso   1.00
C822   C     0.49996   0.50050   0.52398   0.00000  Uiso   1.00
C823   C     0.49958   0.50049   0.97592   0.00000  Uiso   1.00
C824   C     0.62393   0.50000   0.75007   0.00000  Uiso   1.00
C825   C     0.37607   0.50000   0.75001   0.00000  Uiso   1.00
C826   C     0.50008   0.50006   0.66485   0.00000  Uiso   1.00
C827   C     0.49980   0.49989   0.83511   0.00000  Uiso   1.00
C828   C     0.47386   0.35823   0.72315   0.00000  Uiso   1.00
C829   C     0.52616   0.64177   0.77682   0.00000  Uiso   1.00
C830   C     0.52613   0.35809   0.77686   0.00000  Uiso   1.00
C831   C     0.47383   0.64192   0.72319   0.00000  Uiso   1.00
C832   C     0.35462   0.45737   0.75005   0.00000  Uiso   1.00
Cu833  Cu    0.50000   0.54689   0.75000   0.00000  Uiso   1.00
Cu834  Cu    0.50000   0.45311   0.75000   0.00000  Uiso   1.00
H835   H     0.45294   0.37704   0.70166   0.00000  Uiso   1.00
H836   H     0.62937   0.57594   0.75007   0.00000  Uiso   1.00
H837   H     0.62937   0.42405   0.75010   0.00000  Uiso   1.00
H838   H     0.37063   0.57595   0.74996   0.00000  Uiso   1.00
H839   H     0.43491   0.58078   0.60482   0.00000  Uiso   1.00
H840   H     0.48102   0.60824   0.60594   0.00000  Uiso   1.00
H841   H     0.43689   0.43993   0.86390   0.00000  Uiso   1.00
H842   H     0.47891   0.40433   0.87000   0.00000  Uiso   1.00
H843   H     0.52775   0.60517   0.89293   0.00000  Uiso   1.00
H844   H     0.57139   0.57288   0.89452   0.00000  Uiso   1.00
H845   H     0.56307   0.43495   0.62979   0.00000  Uiso   1.00
H846   H     0.54714   0.62298   0.79825   0.00000  Uiso   1.00
H847   H     0.54356   0.39620   0.59384   0.00000  Uiso   1.00
H848   H     0.54704   0.37677   0.79837   0.00000  Uiso   1.00
H849   H     0.45284   0.62324   0.70177   0.00000  Uiso   1.00
H850   H     0.47133   0.56836   0.52890   0.00000  Uiso   1.00
H851   H     0.46507   0.43622   0.97147   0.00000  Uiso   1.00
H852   H     0.53396   0.56480   0.97051   0.00000  Uiso   1.00
H853   H     0.52872   0.43284   0.52858   0.00000  Uiso   1.00
H854   H     0.37063   0.42405   0.75005   0.00000  Uiso   1.00
N855   N     0.50000   0.61736   0.75000   0.00000  Uiso   1.00
N856   N     0.50000   0.38264   0.75000   0.00000  Uiso   1.00
N857   N     0.46547   0.57772   0.61532   0.00000  Uiso   1.00
N858   N     0.45795   0.42580   0.88644   0.00000  Uiso   1.00
N859   N     0.54075   0.57306   0.88392   0.00000  Uiso   1.00
N860   N     0.53560   0.42287   0.61583   0.00000  Uiso   1.00
O861   O     0.43988   0.53958   0.74999   0.00000  Uiso   1.00
O862   O     0.56012   0.46042   0.75000   0.00000  Uiso   1.00
O863   O     0.56012   0.53958   0.75000   0.00000  Uiso   1.00
O864   O     0.43988   0.46042   0.74999   0.00000  Uiso   1.00
O865   O     0.50000   0.53959   0.68573   0.00000  Uiso   1.00
O866   O     0.50000   0.46041   0.81427   0.00000  Uiso   1.00
O867   O     0.50000   0.53959   0.81427   0.00000  Uiso   1.00
O868   O     0.50000   0.46041   0.68573   0.00000  Uiso   1.00
C869   C     0.75401   0.50000   0.74999   0.00000  Uiso   1.00
C870   C     0.97872   0.54262   0.75006   0.00000  Uiso   1.00
C871   C     0.97872   0.45737   0.75008   0.00000  Uiso   1.00
C872   C     0.68795   0.54262   0.75000   0.00000  Uiso   1.00
C873   C     0.81750   0.53881   0.54683   0.00000  Uiso   1.00
C874   C     0.81364   0.46401   0.95332   0.00000  Uiso   1.00
C875   C     0.85205   0.53673   0.95279   0.00000  Uiso   1.00
C876   C     0.84940   0.46210   0.54682   0.00000  Uiso   1.00
C877   C     0.81708   0.53886   0.59279   0.00000  Uiso   1.00
C878   C     0.81320   0.46326   0.90748   0.00000  Uiso   1.00
C879   C     0.85262   0.53648   0.90681   0.00000  Uiso   1.00
C880   C     0.91266   0.50000   0.75004   0.00000  Uiso   1.00
C881   C     0.85032   0.46172   0.59289   0.00000  Uiso   1.00
C882   C     0.83365   0.50024   0.61632   0.00000  Uiso   1.00
C883   C     0.83303   0.49970   0.88358   0.00000  Uiso   1.00
C884   C     0.83329   0.50050   0.52398   0.00000  Uiso   1.00
C885   C     0.83292   0.50049   0.97592   0.00000  Uiso   1.00
C886   C     0.95727   0.50000   0.75007   0.00000  Uiso   1.00
C887   C     0.70940   0.50000   0.75001   0.00000  Uiso   1.00
C888   C     0.83342   0.50006   0.66485   0.00000  Uiso   1.00
C889   C     0.83314   0.49989   0.83511   0.00000  Uiso   1.00
C890   C     0.80719   0.35823   0.72315   0.00000  Uiso   1.00
C891   C     0.85950   0.64177   0.77682   0.00000  Uiso   1.00
C892   C     0.85947   0.35809   0.77686   0.00000  Uiso   1.00
C893   C     0.80716   0.64192   0.72319   0.00000  Uiso   1.00
C894   C     0.68795   0.45737   0.75005   0.00000  Uiso   1.00
Cu895  Cu    0.83333   0.54689   0.75000   0.00000  Uiso   1.00
Cu896  Cu    0.83333   0.45311   0.75000   0.00000  Uiso   1.00
H897   H     0.78627   0.37704   0.70166   0.00000  Uiso   1.00
H898   H     0.96271   0.57594   0.75007   0.00000  Uiso   1.00
H899   H     0.96271   0.42405   0.75010   0.00000  Uiso   1.00
H900   H     0.70396   0.57595   0.74996   0.00000  Uiso   1.00
H901   H     0.76824   0.58078   0.60482   0.00000  Uiso   1.00
H902   H     0.81436   0.60824   0.60594   0.00000  Uiso   1.00
H903   H     0.77022   0.43993   0.86390   0.00000  Uiso   1.00
H904   H     0.81225   0.40433   0.87000   0.00000  Uiso   1.00
H905   H     0.86108   0.60517   0.89293   0.00000  Uiso   1.00
H906   H     0.90472   0.57288   0.89452   0.00000  Uiso   1.00
H907   H     0.89640   0.43495   0.62979   0.00000  Uiso   1.00
H908   H     0.88048   0.62298   0.79825   0.00000  Uiso   1.00
H909   H     0.87689   0.39620   0.59384   0.00000  Uiso   1.00
H910   H     0.88037   0.37677   0.79837   0.00000  Uiso   1.00
H911   H     0.78618   0.62324   0.70177   0.00000  Uiso   1.00
H912   H     0.80467   0.56836   0.52890   0.00000  Uiso   1.00
H913   H     0.79840   0.43622   0.97147   0.00000  Uiso   1.00
H914   H     0.86730   0.56480   0.97051   0.00000  Uiso   1.00
H915   H     0.86206   0.43284   0.52858   0.00000  Uiso   1.00
H916   H     0.70396   0.42405   0.75005   0.00000  Uiso   1.00
N917   N     0.83333   0.61736   0.75000   0.00000  Uiso   1.00
N918   N     0.83333   0.38264   0.75000   0.00000  Uiso   1.00
N919   N     0.79880   0.57772   0.61532   0.00000  Uiso   1.00
N920   N     0.79129   0.42580   0.88644   0.00000  Uiso   1.00
N921   N     0.87408   0.57306   0.88392   0.00000  Uiso   1.00
N922   N     0.86893   0.42287   0.61583   0.00000  Uiso   1.00
O923   O     0.77321   0.53958   0.74999   0.00000  Uiso   1.00
O924   O     0.89345   0.46042   0.75000   0.00000  Uiso   1.00
O925   O     0.89345   0.53958   0.75000   0.00000  Uiso   1.00
O926   O     0.77321   0.46042   0.74999   0.00000  Uiso   1.00
O927   O     0.83333   0.53959   0.68573   0.00000  Uiso   1.00
O928   O     0.83334   0.46041   0.81427   0.00000  Uiso   1.00
O929   O     0.83334   0.53959   0.81427   0.00000  Uiso   1.00
O930   O     0.83333   0.46041   0.68573   0.00000  Uiso   1.00
C931   C     0.08734   0.83333   0.74999   0.00000  Uiso   1.00
C932   C     0.31205   0.87596   0.75006   0.00000  Uiso   1.00
C933   C     0.31205   0.79071   0.75008   0.00000  Uiso   1.00
C934   C     0.02128   0.87596   0.75000   0.00000  Uiso   1.00
C935   C     0.15083   0.87214   0.54683   0.00000  Uiso   1.00
C936   C     0.14697   0.79734   0.95332   0.00000  Uiso   1.00
C937   C     0.18538   0.87007   0.95279   0.00000  Uiso   1.00
C938   C     0.18273   0.79543   0.54682   0.00000  Uiso   1.00
C939   C     0.15041   0.87219   0.59279   0.00000  Uiso   1.00
C940   C     0.14653   0.79659   0.90748   0.00000  Uiso   1.00
C941   C     0.18595   0.86982   0.90681   0.00000  Uiso   1.00
C942   C     0.24600   0.83333   0.75004   0.00000  Uiso   1.00
C943   C     0.18365   0.79505   0.59289   0.00000  Uiso   1.00
C944   C     0.16699   0.83357   0.61632   0.00000  Uiso   1.00
C945   C     0.16637   0.83303   0.88358   0.00000  Uiso   1.00
C946   C     0.16662   0.83383   0.52398   0.00000  Uiso   1.00
C947   C     0.16625   0.83383   0.97592   0.00000  Uiso   1.00
C948   C     0.29060   0.83333   0.75007   0.00000  Uiso   1.00
C949   C     0.04273   0.83333   0.75001   0.00000  Uiso   1.00
C950   C     0.16675   0.83340   0.66485   0.00000  Uiso   1.00
C951   C     0.16647   0.83322   0.83511   0.00000  Uiso   1.00
C952   C     0.14053   0.69157   0.72315   0.00000  Uiso   1.00
C953   C     0.19283   0.97511   0.77682   0.00000  Uiso   1.00
C954   C     0.19280   0.69142   0.77686   0.00000  Uiso   1.00
C955   C     0.14050   0.97525   0.72319   0.00000  Uiso   1.00
C956   C     0.02128   0.79071   0.75005   0.00000  Uiso   1.00
Cu957  Cu    0.16667   0.88022   0.75000   0.00000  Uiso   1.00
Cu958  Cu    0.16667   0.78645   0.75000   0.00000  Uiso   1.00
H959   H     0.11960   0.71037   0.70166   0.00000  Uiso   1.00
H960   H     0.29604   0.90928   0.75007   0.00000  Uiso   1.00
H961   H     0.29604   0.75738   0.75010   0.00000  Uiso   1.00
H962   H     0.03729   0.90928   0.74996   0.00000  Uiso   1.00
H963   H     0.10158   0.91412   0.60482   0.00000  Uiso   1.00
H964   H     0.14769   0.94158   0.60594   0.00000  Uiso   1.00
H965   H     0.10356   0.77326   0.86390   0.00000  Uiso   1.00
H966   H     0.14558   0.73767   0.87000   0.00000  Uiso   1.00
H967   H     0.19441   0.93850   0.89293   0.00000  Uiso   1.00
H968   H     0.23805   0.90621   0.89452   0.00000  Uiso   1.00
H969   H     0.22974   0.76829   0.62979   0.00000  Uiso   1.00
H970   H     0.21381   0.95631   0.79825   0.00000  Uiso   1.00
H971   H     0.21022   0.72954   0.59384   0.00000  Uiso   1.00
H972   H     0.21370   0.71011   0.79837   0.00000  Uiso   1.00
H973   H     0.11951   0.95658   0.70177   0.00000  Uiso   1.00
H974   H     0.13800   0.90169   0.52890   0.00000  Uiso   1.00
H975   H     0.13173   0.76956   0.97147   0.00000  Uiso   1.00
H976   H     0.20063   0.89814   0.97051   0.00000  Uiso   1.00
H977   H     0.19539   0.76618   0.52858   0.00000  Uiso   1.00
H978   H     0.03730   0.75738   0.75005   0.00000  Uiso   1.00
N979   N     0.16667   0.95069   0.75000   0.00000  Uiso   1.00
N980   N     0.16667   0.71598   0.75000   0.00000  Uiso   1.00
N981   N     0.13214   0.91106   0.61532   0.00000  Uiso   1.00
N982   N     0.12462   0.75914   0.88644   0.00000  Uiso   1.00
N983   N     0.20741   0.90639   0.88392   0.00000  Uiso   1.00
N984   N     0.20227   0.75621   0.61583   0.00000  Uiso   1.00
O985   O     0.10655   0.87291   0.74999   0.00000  Uiso   1.00
O986   O     0.22679   0.79375   0.75000   0.00000  Uiso   1.00
O987   O     0.22679   0.87291   0.75000   0.00000  Uiso   1.00
O988   O     0.10655   0.79375   0.74999   0.00000  Uiso   1.00
O989   O     0.16666   0.87293   0.68573   0.00000  Uiso   1.00
O990   O     0.16667   0.79374   0.81427   0.00000  Uiso   1.00
O991   O     0.16667   0.87293   0.81427   0.00000  Uiso   1.00
O992   O     0.16666   0.79374   0.68573   0.00000  Uiso   1.00
C993   C     0.42067   0.83333   0.74999   0.00000  Uiso   1.00
C994   C     0.64538   0.87596   0.75006   0.00000  Uiso   1.00
C995   C     0.64539   0.79071   0.75008   0.00000  Uiso   1.00
C996   C     0.35462   0.87596   0.75000   0.00000  Uiso   1.00
C997   C     0.48416   0.87214   0.54683   0.00000  Uiso   1.00
C998   C     0.48031   0.79734   0.95332   0.00000  Uiso   1.00
C999   C     0.51872   0.87007   0.95279   0.00000  Uiso   1.00
C1000  C     0.51607   0.79543   0.54682   0.00000  Uiso   1.00
C1001  C     0.48375   0.87219   0.59279   0.00000  Uiso   1.00
C1002  C     0.47987   0.79659   0.90748   0.00000  Uiso   1.00
C1003  C     0.51928   0.86982   0.90681   0.00000  Uiso   1.00
C1004  C     0.57933   0.83333   0.75004   0.00000  Uiso   1.00
C1005  C     0.51698   0.79505   0.59289   0.00000  Uiso   1.00
C1006  C     0.50032   0.83357   0.61632   0.00000  Uiso   1.00
C1007  C     0.49970   0.83303   0.88358   0.00000  Uiso   1.00
C1008  C     0.49996   0.83383   0.52398   0.00000  Uiso   1.00
C1009  C     0.49958   0.83383   0.97592   0.00000  Uiso   1.00
C1010  C     0.62393   0.83333   0.75007   0.00000  Uiso   1.00
C1011  C     0.37607   0.83333   0.75001   0.00000  Uiso   1.00
C1012  C     0.50008   0.83340   0.66485   0.00000  Uiso   1.00
C1013  C     0.49980   0.83322   0.83511   0.00000  Uiso   1.00
C1014  C     0.47386   0.69157   0.72315   0.00000  Uiso   1.00
C1015  C     0.52616   0.97511   0.77682   0.00000  Uiso   1.00
C1016  C     0.52613   0.69142   0.77686   0.00000  Uiso   1.00
C1017  C     0.47383   0.97525   0.72319   0.00000  Uiso   1.00
C1018  C     0.35462   0.79071   0.75005   0.00000  Uiso   1.00
Cu1019 Cu    0.50000   0.88022   0.75000   0.00000  Uiso   1.00
Cu1020 Cu    0.50000   0.78645   0.75000   0.00000  Uiso   1.00
H1021  H     0.45294   0.71037   0.70166   0.00000  Uiso   1.00
H1022  H     0.62937   0.90928   0.75007   0.00000  Uiso   1.00
H1023  H     0.62937   0.75738   0.75010   0.00000  Uiso   1.00
H1024  H     0.37063   0.90928   0.74996   0.00000  Uiso   1.00
H1025  H     0.43491   0.91412   0.60482   0.00000  Uiso   1.00
H1026  H     0.48102   0.94158   0.60594   0.00000  Uiso   1.00
H1027  H     0.43689   0.77326   0.86390   0.00000  Uiso   1.00
H1028  H     0.47891   0.73767   0.87000   0.00000  Uiso   1.00
H1029  H     0.52775   0.93850   0.89293   0.00000  Uiso   1.00
H1030  H     0.57139   0.90621   0.89452   0.00000  Uiso   1.00
H1031  H     0.56307   0.76829   0.62979   0.00000  Uiso   1.00
H1032  H     0.54714   0.95631   0.79825   0.00000  Uiso   1.00
H1033  H     0.54356   0.72954   0.59384   0.00000  Uiso   1.00
H1034  H     0.54704   0.71011   0.79837   0.00000  Uiso   1.00
H1035  H     0.45284   0.95658   0.70177   0.00000  Uiso   1.00
H1036  H     0.47133   0.90169   0.52890   0.00000  Uiso   1.00
H1037  H     0.46507   0.76956   0.97147   0.00000  Uiso   1.00
H1038  H     0.53396   0.89814   0.97051   0.00000  Uiso   1.00
H1039  H     0.52872   0.76618   0.52858   0.00000  Uiso   1.00
H1040  H     0.37063   0.75738   0.75005   0.00000  Uiso   1.00
N1041  N     0.50000   0.95069   0.75000   0.00000  Uiso   1.00
N1042  N     0.50000   0.71598   0.75000   0.00000  Uiso   1.00
N1043  N     0.46547   0.91106   0.61532   0.00000  Uiso   1.00
N1044  N     0.45795   0.75914   0.88644   0.00000  Uiso   1.00
N1045  N     0.54075   0.90639   0.88392   0.00000  Uiso   1.00
N1046  N     0.53560   0.75621   0.61583   0.00000  Uiso   1.00
O1047  O     0.43988   0.87291   0.74999   0.00000  Uiso   1.00
O1048  O     0.56012   0.79375   0.75000   0.00000  Uiso   1.00
O1049  O     0.56012   0.87291   0.75000   0.00000  Uiso   1.00
O1050  O     0.43988   0.79375   0.74999   0.00000  Uiso   1.00
O1051  O     0.50000   0.87293   0.68573   0.00000  Uiso   1.00
O1052  O     0.50000   0.79374   0.81427   0.00000  Uiso   1.00
O1053  O     0.50000   0.87293   0.81427   0.00000  Uiso   1.00
O1054  O     0.50000   0.79374   0.68573   0.00000  Uiso   1.00
C1055  C     0.75401   0.83333   0.74999   0.00000  Uiso   1.00
C1056  C     0.97872   0.87596   0.75006   0.00000  Uiso   1.00
C1057  C     0.97872   0.79071   0.75008   0.00000  Uiso   1.00
C1058  C     0.68795   0.87596   0.75000   0.00000  Uiso   1.00
C1059  C     0.81750   0.87214   0.54683   0.00000  Uiso   1.00
C1060  C     0.81364   0.79734   0.95332   0.00000  Uiso   1.00
C1061  C     0.85205   0.87007   0.95279   0.00000  Uiso   1.00
C1062  C     0.84940   0.79543   0.54682   0.00000  Uiso   1.00
C1063  C     0.81708   0.87219   0.59279   0.00000  Uiso   1.00
C1064  C     0.81320   0.79659   0.90748   0.00000  Uiso   1.00
C1065  C     0.85262   0.86982   0.90681   0.00000  Uiso   1.00
C1066  C     0.91266   0.83333   0.75004   0.00000  Uiso   1.00
C1067  C     0.85032   0.79505   0.59289   0.00000  Uiso   1.00
C1068  C     0.83365   0.83357   0.61632   0.00000  Uiso   1.00
C1069  C     0.83303   0.83303   0.88358   0.00000  Uiso   1.00
C1070  C     0.83329   0.83383   0.52398   0.00000  Uiso   1.00
C1071  C     0.83292   0.83383   0.97592   0.00000  Uiso   1.00
C1072  C     0.95727   0.83333   0.75007   0.00000  Uiso   1.00
C1073  C     0.70940   0.83333   0.75001   0.00000  Uiso   1.00
C1074  C     0.83342   0.83340   0.66485   0.00000  Uiso   1.00
C1075  C     0.83314   0.83322   0.83511   0.00000  Uiso   1.00
C1076  C     0.80719   0.69157   0.72315   0.00000  Uiso   1.00
C1077  C     0.85950   0.97511   0.77682   0.00000  Uiso   1.00
C1078  C     0.85947   0.69142   0.77686   0.00000  Uiso   1.00
C1079  C     0.80716   0.97525   0.72319   0.00000  Uiso   1.00
C1080  C     0.68795   0.79071   0.75005   0.00000  Uiso   1.00
Cu1081 Cu    0.83333   0.88022   0.75000   0.00000  Uiso   1.00
Cu1082 Cu    0.83333   0.78645   0.75000   0.00000  Uiso   1.00
H1083  H     0.78627   0.71037   0.70166   0.00000  Uiso   1.00
H1084  H     0.96271   0.90928   0.75007   0.00000  Uiso   1.00
H1085  H     0.96271   0.75738   0.75010   0.00000  Uiso   1.00
H1086  H     0.70396   0.90928   0.74996   0.00000  Uiso   1.00
H1087  H     0.76824   0.91412   0.60482   0.00000  Uiso   1.00
H1088  H     0.81436   0.94158   0.60594   0.00000  Uiso   1.00
H1089  H     0.77022   0.77326   0.86390   0.00000  Uiso   1.00
H1090  H     0.81225   0.73767   0.87000   0.00000  Uiso   1.00
H1091  H     0.86108   0.93850   0.89293   0.00000  Uiso   1.00
H1092  H     0.90472   0.90621   0.89452   0.00000  Uiso   1.00
H1093  H     0.89640   0.76829   0.62979   0.00000  Uiso   1.00
H1094  H     0.88048   0.95631   0.79825   0.00000  Uiso   1.00
H1095  H     0.87689   0.72954   0.59384   0.00000  Uiso   1.00
H1096  H     0.88037   0.71011   0.79837   0.00000  Uiso   1.00
H1097  H     0.78618   0.95658   0.70177   0.00000  Uiso   1.00
H1098  H     0.80467   0.90169   0.52890   0.00000  Uiso   1.00
H1099  H     0.79840   0.76956   0.97147   0.00000  Uiso   1.00
H1100  H     0.86730   0.89814   0.97051   0.00000  Uiso   1.00
H1101  H     0.86206   0.76618   0.52858   0.00000  Uiso   1.00
H1102  H     0.70396   0.75738   0.75005   0.00000  Uiso   1.00
N1103  N     0.83333   0.95069   0.75000   0.00000  Uiso   1.00
N1104  N     0.83333   0.71598   0.75000   0.00000  Uiso   1.00
N1105  N     0.79880   0.91106   0.61532   0.00000  Uiso   1.00
N1106  N     0.79129   0.75914   0.88644   0.00000  Uiso   1.00
N1107  N     0.87408   0.90639   0.88392   0.00000  Uiso   1.00
N1108  N     0.86893   0.75621   0.61583   0.00000  Uiso   1.00
O1109  O     0.77321   0.87291   0.74999   0.00000  Uiso   1.00
O1110  O     0.89345   0.79375   0.75000   0.00000  Uiso   1.00
O1111  O     0.89345   0.87291   0.75000   0.00000  Uiso   1.00
O1112  O     0.77321   0.79375   0.74999   0.00000  Uiso   1.00
O1113  O     0.83333   0.87293   0.68573   0.00000  Uiso   1.00
O1114  O     0.83334   0.79374   0.81427   0.00000  Uiso   1.00
O1115  O     0.83334   0.87293   0.81427   0.00000  Uiso   1.00
O1116  O     0.83333   0.79374   0.68573   0.00000  Uiso   1.00
loop_
_geom_bond_atom_site_label_1
_geom_bond_atom_site_label_2
_geom_bond_distance
_geom_bond_site_symmetry_2
_ccdc_geom_bond_type
C1     O55     1.290   .     A
C1     O58     1.290   .     A
C1     C19     1.450   .     S
C2     C18     1.401   .     A
C2     H30     1.083   .     S
C2     C66     1.383   .     S
C3     H31     1.083   .     S
C3     C18     1.401   .     A
C3     C88     1.383   .     S
C4     H32     1.083   .     S
C4     C19     1.401   .     A
C4     C126    1.383   1_455 S
C5     C9      1.394   .     A
C5     H44     1.084   .     S
C5     C16     1.394   .     A
C6     C10     1.391   .     A
C6     H45     1.084   .     S
C6     C17     1.395   .     A
C7     C11     1.395   .     A
C7     H46     1.084   .     S
C7     C17     1.395   .     A
C8     C13     1.398   .     A
C8     H47     1.084   .     S
C8     C16     1.395   .     A
C9     C14     1.416   .     A
C9     N51     1.433   .     S
C10    N52     1.434   .     S
C10    C15     1.421   .     A
C11    C15     1.415   .     A
C11    N53     1.434   .     S
C12    O57     1.290   .     A
C12    O56     1.290   .     A
C12    C18     1.450   .     S
C13    N54     1.439   .     S
C13    C14     1.418   .     A
C14    C20     1.472   .     S
C15    C21     1.470   .     S
C16    C575    1.458   1_554 S
C17    C574    1.458   .     S
C19    C26     1.401   .     A
C20    O62     1.294   .     A
C20    O59     1.294   .     A
C21    O61     1.295   .     A
C21    O60     1.293   .     A
C22    N50     1.367   .     A
C22    H29     1.082   .     S
C22    C397    1.415   1_545 S
C23    N49     1.367   .     A
C23    H40     1.082   .     S
C23    C210    1.415   .     S
C24    H42     1.082   .     S
C24    N50     1.367   .     A
C24    C395    1.415   1_545 S
C25    H43     1.082   .     S
C25    N49     1.367   .     A
C25    C208    1.415   .     S
C26    H48     1.083   .     S
C26    C127    1.383   1_455 S
Cu27   O59     1.961   .     S
Cu27   O55     1.965   .     S
Cu27   O57     1.965   .     S
Cu27   Cu28    2.674   .     S
Cu27   O61     1.960   .     S
Cu27   N49     2.009   .     S
Cu28   O58     1.965   .     S
Cu28   O60     1.961   .     S
Cu28   N50     2.009   .     S
Cu28   O56     1.965   .     S
Cu28   O62     1.960   .     S
H33    N51     1.046   .     S
H34    N51     1.046   .     S
H35    N52     1.046   .     S
H36    N52     1.045   .     S
H37    N53     1.046   .     S
H38    N53     1.045   .     S
H39    N54     1.046   .     S
H41    N54     1.046   .     S
C63    O117    1.290   .     A
C63    O120    1.290   .     A
C63    C81     1.450   .     S
C64    C80     1.401   .     A
C64    H92     1.083   .     S
C64    C128    1.383   .     S
C65    H93     1.083   .     S
C65    C80     1.401   .     A
C65    C150    1.383   .     S
C66    H94     1.083   .     S
C66    C81     1.401   .     A
C67    C71     1.394   .     A
C67    H106    1.084   .     S
C67    C78     1.394   .     A
C68    C72     1.391   .     A
C68    H107    1.084   .     S
C68    C79     1.395   .     A
C69    C73     1.395   .     A
C69    H108    1.084   .     S
C69    C79     1.395   .     A
C70    C75     1.398   .     A
C70    H109    1.084   .     S
C70    C78     1.395   .     A
C71    C76     1.416   .     A
C71    N113    1.433   .     S
C72    N114    1.434   .     S
C72    C77     1.421   .     A
C73    C77     1.415   .     A
C73    N115    1.434   .     S
C74    O119    1.290   .     A
C74    O118    1.290   .     A
C74    C80     1.450   .     S
C75    N116    1.439   .     S
C75    C76     1.418   .     A
C76    C82     1.472   .     S
C77    C83     1.470   .     S
C78    C637    1.458   1_554 S
C79    C636    1.458   .     S
C81    C88     1.401   .     A
C82    O124    1.294   .     A
C82    O121    1.294   .     A
C83    O123    1.295   .     A
C83    O122    1.293   .     A
C84    N112    1.367   .     A
C84    H91     1.082   .     S
C84    C459    1.415   1_545 S
C85    N111    1.367   .     A
C85    H102    1.082   .     S
C85    C272    1.415   .     S
C86    H104    1.082   .     S
C86    N112    1.367   .     A
C86    C457    1.415   1_545 S
C87    H105    1.082   .     S
C87    N111    1.367   .     A
C87    C270    1.415   .     S
C88    H110    1.083   .     S
Cu89   O121    1.961   .     S
Cu89   O117    1.965   .     S
Cu89   O119    1.965   .     S
Cu89   Cu90    2.674   .     S
Cu89   O123    1.960   .     S
Cu89   N111    2.009   .     S
Cu90   O120    1.965   .     S
Cu90   O122    1.961   .     S
Cu90   N112    2.009   .     S
Cu90   O118    1.965   .     S
Cu90   O124    1.960   .     S
H95    N113    1.046   .     S
H96    N113    1.046   .     S
H97    N114    1.046   .     S
H98    N114    1.045   .     S
H99    N115    1.046   .     S
H100   N115    1.045   .     S
H101   N116    1.046   .     S
H103   N116    1.046   .     S
C125   O179    1.290   .     A
C125   O182    1.290   .     A
C125   C143    1.450   .     S
C126   C142    1.401   .     A
C126   H154    1.083   .     S
C126   C4      1.383   1_655 S
C127   H155    1.083   .     S
C127   C142    1.401   .     A
C127   C26     1.383   1_655 S
C128   H156    1.083   .     S
C128   C143    1.401   .     A
C129   C133    1.394   .     A
C129   H168    1.084   .     S
C129   C140    1.394   .     A
C130   C134    1.391   .     A
C130   H169    1.084   .     S
C130   C141    1.395   .     A
C131   C135    1.395   .     A
C131   H170    1.084   .     S
C131   C141    1.395   .     A
C132   C137    1.398   .     A
C132   H171    1.084   .     S
C132   C140    1.395   .     A
C133   C138    1.416   .     A
C133   N175    1.433   .     S
C134   N176    1.434   .     S
C134   C139    1.421   .     A
C135   C139    1.415   .     A
C135   N177    1.434   .     S
C136   O181    1.290   .     A
C136   O180    1.290   .     A
C136   C142    1.450   .     S
C137   N178    1.439   .     S
C137   C138    1.418   .     A
C138   C144    1.472   .     S
C139   C145    1.470   .     S
C140   C699    1.458   1_554 S
C141   C698    1.458   .     S
C143   C150    1.401   .     A
C144   O186    1.294   .     A
C144   O183    1.294   .     A
C145   O185    1.295   .     A
C145   O184    1.293   .     A
C146   N174    1.367   .     A
C146   H153    1.082   .     S
C146   C521    1.415   1_545 S
C147   N173    1.367   .     A
C147   H164    1.082   .     S
C147   C334    1.415   .     S
C148   H166    1.082   .     S
C148   N174    1.367   .     A
C148   C519    1.415   1_545 S
C149   H167    1.082   .     S
C149   N173    1.367   .     A
C149   C332    1.415   .     S
C150   H172    1.083   .     S
Cu151  O183    1.961   .     S
Cu151  O179    1.965   .     S
Cu151  O181    1.965   .     S
Cu151  Cu152   2.674   .     S
Cu151  O185    1.960   .     S
Cu151  N173    2.009   .     S
Cu152  O182    1.965   .     S
Cu152  O184    1.961   .     S
Cu152  N174    2.009   .     S
Cu152  O180    1.965   .     S
Cu152  O186    1.960   .     S
H157   N175    1.046   .     S
H158   N175    1.046   .     S
H159   N176    1.046   .     S
H160   N176    1.045   .     S
H161   N177    1.046   .     S
H162   N177    1.045   .     S
H163   N178    1.046   .     S
H165   N178    1.046   .     S
C187   O241    1.290   .     A
C187   O244    1.290   .     A
C187   C205    1.450   .     S
C188   C204    1.401   .     A
C188   H216    1.083   .     S
C188   C252    1.383   .     S
C189   H217    1.083   .     S
C189   C204    1.401   .     A
C189   C274    1.383   .     S
C190   H218    1.083   .     S
C190   C205    1.401   .     A
C190   C312    1.383   1_455 S
C191   C195    1.394   .     A
C191   H230    1.084   .     S
C191   C202    1.394   .     A
C192   C196    1.391   .     A
C192   H231    1.084   .     S
C192   C203    1.395   .     A
C193   C197    1.395   .     A
C193   H232    1.084   .     S
C193   C203    1.395   .     A
C194   C199    1.398   .     A
C194   H233    1.084   .     S
C194   C202    1.395   .     A
C195   C200    1.416   .     A
C195   N237    1.433   .     S
C196   N238    1.434   .     S
C196   C201    1.421   .     A
C197   C201    1.415   .     A
C197   N239    1.434   .     S
C198   O243    1.290   .     A
C198   O242    1.290   .     A
C198   C204    1.450   .     S
C199   N240    1.439   .     S
C199   C200    1.418   .     A
C200   C206    1.472   .     S
C201   C207    1.470   .     S
C202   C761    1.458   1_554 S
C203   C760    1.458   .     S
C205   C212    1.401   .     A
C206   O248    1.294   .     A
C206   O245    1.294   .     A
C207   O247    1.295   .     A
C207   O246    1.293   .     A
C208   N236    1.367   .     A
C208   H215    1.082   .     S
C209   N235    1.367   .     A
C209   H226    1.082   .     S
C209   C396    1.415   .     S
C210   H228    1.082   .     S
C210   N236    1.367   .     A
C211   H229    1.082   .     S
C211   N235    1.367   .     A
C211   C394    1.415   .     S
C212   H234    1.083   .     S
C212   C313    1.383   1_455 S
Cu213  O245    1.961   .     S
Cu213  O241    1.965   .     S
Cu213  O243    1.965   .     S
Cu213  Cu214   2.674   .     S
Cu213  O247    1.960   .     S
Cu213  N235    2.009   .     S
Cu214  O244    1.965   .     S
Cu214  O246    1.961   .     S
Cu214  N236    2.009   .     S
Cu214  O242    1.965   .     S
Cu214  O248    1.960   .     S
H219   N237    1.046   .     S
H220   N237    1.046   .     S
H221   N238    1.046   .     S
H222   N238    1.045   .     S
H223   N239    1.046   .     S
H224   N239    1.045   .     S
H225   N240    1.046   .     S
H227   N240    1.046   .     S
C249   O303    1.290   .     A
C249   O306    1.290   .     A
C249   C267    1.450   .     S
C250   C266    1.401   .     A
C250   H278    1.083   .     S
C250   C314    1.383   .     S
C251   H279    1.083   .     S
C251   C266    1.401   .     A
C251   C336    1.383   .     S
C252   H280    1.083   .     S
C252   C267    1.401   .     A
C253   C257    1.394   .     A
C253   H292    1.084   .     S
C253   C264    1.394   .     A
C254   C258    1.391   .     A
C254   H293    1.084   .     S
C254   C265    1.395   .     A
C255   C259    1.395   .     A
C255   H294    1.084   .     S
C255   C265    1.395   .     A
C256   C261    1.398   .     A
C256   H295    1.084   .     S
C256   C264    1.395   .     A
C257   C262    1.416   .     A
C257   N299    1.433   .     S
C258   N300    1.434   .     S
C258   C263    1.421   .     A
C259   C263    1.415   .     A
C259   N301    1.434   .     S
C260   O305    1.290   .     A
C260   O304    1.290   .     A
C260   C266    1.450   .     S
C261   N302    1.439   .     S
C261   C262    1.418   .     A
C262   C268    1.472   .     S
C263   C269    1.470   .     S
C264   C823    1.458   1_554 S
C265   C822    1.458   .     S
C267   C274    1.401   .     A
C268   O310    1.294   .     A
C268   O307    1.294   .     A
C269   O309    1.295   .     A
C269   O308    1.293   .     A
C270   N298    1.367   .     A
C270   H277    1.082   .     S
C271   N297    1.367   .     A
C271   H288    1.082   .     S
C271   C458    1.415   .     S
C272   H290    1.082   .     S
C272   N298    1.367   .     A
C273   H291    1.082   .     S
C273   N297    1.367   .     A
C273   C456    1.415   .     S
C274   H296    1.083   .     S
Cu275  O307    1.961   .     S
Cu275  O303    1.965   .     S
Cu275  O305    1.965   .     S
Cu275  Cu276   2.674   .     S
Cu275  O309    1.960   .     S
Cu275  N297    2.009   .     S
Cu276  O306    1.965   .     S
Cu276  O308    1.961   .     S
Cu276  N298    2.009   .     S
Cu276  O304    1.965   .     S
Cu276  O310    1.960   .     S
H281   N299    1.046   .     S
H282   N299    1.046   .     S
H283   N300    1.046   .     S
H284   N300    1.045   .     S
H285   N301    1.046   .     S
H286   N301    1.045   .     S
H287   N302    1.046   .     S
H289   N302    1.046   .     S
C311   O365    1.290   .     A
C311   O368    1.290   .     A
C311   C329    1.450   .     S
C312   C328    1.401   .     A
C312   H340    1.083   .     S
C312   C190    1.383   1_655 S
C313   H341    1.083   .     S
C313   C328    1.401   .     A
C313   C212    1.383   1_655 S
C314   H342    1.083   .     S
C314   C329    1.401   .     A
C315   C319    1.394   .     A
C315   H354    1.084   .     S
C315   C326    1.394   .     A
C316   C320    1.391   .     A
C316   H355    1.084   .     S
C316   C327    1.395   .     A
C317   C321    1.395   .     A
C317   H356    1.084   .     S
C317   C327    1.395   .     A
C318   C323    1.398   .     A
C318   H357    1.084   .     S
C318   C326    1.395   .     A
C319   C324    1.416   .     A
C319   N361    1.433   .     S
C320   N362    1.434   .     S
C320   C325    1.421   .     A
C321   C325    1.415   .     A
C321   N363    1.434   .     S
C322   O367    1.290   .     A
C322   O366    1.290   .     A
C322   C328    1.450   .     S
C323   N364    1.439   .     S
C323   C324    1.418   .     A
C324   C330    1.472   .     S
C325   C331    1.470   .     S
C326   C885    1.458   1_554 S
C327   C884    1.458   .     S
C329   C336    1.401   .     A
C330   O372    1.294   .     A
C330   O369    1.294   .     A
C331   O371    1.295   .     A
C331   O370    1.293   .     A
C332   N360    1.367   .     A
C332   H339    1.082   .     S
C333   N359    1.367   .     A
C333   H350    1.082   .     S
C333   C520    1.415   .     S
C334   H352    1.082   .     S
C334   N360    1.367   .     A
C335   H353    1.082   .     S
C335   N359    1.367   .     A
C335   C518    1.415   .     S
C336   H358    1.083   .     S
Cu337  O369    1.961   .     S
Cu337  O365    1.965   .     S
Cu337  O367    1.965   .     S
Cu337  Cu338   2.674   .     S
Cu337  O371    1.960   .     S
Cu337  N359    2.009   .     S
Cu338  O368    1.965   .     S
Cu338  O370    1.961   .     S
Cu338  N360    2.009   .     S
Cu338  O366    1.965   .     S
Cu338  O372    1.960   .     S
H343   N361    1.046   .     S
H344   N361    1.046   .     S
H345   N362    1.046   .     S
H346   N362    1.045   .     S
H347   N363    1.046   .     S
H348   N363    1.045   .     S
H349   N364    1.046   .     S
H351   N364    1.046   .     S
C373   O427    1.290   .     A
C373   O430    1.290   .     A
C373   C391    1.450   .     S
C374   C390    1.401   .     A
C374   H402    1.083   .     S
C374   C438    1.383   .     S
C375   H403    1.083   .     S
C375   C390    1.401   .     A
C375   C460    1.383   .     S
C376   H404    1.083   .     S
C376   C391    1.401   .     A
C376   C498    1.383   1_455 S
C377   C381    1.394   .     A
C377   H416    1.084   .     S
C377   C388    1.394   .     A
C378   C382    1.391   .     A
C378   H417    1.084   .     S
C378   C389    1.395   .     A
C379   C383    1.395   .     A
C379   H418    1.084   .     S
C379   C389    1.395   .     A
C380   C385    1.398   .     A
C380   H419    1.084   .     S
C380   C388    1.395   .     A
C381   C386    1.416   .     A
C381   N423    1.433   .     S
C382   N424    1.434   .     S
C382   C387    1.421   .     A
C383   C387    1.415   .     A
C383   N425    1.434   .     S
C384   O429    1.290   .     A
C384   O428    1.290   .     A
C384   C390    1.450   .     S
C385   N426    1.439   .     S
C385   C386    1.418   .     A
C386   C392    1.472   .     S
C387   C393    1.470   .     S
C388   C947    1.458   1_554 S
C389   C946    1.458   .     S
C391   C398    1.401   .     A
C392   O434    1.294   .     A
C392   O431    1.294   .     A
C393   O433    1.295   .     A
C393   O432    1.293   .     A
C394   N422    1.367   .     A
C394   H401    1.082   .     S
C395   N421    1.367   .     A
C395   H412    1.082   .     S
C395   C24     1.415   1_565 S
C396   H414    1.082   .     S
C396   N422    1.367   .     A
C397   H415    1.082   .     S
C397   N421    1.367   .     A
C397   C22     1.415   1_565 S
C398   H420    1.083   .     S
C398   C499    1.383   1_455 S
Cu399  O431    1.961   .     S
Cu399  O427    1.965   .     S
Cu399  O429    1.965   .     S
Cu399  Cu400   2.674   .     S
Cu399  O433    1.960   .     S
Cu399  N421    2.009   .     S
Cu400  O430    1.965   .     S
Cu400  O432    1.961   .     S
Cu400  N422    2.009   .     S
Cu400  O428    1.965   .     S
Cu400  O434    1.960   .     S
H405   N423    1.046   .     S
H406   N423    1.046   .     S
H407   N424    1.046   .     S
H408   N424    1.045   .     S
H409   N425    1.046   .     S
H410   N425    1.045   .     S
H411   N426    1.046   .     S
H413   N426    1.046   .     S
C435   O489    1.290   .     A
C435   O492    1.290   .     A
C435   C453    1.450   .     S
C436   C452    1.401   .     A
C436   H464    1.083   .     S
C436   C500    1.383   .     S
C437   H465    1.083   .     S
C437   C452    1.401   .     A
C437   C522    1.383   .     S
C438   H466    1.083   .     S
C438   C453    1.401   .     A
C439   C443    1.394   .     A
C439   H478    1.084   .     S
C439   C450    1.394   .     A
C440   C444    1.391   .     A
C440   H479    1.084   .     S
C440   C451    1.395   .     A
C441   C445    1.395   .     A
C441   H480    1.084   .     S
C441   C451    1.395   .     A
C442   C447    1.398   .     A
C442   H481    1.084   .     S
C442   C450    1.395   .     A
C443   C448    1.416   .     A
C443   N485    1.433   .     S
C444   N486    1.434   .     S
C444   C449    1.421   .     A
C445   C449    1.415   .     A
C445   N487    1.434   .     S
C446   O491    1.290   .     A
C446   O490    1.290   .     A
C446   C452    1.450   .     S
C447   N488    1.439   .     S
C447   C448    1.418   .     A
C448   C454    1.472   .     S
C449   C455    1.470   .     S
C450   C1009   1.458   1_554 S
C451   C1008   1.458   .     S
C453   C460    1.401   .     A
C454   O496    1.294   .     A
C454   O493    1.294   .     A
C455   O495    1.295   .     A
C455   O494    1.293   .     A
C456   N484    1.367   .     A
C456   H463    1.082   .     S
C457   N483    1.367   .     A
C457   H474    1.082   .     S
C457   C86     1.415   1_565 S
C458   H476    1.082   .     S
C458   N484    1.367   .     A
C459   H477    1.082   .     S
C459   N483    1.367   .     A
C459   C84     1.415   1_565 S
C460   H482    1.083   .     S
Cu461  O493    1.961   .     S
Cu461  O489    1.965   .     S
Cu461  O491    1.965   .     S
Cu461  Cu462   2.674   .     S
Cu461  O495    1.960   .     S
Cu461  N483    2.009   .     S
Cu462  O492    1.965   .     S
Cu462  O494    1.961   .     S
Cu462  N484    2.009   .     S
Cu462  O490    1.965   .     S
Cu462  O496    1.960   .     S
H467   N485    1.046   .     S
H468   N485    1.046   .     S
H469   N486    1.046   .     S
H470   N486    1.045   .     S
H471   N487    1.046   .     S
H472   N487    1.045   .     S
H473   N488    1.046   .     S
H475   N488    1.046   .     S
C497   O551    1.290   .     A
C497   O554    1.290   .     A
C497   C515    1.450   .     S
C498   C514    1.401   .     A
C498   H526    1.083   .     S
C498   C376    1.383   1_655 S
C499   H527    1.083   .     S
C499   C514    1.401   .     A
C499   C398    1.383   1_655 S
C500   H528    1.083   .     S
C500   C515    1.401   .     A
C501   C505    1.394   .     A
C501   H540    1.084   .     S
C501   C512    1.394   .     A
C502   C506    1.391   .     A
C502   H541    1.084   .     S
C502   C513    1.395   .     A
C503   C507    1.395   .     A
C503   H542    1.084   .     S
C503   C513    1.395   .     A
C504   C509    1.398   .     A
C504   H543    1.084   .     S
C504   C512    1.395   .     A
C505   C510    1.416   .     A
C505   N547    1.433   .     S
C506   N548    1.434   .     S
C506   C511    1.421   .     A
C507   C511    1.415   .     A
C507   N549    1.434   .     S
C508   O553    1.290   .     A
C508   O552    1.290   .     A
C508   C514    1.450   .     S
C509   N550    1.439   .     S
C509   C510    1.418   .     A
C510   C516    1.472   .     S
C511   C517    1.470   .     S
C512   C1071   1.458   1_554 S
C513   C1070   1.458   .     S
C515   C522    1.401   .     A
C516   O558    1.294   .     A
C516   O555    1.294   .     A
C517   O557    1.295   .     A
C517   O556    1.293   .     A
C518   N546    1.367   .     A
C518   H525    1.082   .     S
C519   N545    1.367   .     A
C519   H536    1.082   .     S
C519   C148    1.415   1_565 S
C520   H538    1.082   .     S
C520   N546    1.367   .     A
C521   H539    1.082   .     S
C521   N545    1.367   .     A
C521   C146    1.415   1_565 S
C522   H544    1.083   .     S
Cu523  O555    1.961   .     S
Cu523  O551    1.965   .     S
Cu523  O553    1.965   .     S
Cu523  Cu524   2.674   .     S
Cu523  O557    1.960   .     S
Cu523  N545    2.009   .     S
Cu524  O554    1.965   .     S
Cu524  O556    1.961   .     S
Cu524  N546    2.009   .     S
Cu524  O552    1.965   .     S
Cu524  O558    1.960   .     S
H529   N547    1.046   .     S
H530   N547    1.046   .     S
H531   N548    1.046   .     S
H532   N548    1.045   .     S
H533   N549    1.046   .     S
H534   N549    1.045   .     S
H535   N550    1.046   .     S
H537   N550    1.046   .     S
C559   O613    1.290   .     A
C559   O616    1.290   .     A
C559   C577    1.450   .     S
C560   C576    1.401   .     A
C560   H588    1.083   .     S
C560   C624    1.383   .     S
C561   H589    1.083   .     S
C561   C576    1.401   .     A
C561   C646    1.383   .     S
C562   H590    1.083   .     S
C562   C577    1.401   .     A
C562   C684    1.383   1_455 S
C563   C567    1.394   .     A
C563   H602    1.084   .     S
C563   C574    1.394   .     A
C564   C568    1.391   .     A
C564   H603    1.084   .     S
C564   C575    1.395   .     A
C565   C569    1.395   .     A
C565   H604    1.084   .     S
C565   C575    1.395   .     A
C566   C571    1.398   .     A
C566   H605    1.084   .     S
C566   C574    1.395   .     A
C567   C572    1.416   .     A
C567   N609    1.433   .     S
C568   N610    1.434   .     S
C568   C573    1.421   .     A
C569   C573    1.415   .     A
C569   N611    1.434   .     S
C570   O615    1.290   .     A
C570   O614    1.290   .     A
C570   C576    1.450   .     S
C571   N612    1.439   .     S
C571   C572    1.418   .     A
C572   C578    1.472   .     S
C573   C579    1.470   .     S
C575   C16     1.458   1_556 S
C577   C584    1.401   .     A
C578   O620    1.294   .     A
C578   O617    1.294   .     A
C579   O619    1.295   .     A
C579   O618    1.293   .     A
C580   N608    1.367   .     A
C580   H587    1.082   .     S
C580   C955    1.415   1_545 S
C581   N607    1.367   .     A
C581   H598    1.082   .     S
C581   C768    1.415   .     S
C582   H600    1.082   .     S
C582   N608    1.367   .     A
C582   C953    1.415   1_545 S
C583   H601    1.082   .     S
C583   N607    1.367   .     A
C583   C766    1.415   .     S
C584   H606    1.083   .     S
C584   C685    1.383   1_455 S
Cu585  O617    1.961   .     S
Cu585  O613    1.965   .     S
Cu585  O615    1.965   .     S
Cu585  Cu586   2.674   .     S
Cu585  O619    1.960   .     S
Cu585  N607    2.009   .     S
Cu586  O616    1.965   .     S
Cu586  O618    1.961   .     S
Cu586  N608    2.009   .     S
Cu586  O614    1.965   .     S
Cu586  O620    1.960   .     S
H591   N609    1.046   .     S
H592   N609    1.046   .     S
H593   N610    1.046   .     S
H594   N610    1.045   .     S
H595   N611    1.046   .     S
H596   N611    1.045   .     S
H597   N612    1.046   .     S
H599   N612    1.046   .     S
C621   O675    1.290   .     A
C621   O678    1.290   .     A
C621   C639    1.450   .     S
C622   C638    1.401   .     A
C622   H650    1.083   .     S
C622   C686    1.383   .     S
C623   H651    1.083   .     S
C623   C638    1.401   .     A
C623   C708    1.383   .     S
C624   H652    1.083   .     S
C624   C639    1.401   .     A
C625   C629    1.394   .     A
C625   H664    1.084   .     S
C625   C636    1.394   .     A
C626   C630    1.391   .     A
C626   H665    1.084   .     S
C626   C637    1.395   .     A
C627   C631    1.395   .     A
C627   H666    1.084   .     S
C627   C637    1.395   .     A
C628   C633    1.398   .     A
C628   H667    1.084   .     S
C628   C636    1.395   .     A
C629   C634    1.416   .     A
C629   N671    1.433   .     S
C630   N672    1.434   .     S
C630   C635    1.421   .     A
C631   C635    1.415   .     A
C631   N673    1.434   .     S
C632   O677    1.290   .     A
C632   O676    1.290   .     A
C632   C638    1.450   .     S
C633   N674    1.439   .     S
C633   C634    1.418   .     A
C634   C640    1.472   .     S
C635   C641    1.470   .     S
C637   C78     1.458   1_556 S
C639   C646    1.401   .     A
C640   O682    1.294   .     A
C640   O679    1.294   .     A
C641   O681    1.295   .     A
C641   O680    1.293   .     A
C642   N670    1.367   .     A
C642   H649    1.082   .     S
C642   C1017   1.415   1_545 S
C643   N669    1.367   .     A
C643   H660    1.082   .     S
C643   C830    1.415   .     S
C644   H662    1.082   .     S
C644   N670    1.367   .     A
C644   C1015   1.415   1_545 S
C645   H663    1.082   .     S
C645   N669    1.367   .     A
C645   C828    1.415   .     S
C646   H668    1.083   .     S
Cu647  O679    1.961   .     S
Cu647  O675    1.965   .     S
Cu647  O677    1.965   .     S
Cu647  Cu648   2.674   .     S
Cu647  O681    1.960   .     S
Cu647  N669    2.009   .     S
Cu648  O678    1.965   .     S
Cu648  O680    1.961   .     S
Cu648  N670    2.009   .     S
Cu648  O676    1.965   .     S
Cu648  O682    1.960   .     S
H653   N671    1.046   .     S
H654   N671    1.046   .     S
H655   N672    1.046   .     S
H656   N672    1.045   .     S
H657   N673    1.046   .     S
H658   N673    1.045   .     S
H659   N674    1.046   .     S
H661   N674    1.046   .     S
C683   O737    1.290   .     A
C683   O740    1.290   .     A
C683   C701    1.450   .     S
C684   C700    1.401   .     A
C684   H712    1.083   .     S
C684   C562    1.383   1_655 S
C685   H713    1.083   .     S
C685   C700    1.401   .     A
C685   C584    1.383   1_655 S
C686   H714    1.083   .     S
C686   C701    1.401   .     A
C687   C691    1.394   .     A
C687   H726    1.084   .     S
C687   C698    1.394   .     A
C688   C692    1.391   .     A
C688   H727    1.084   .     S
C688   C699    1.395   .     A
C689   C693    1.395   .     A
C689   H728    1.084   .     S
C689   C699    1.395   .     A
C690   C695    1.398   .     A
C690   H729    1.084   .     S
C690   C698    1.395   .     A
C691   C696    1.416   .     A
C691   N733    1.433   .     S
C692   N734    1.434   .     S
C692   C697    1.421   .     A
C693   C697    1.415   .     A
C693   N735    1.434   .     S
C694   O739    1.290   .     A
C694   O738    1.290   .     A
C694   C700    1.450   .     S
C695   N736    1.439   .     S
C695   C696    1.418   .     A
C696   C702    1.472   .     S
C697   C703    1.470   .     S
C699   C140    1.458   1_556 S
C701   C708    1.401   .     A
C702   O744    1.294   .     A
C702   O741    1.294   .     A
C703   O743    1.295   .     A
C703   O742    1.293   .     A
C704   N732    1.367   .     A
C704   H711    1.082   .     S
C704   C1079   1.415   1_545 S
C705   N731    1.367   .     A
C705   H722    1.082   .     S
C705   C892    1.415   .     S
C706   H724    1.082   .     S
C706   N732    1.367   .     A
C706   C1077   1.415   1_545 S
C707   H725    1.082   .     S
C707   N731    1.367   .     A
C707   C890    1.415   .     S
C708   H730    1.083   .     S
Cu709  O741    1.961   .     S
Cu709  O737    1.965   .     S
Cu709  O739    1.965   .     S
Cu709  Cu710   2.674   .     S
Cu709  O743    1.960   .     S
Cu709  N731    2.009   .     S
Cu710  O740    1.965   .     S
Cu710  O742    1.961   .     S
Cu710  N732    2.009   .     S
Cu710  O738    1.965   .     S
Cu710  O744    1.960   .     S
H715   N733    1.046   .     S
H716   N733    1.046   .     S
H717   N734    1.046   .     S
H718   N734    1.045   .     S
H719   N735    1.046   .     S
H720   N735    1.045   .     S
H721   N736    1.046   .     S
H723   N736    1.046   .     S
C745   O799    1.290   .     A
C745   O802    1.290   .     A
C745   C763    1.450   .     S
C746   C762    1.401   .     A
C746   H774    1.083   .     S
C746   C810    1.383   .     S
C747   H775    1.083   .     S
C747   C762    1.401   .     A
C747   C832    1.383   .     S
C748   H776    1.083   .     S
C748   C763    1.401   .     A
C748   C870    1.383   1_455 S
C749   C753    1.394   .     A
C749   H788    1.084   .     S
C749   C760    1.394   .     A
C750   C754    1.391   .     A
C750   H789    1.084   .     S
C750   C761    1.395   .     A
C751   C755    1.395   .     A
C751   H790    1.084   .     S
C751   C761    1.395   .     A
C752   C757    1.398   .     A
C752   H791    1.084   .     S
C752   C760    1.395   .     A
C753   C758    1.416   .     A
C753   N795    1.433   .     S
C754   N796    1.434   .     S
C754   C759    1.421   .     A
C755   C759    1.415   .     A
C755   N797    1.434   .     S
C756   O801    1.290   .     A
C756   O800    1.290   .     A
C756   C762    1.450   .     S
C757   N798    1.439   .     S
C757   C758    1.418   .     A
C758   C764    1.472   .     S
C759   C765    1.470   .     S
C761   C202    1.458   1_556 S
C763   C770    1.401   .     A
C764   O806    1.294   .     A
C764   O803    1.294   .     A
C765   O805    1.295   .     A
C765   O804    1.293   .     A
C766   N794    1.367   .     A
C766   H773    1.082   .     S
C767   N793    1.367   .     A
C767   H784    1.082   .     S
C767   C954    1.415   .     S
C768   H786    1.082   .     S
C768   N794    1.367   .     A
C769   H787    1.082   .     S
C769   N793    1.367   .     A
C769   C952    1.415   .     S
C770   H792    1.083   .     S
C770   C871    1.383   1_455 S
Cu771  O803    1.961   .     S
Cu771  O799    1.965   .     S
Cu771  O801    1.965   .     S
Cu771  Cu772   2.674   .     S
Cu771  O805    1.960   .     S
Cu771  N793    2.009   .     S
Cu772  O802    1.965   .     S
Cu772  O804    1.961   .     S
Cu772  N794    2.009   .     S
Cu772  O800    1.965   .     S
Cu772  O806    1.960   .     S
H777   N795    1.046   .     S
H778   N795    1.046   .     S
H779   N796    1.046   .     S
H780   N796    1.045   .     S
H781   N797    1.046   .     S
H782   N797    1.045   .     S
H783   N798    1.046   .     S
H785   N798    1.046   .     S
C807   O861    1.290   .     A
C807   O864    1.290   .     A
C807   C825    1.450   .     S
C808   C824    1.401   .     A
C808   H836    1.083   .     S
C808   C872    1.383   .     S
C809   H837    1.083   .     S
C809   C824    1.401   .     A
C809   C894    1.383   .     S
C810   H838    1.083   .     S
C810   C825    1.401   .     A
C811   C815    1.394   .     A
C811   H850    1.084   .     S
C811   C822    1.394   .     A
C812   C816    1.391   .     A
C812   H851    1.084   .     S
C812   C823    1.395   .     A
C813   C817    1.395   .     A
C813   H852    1.084   .     S
C813   C823    1.395   .     A
C814   C819    1.398   .     A
C814   H853    1.084   .     S
C814   C822    1.395   .     A
C815   C820    1.416   .     A
C815   N857    1.433   .     S
C816   N858    1.434   .     S
C816   C821    1.421   .     A
C817   C821    1.415   .     A
C817   N859    1.434   .     S
C818   O863    1.290   .     A
C818   O862    1.290   .     A
C818   C824    1.450   .     S
C819   N860    1.439   .     S
C819   C820    1.418   .     A
C820   C826    1.472   .     S
C821   C827    1.470   .     S
C823   C264    1.458   1_556 S
C825   C832    1.401   .     A
C826   O868    1.294   .     A
C826   O865    1.294   .     A
C827   O867    1.295   .     A
C827   O866    1.293   .     A
C828   N856    1.367   .     A
C828   H835    1.082   .     S
C829   N855    1.367   .     A
C829   H846    1.082   .     S
C829   C1016   1.415   .     S
C830   H848    1.082   .     S
C830   N856    1.367   .     A
C831   H849    1.082   .     S
C831   N855    1.367   .     A
C831   C1014   1.415   .     S
C832   H854    1.083   .     S
Cu833  O865    1.961   .     S
Cu833  O861    1.965   .     S
Cu833  O863    1.965   .     S
Cu833  Cu834   2.674   .     S
Cu833  O867    1.960   .     S
Cu833  N855    2.009   .     S
Cu834  O864    1.965   .     S
Cu834  O866    1.961   .     S
Cu834  N856    2.009   .     S
Cu834  O862    1.965   .     S
Cu834  O868    1.960   .     S
H839   N857    1.046   .     S
H840   N857    1.046   .     S
H841   N858    1.046   .     S
H842   N858    1.045   .     S
H843   N859    1.046   .     S
H844   N859    1.045   .     S
H845   N860    1.046   .     S
H847   N860    1.046   .     S
C869   O923    1.290   .     A
C869   O926    1.290   .     A
C869   C887    1.450   .     S
C870   C886    1.401   .     A
C870   H898    1.083   .     S
C870   C748    1.383   1_655 S
C871   H899    1.083   .     S
C871   C886    1.401   .     A
C871   C770    1.383   1_655 S
C872   H900    1.083   .     S
C872   C887    1.401   .     A
C873   C877    1.394   .     A
C873   H912    1.084   .     S
C873   C884    1.394   .     A
C874   C878    1.391   .     A
C874   H913    1.084   .     S
C874   C885    1.395   .     A
C875   C879    1.395   .     A
C875   H914    1.084   .     S
C875   C885    1.395   .     A
C876   C881    1.398   .     A
C876   H915    1.084   .     S
C876   C884    1.395   .     A
C877   C882    1.416   .     A
C877   N919    1.433   .     S
C878   N920    1.434   .     S
C878   C883    1.421   .     A
C879   C883    1.415   .     A
C879   N921    1.434   .     S
C880   O925    1.290   .     A
C880   O924    1.290   .     A
C880   C886    1.450   .     S
C881   N922    1.439   .     S
C881   C882    1.418   .     A
C882   C888    1.472   .     S
C883   C889    1.470   .     S
C885   C326    1.458   1_556 S
C887   C894    1.401   .     A
C888   O930    1.294   .     A
C888   O927    1.294   .     A
C889   O929    1.295   .     A
C889   O928    1.293   .     A
C890   N918    1.367   .     A
C890   H897    1.082   .     S
C891   N917    1.367   .     A
C891   H908    1.082   .     S
C891   C1078   1.415   .     S
C892   H910    1.082   .     S
C892   N918    1.367   .     A
C893   H911    1.082   .     S
C893   N917    1.367   .     A
C893   C1076   1.415   .     S
C894   H916    1.083   .     S
Cu895  O927    1.961   .     S
Cu895  O923    1.965   .     S
Cu895  O925    1.965   .     S
Cu895  Cu896   2.674   .     S
Cu895  O929    1.960   .     S
Cu895  N917    2.009   .     S
Cu896  O926    1.965   .     S
Cu896  O928    1.961   .     S
Cu896  N918    2.009   .     S
Cu896  O924    1.965   .     S
Cu896  O930    1.960   .     S
H901   N919    1.046   .     S
H902   N919    1.046   .     S
H903   N920    1.046   .     S
H904   N920    1.045   .     S
H905   N921    1.046   .     S
H906   N921    1.045   .     S
H907   N922    1.046   .     S
H909   N922    1.046   .     S
C931   O985    1.290   .     A
C931   O988    1.290   .     A
C931   C949    1.450   .     S
C932   C948    1.401   .     A
C932   H960    1.083   .     S
C932   C996    1.383   .     S
C933   H961    1.083   .     S
C933   C948    1.401   .     A
C933   C1018   1.383   .     S
C934   H962    1.083   .     S
C934   C949    1.401   .     A
C934   C1056   1.383   1_455 S
C935   C939    1.394   .     A
C935   H974    1.084   .     S
C935   C946    1.394   .     A
C936   C940    1.391   .     A
C936   H975    1.084   .     S
C936   C947    1.395   .     A
C937   C941    1.395   .     A
C937   H976    1.084   .     S
C937   C947    1.395   .     A
C938   C943    1.398   .     A
C938   H977    1.084   .     S
C938   C946    1.395   .     A
C939   C944    1.416   .     A
C939   N981    1.433   .     S
C940   N982    1.434   .     S
C940   C945    1.421   .     A
C941   C945    1.415   .     A
C941   N983    1.434   .     S
C942   O987    1.290   .     A
C942   O986    1.290   .     A
C942   C948    1.450   .     S
C943   N984    1.439   .     S
C943   C944    1.418   .     A
C944   C950    1.472   .     S
C945   C951    1.470   .     S
C947   C388    1.458   1_556 S
C949   C956    1.401   .     A
C950   O992    1.294   .     A
C950   O989    1.294   .     A
C951   O991    1.295   .     A
C951   O990    1.293   .     A
C952   N980    1.367   .     A
C952   H959    1.082   .     S
C953   N979    1.367   .     A
C953   H970    1.082   .     S
C953   C582    1.415   1_565 S
C954   H972    1.082   .     S
C954   N980    1.367   .     A
C955   H973    1.082   .     S
C955   N979    1.367   .     A
C955   C580    1.415   1_565 S
C956   H978    1.083   .     S
C956   C1057   1.383   1_455 S
Cu957  O989    1.961   .     S
Cu957  O985    1.965   .     S
Cu957  O987    1.965   .     S
Cu957  Cu958   2.674   .     S
Cu957  O991    1.960   .     S
Cu957  N979    2.009   .     S
Cu958  O988    1.965   .     S
Cu958  O990    1.961   .     S
Cu958  N980    2.009   .     S
Cu958  O986    1.965   .     S
Cu958  O992    1.960   .     S
H963   N981    1.046   .     S
H964   N981    1.046   .     S
H965   N982    1.046   .     S
H966   N982    1.045   .     S
H967   N983    1.046   .     S
H968   N983    1.045   .     S
H969   N984    1.046   .     S
H971   N984    1.046   .     S
C993   O1047   1.290   .     A
C993   O1050   1.290   .     A
C993   C1011   1.450   .     S
C994   C1010   1.401   .     A
C994   H1022   1.083   .     S
C994   C1058   1.383   .     S
C995   H1023   1.083   .     S
C995   C1010   1.401   .     A
C995   C1080   1.383   .     S
C996   H1024   1.083   .     S
C996   C1011   1.401   .     A
C997   C1001   1.394   .     A
C997   H1036   1.084   .     S
C997   C1008   1.394   .     A
C998   C1002   1.391   .     A
C998   H1037   1.084   .     S
C998   C1009   1.395   .     A
C999   C1003   1.395   .     A
C999   H1038   1.084   .     S
C999   C1009   1.395   .     A
C1000  C1005   1.398   .     A
C1000  H1039   1.084   .     S
C1000  C1008   1.395   .     A
C1001  C1006   1.416   .     A
C1001  N1043   1.433   .     S
C1002  N1044   1.434   .     S
C1002  C1007   1.421   .     A
C1003  C1007   1.415   .     A
C1003  N1045   1.434   .     S
C1004  O1049   1.290   .     A
C1004  O1048   1.290   .     A
C1004  C1010   1.450   .     S
C1005  N1046   1.439   .     S
C1005  C1006   1.418   .     A
C1006  C1012   1.472   .     S
C1007  C1013   1.470   .     S
C1009  C450    1.458   1_556 S
C1011  C1018   1.401   .     A
C1012  O1054   1.294   .     A
C1012  O1051   1.294   .     A
C1013  O1053   1.295   .     A
C1013  O1052   1.293   .     A
C1014  N1042   1.367   .     A
C1014  H1021   1.082   .     S
C1015  N1041   1.367   .     A
C1015  H1032   1.082   .     S
C1015  C644    1.415   1_565 S
C1016  H1034   1.082   .     S
C1016  N1042   1.367   .     A
C1017  H1035   1.082   .     S
C1017  N1041   1.367   .     A
C1017  C642    1.415   1_565 S
C1018  H1040   1.083   .     S
Cu1019 O1051   1.961   .     S
Cu1019 O1047   1.965   .     S
Cu1019 O1049   1.965   .     S
Cu1019 Cu1020  2.674   .     S
Cu1019 O1053   1.960   .     S
Cu1019 N1041   2.009   .     S
Cu1020 O1050   1.965   .     S
Cu1020 O1052   1.961   .     S
Cu1020 N1042   2.009   .     S
Cu1020 O1048   1.965   .     S
Cu1020 O1054   1.960   .     S
H1025  N1043   1.046   .     S
H1026  N1043   1.046   .     S
H1027  N1044   1.046   .     S
H1028  N1044   1.045   .     S
H1029  N1045   1.046   .     S
H1030  N1045   1.045   .     S
H1031  N1046   1.046   .     S
H1033  N1046   1.046   .     S
C1055  O1109   1.290   .     A
C1055  O1112   1.290   .     A
C1055  C1073   1.450   .     S
C1056  C1072   1.401   .     A
C1056  H1084   1.083   .     S
C1056  C934    1.383   1_655 S
C1057  H1085   1.083   .     S
C1057  C1072   1.401   .     A
C1057  C956    1.383   1_655 S
C1058  H1086   1.083   .     S
C1058  C1073   1.401   .     A
C1059  C1063   1.394   .     A
C1059  H1098   1.084   .     S
C1059  C1070   1.394   .     A
C1060  C1064   1.391   .     A
C1060  H1099   1.084   .     S
C1060  C1071   1.395   .     A
C1061  C1065   1.395   .     A
C1061  H1100   1.084   .     S
C1061  C1071   1.395   .     A
C1062  C1067   1.398   .     A
C1062  H1101   1.084   .     S
C1062  C1070   1.395   .     A
C1063  C1068   1.416   .     A
C1063  N1105   1.433   .     S
C1064  N1106   1.434   .     S
C1064  C1069   1.421   .     A
C1065  C1069   1.415   .     A
C1065  N1107   1.434   .     S
C1066  O1111   1.290   .     A
C1066  O1110   1.290   .     A
C1066  C1072   1.450   .     S
C1067  N1108   1.439   .     S
C1067  C1068   1.418   .     A
C1068  C1074   1.472   .     S
C1069  C1075   1.470   .     S
C1071  C512    1.458   1_556 S
C1073  C1080   1.401   .     A
C1074  O1116   1.294   .     A
C1074  O1113   1.294   .     A
C1075  O1115   1.295   .     A
C1075  O1114   1.293   .     A
C1076  N1104   1.367   .     A
C1076  H1083   1.082   .     S
C1077  N1103   1.367   .     A
C1077  H1094   1.082   .     S
C1077  C706    1.415   1_565 S
C1078  H1096   1.082   .     S
C1078  N1104   1.367   .     A
C1079  H1097   1.082   .     S
C1079  N1103   1.367   .     A
C1079  C704    1.415   1_565 S
C1080  H1102   1.083   .     S
Cu1081 O1113   1.961   .     S
Cu1081 O1109   1.965   .     S
Cu1081 O1111   1.965   .     S
Cu1081 Cu1082  2.674   .     S
Cu1081 O1115   1.960   .     S
Cu1081 N1103   2.009   .     S
Cu1082 O1112   1.965   .     S
Cu1082 O1114   1.961   .     S
Cu1082 N1104   2.009   .     S
Cu1082 O1110   1.965   .     S
Cu1082 O1116   1.960   .     S
H1087  N1105   1.046   .     S
H1088  N1105   1.046   .     S
H1089  N1106   1.046   .     S
H1090  N1106   1.045   .     S
H1091  N1107   1.046   .     S
H1092  N1107   1.045   .     S
H1093  N1108   1.046   .     S
H1095  N1108   1.046   .     S
