data_str_m2_o10_o16_pcu_sym.59
_audit_creation_date              2020-01-03
_audit_creation_method            'Materials Studio'
_symmetry_space_group_name_H-M    'P1'
_symmetry_Int_Tables_number       1
_symmetry_cell_setting            triclinic
loop_
_symmetry_equiv_pos_as_xyz
  x,y,z
_cell_length_a                    22.4421
_cell_length_b                    26.0435
_cell_length_c                    26.5170
_cell_angle_alpha                 94.4972
_cell_angle_beta                  77.6452
_cell_angle_gamma                 103.3562
loop_
_atom_site_label
_atom_site_type_symbol
_atom_site_fract_x
_atom_site_fract_y
_atom_site_fract_z
_atom_site_U_iso_or_equiv
_atom_site_adp_type
_atom_site_occupancy
C1     C     0.18201   0.26669   0.25048   0.00000  Uiso   1.00
C2     C     0.11105   0.15723   0.40382   0.00000  Uiso   1.00
C3     C     0.18854   0.32273   0.25205   0.00000  Uiso   1.00
C4     C     0.13282   0.16285   0.34734   0.00000  Uiso   1.00
C5     C     0.15008   0.01113   0.23225   0.00000  Uiso   1.00
C6     C     0.15332   0.06685   0.24366   0.00000  Uiso   1.00
C7     C     0.20040   0.17165   0.15294   0.00000  Uiso   1.00
C8     C     0.27827   0.24809   0.03334   0.00000  Uiso   1.00
C9     C     0.21999   0.18509   0.09842   0.00000  Uiso   1.00
C10    C     0.05522   0.12017   0.42409   0.00000  Uiso   1.00
C11    C     0.03429   0.11729   0.47753   0.00000  Uiso   1.00
C12    C     0.13320   0.17275   0.49091   0.00000  Uiso   1.00
C13    C     0.07163   0.14417   0.01144   0.00000  Uiso   1.00
C14    C     0.06871   0.00325   0.17795   0.00000  Uiso   1.00
C15    C     0.00045   0.20827   0.30849   0.00000  Uiso   1.00
C16    C     0.01785   0.08268   0.39142   0.00000  Uiso   1.00
C17    C     0.04183   0.14757   0.06703   0.00000  Uiso   1.00
C18    C     0.14811   0.18611   0.43827   0.00000  Uiso   1.00
C19    C     0.18067   0.18890   0.02041   0.00000  Uiso   1.00
C20    C     0.23362   0.22931   0.00249   0.00000  Uiso   1.00
C21    C     0.24082   0.25043   0.45424   0.00000  Uiso   1.00
C22    C     0.19964   0.22818   0.42188   0.00000  Uiso   1.00
C23    C     0.17845   0.16398   0.06595   0.00000  Uiso   1.00
C24    C     0.27025   0.22723   0.08192   0.00000  Uiso   1.00
Cu25   Cu    0.10710   0.16105   0.24435   0.00000  Uiso   1.00
Cu26   Cu    0.22623   0.17228   0.25564   0.00000  Uiso   1.00
H27    H     0.30152   0.24540   0.10734   0.00000  Uiso   1.00
H28    H     0.04542   0.30708   0.15176   0.00000  Uiso   1.00
H29    H     0.09282   0.03927   0.15577   0.00000  Uiso   1.00
H30    H     0.03169   0.01175   0.21052   0.00000  Uiso   1.00
H31    H     0.33143   0.20669   0.38473   0.00000  Uiso   1.00
H32    H     0.26562   0.04404   0.38078   0.00000  Uiso   1.00
H33    H     0.03662   0.19110   0.13367   0.00000  Uiso   1.00
H34    H     0.33185   0.13052   0.20693   0.00000  Uiso   1.00
H35    H     0.28004   0.28245   0.44044   0.00000  Uiso   1.00
H36    H     0.31801   0.28008   0.02070   0.00000  Uiso   1.00
H37    H     0.14270   0.12912   0.07804   0.00000  Uiso   1.00
H38    H     0.32203   0.09305   0.49297   0.00000  Uiso   1.00
H39    H     0.20830   0.24487   0.38425   0.00000  Uiso   1.00
H40    H     0.22192   0.01253   0.27393   0.00000  Uiso   1.00
H41    H     0.13698   0.29239   0.16937   0.00000  Uiso   1.00
N42    N     0.31574   0.18074   0.26416   0.00000  Uiso   1.00
N43    N     0.01759   0.15259   0.23584   0.00000  Uiso   1.00
N44    N     0.11328   0.31482   0.19686   0.00000  Uiso   1.00
O45    O     0.12797   0.23807   0.24633   0.00000  Uiso   1.00
O46    O     0.31624   0.18311   0.35571   0.00000  Uiso   1.00
O47    O     0.04391   0.06050   0.35362   0.00000  Uiso   1.00
O48    O     0.28589   0.07066   0.40551   0.00000  Uiso   1.00
O49    O     0.00032   0.11128   0.08674   0.00000  Uiso   1.00
O50    O     0.06017   0.19318   0.09651   0.00000  Uiso   1.00
O51    O     0.22858   0.24755   0.25586   0.00000  Uiso   1.00
O52    O     0.09181   0.15960   0.31839   0.00000  Uiso   1.00
O53    O     0.19242   0.16908   0.32793   0.00000  Uiso   1.00
O54    O     0.10476   0.08578   0.24413   0.00000  Uiso   1.00
O55    O     0.20536   0.09526   0.25367   0.00000  Uiso   1.00
O56    O     0.14092   0.16425   0.17207   0.00000  Uiso   1.00
O57    O     0.24152   0.17373   0.18160   0.00000  Uiso   1.00
O58    O     0.02421   0.25546   0.30676   0.00000  Uiso   1.00
C59    C     0.51535   0.26669   0.25048   0.00000  Uiso   1.00
C60    C     0.44438   0.15723   0.40382   0.00000  Uiso   1.00
C61    C     0.52188   0.32273   0.25205   0.00000  Uiso   1.00
C62    C     0.46616   0.16285   0.34734   0.00000  Uiso   1.00
C63    C     0.48342   0.01113   0.23225   0.00000  Uiso   1.00
C64    C     0.48666   0.06685   0.24366   0.00000  Uiso   1.00
C65    C     0.53374   0.17165   0.15294   0.00000  Uiso   1.00
C66    C     0.61161   0.24809   0.03334   0.00000  Uiso   1.00
C67    C     0.55332   0.18509   0.09842   0.00000  Uiso   1.00
C68    C     0.38856   0.12017   0.42409   0.00000  Uiso   1.00
C69    C     0.36763   0.11729   0.47753   0.00000  Uiso   1.00
C70    C     0.46653   0.17275   0.49091   0.00000  Uiso   1.00
C71    C     0.40496   0.14417   0.01144   0.00000  Uiso   1.00
C72    C     0.40204   0.00325   0.17795   0.00000  Uiso   1.00
C73    C     0.33378   0.20827   0.30849   0.00000  Uiso   1.00
C74    C     0.35118   0.08268   0.39142   0.00000  Uiso   1.00
C75    C     0.37517   0.14757   0.06703   0.00000  Uiso   1.00
C76    C     0.48144   0.18611   0.43827   0.00000  Uiso   1.00
C77    C     0.51401   0.18890   0.02041   0.00000  Uiso   1.00
C78    C     0.56695   0.22931   0.00249   0.00000  Uiso   1.00
C79    C     0.57415   0.25043   0.45424   0.00000  Uiso   1.00
C80    C     0.53297   0.22818   0.42188   0.00000  Uiso   1.00
C81    C     0.51179   0.16398   0.06595   0.00000  Uiso   1.00
C82    C     0.60358   0.22723   0.08192   0.00000  Uiso   1.00
Cu83   Cu    0.44043   0.16105   0.24435   0.00000  Uiso   1.00
Cu84   Cu    0.55957   0.17228   0.25564   0.00000  Uiso   1.00
H85    H     0.63485   0.24540   0.10734   0.00000  Uiso   1.00
H86    H     0.37875   0.30708   0.15176   0.00000  Uiso   1.00
H87    H     0.42615   0.03927   0.15577   0.00000  Uiso   1.00
H88    H     0.36503   0.01175   0.21052   0.00000  Uiso   1.00
H89    H     0.66477   0.20669   0.38473   0.00000  Uiso   1.00
H90    H     0.59895   0.04404   0.38078   0.00000  Uiso   1.00
H91    H     0.36996   0.19110   0.13367   0.00000  Uiso   1.00
H92    H     0.66519   0.13052   0.20693   0.00000  Uiso   1.00
H93    H     0.61338   0.28245   0.44044   0.00000  Uiso   1.00
H94    H     0.65134   0.28008   0.02070   0.00000  Uiso   1.00
H95    H     0.47603   0.12912   0.07804   0.00000  Uiso   1.00
H96    H     0.65536   0.09305   0.49297   0.00000  Uiso   1.00
H97    H     0.54163   0.24487   0.38425   0.00000  Uiso   1.00
H98    H     0.55525   0.01253   0.27393   0.00000  Uiso   1.00
H99    H     0.47031   0.29239   0.16937   0.00000  Uiso   1.00
N100   N     0.64908   0.18074   0.26416   0.00000  Uiso   1.00
N101   N     0.35092   0.15259   0.23584   0.00000  Uiso   1.00
N102   N     0.44662   0.31482   0.19686   0.00000  Uiso   1.00
O103   O     0.46131   0.23807   0.24633   0.00000  Uiso   1.00
O104   O     0.64957   0.18311   0.35571   0.00000  Uiso   1.00
O105   O     0.37725   0.06050   0.35362   0.00000  Uiso   1.00
O106   O     0.61922   0.07066   0.40551   0.00000  Uiso   1.00
O107   O     0.33365   0.11128   0.08674   0.00000  Uiso   1.00
O108   O     0.39350   0.19318   0.09651   0.00000  Uiso   1.00
O109   O     0.56191   0.24755   0.25586   0.00000  Uiso   1.00
O110   O     0.42515   0.15960   0.31839   0.00000  Uiso   1.00
O111   O     0.52575   0.16908   0.32793   0.00000  Uiso   1.00
O112   O     0.43809   0.08578   0.24413   0.00000  Uiso   1.00
O113   O     0.53869   0.09526   0.25367   0.00000  Uiso   1.00
O114   O     0.47425   0.16425   0.17207   0.00000  Uiso   1.00
O115   O     0.57485   0.17373   0.18160   0.00000  Uiso   1.00
O116   O     0.35755   0.25546   0.30676   0.00000  Uiso   1.00
C117   C     0.84868   0.26669   0.25048   0.00000  Uiso   1.00
C118   C     0.77771   0.15723   0.40382   0.00000  Uiso   1.00
C119   C     0.85521   0.32273   0.25205   0.00000  Uiso   1.00
C120   C     0.79949   0.16285   0.34734   0.00000  Uiso   1.00
C121   C     0.81675   0.01113   0.23225   0.00000  Uiso   1.00
C122   C     0.81999   0.06685   0.24366   0.00000  Uiso   1.00
C123   C     0.86707   0.17165   0.15294   0.00000  Uiso   1.00
C124   C     0.94494   0.24809   0.03334   0.00000  Uiso   1.00
C125   C     0.88665   0.18509   0.09842   0.00000  Uiso   1.00
C126   C     0.72189   0.12017   0.42409   0.00000  Uiso   1.00
C127   C     0.70096   0.11729   0.47753   0.00000  Uiso   1.00
C128   C     0.79987   0.17275   0.49091   0.00000  Uiso   1.00
C129   C     0.73829   0.14417   0.01144   0.00000  Uiso   1.00
C130   C     0.73537   0.00325   0.17795   0.00000  Uiso   1.00
C131   C     0.66711   0.20827   0.30849   0.00000  Uiso   1.00
C132   C     0.68452   0.08268   0.39142   0.00000  Uiso   1.00
C133   C     0.70850   0.14757   0.06703   0.00000  Uiso   1.00
C134   C     0.81477   0.18611   0.43827   0.00000  Uiso   1.00
C135   C     0.84734   0.18890   0.02041   0.00000  Uiso   1.00
C136   C     0.90028   0.22931   0.00249   0.00000  Uiso   1.00
C137   C     0.90749   0.25043   0.45424   0.00000  Uiso   1.00
C138   C     0.86630   0.22818   0.42188   0.00000  Uiso   1.00
C139   C     0.84512   0.16398   0.06595   0.00000  Uiso   1.00
C140   C     0.93691   0.22723   0.08192   0.00000  Uiso   1.00
Cu141  Cu    0.77377   0.16105   0.24435   0.00000  Uiso   1.00
Cu142  Cu    0.89290   0.17228   0.25564   0.00000  Uiso   1.00
H143   H     0.96819   0.24540   0.10734   0.00000  Uiso   1.00
H144   H     0.71208   0.30708   0.15176   0.00000  Uiso   1.00
H145   H     0.75948   0.03927   0.15577   0.00000  Uiso   1.00
H146   H     0.69836   0.01175   0.21052   0.00000  Uiso   1.00
H147   H     0.99810   0.20669   0.38473   0.00000  Uiso   1.00
H148   H     0.93229   0.04404   0.38078   0.00000  Uiso   1.00
H149   H     0.70329   0.19110   0.13367   0.00000  Uiso   1.00
H150   H     0.99852   0.13052   0.20693   0.00000  Uiso   1.00
H151   H     0.94671   0.28245   0.44044   0.00000  Uiso   1.00
H152   H     0.98467   0.28008   0.02070   0.00000  Uiso   1.00
H153   H     0.80937   0.12912   0.07804   0.00000  Uiso   1.00
H154   H     0.98870   0.09305   0.49297   0.00000  Uiso   1.00
H155   H     0.87497   0.24487   0.38425   0.00000  Uiso   1.00
H156   H     0.88858   0.01253   0.27393   0.00000  Uiso   1.00
H157   H     0.80364   0.29239   0.16937   0.00000  Uiso   1.00
N158   N     0.98241   0.18074   0.26416   0.00000  Uiso   1.00
N159   N     0.68426   0.15259   0.23584   0.00000  Uiso   1.00
N160   N     0.77995   0.31482   0.19686   0.00000  Uiso   1.00
O161   O     0.79464   0.23807   0.24633   0.00000  Uiso   1.00
O162   O     0.98291   0.18311   0.35571   0.00000  Uiso   1.00
O163   O     0.71058   0.06050   0.35362   0.00000  Uiso   1.00
O164   O     0.95256   0.07066   0.40551   0.00000  Uiso   1.00
O165   O     0.66699   0.11128   0.08674   0.00000  Uiso   1.00
O166   O     0.72683   0.19318   0.09651   0.00000  Uiso   1.00
O167   O     0.89524   0.24755   0.25586   0.00000  Uiso   1.00
O168   O     0.75848   0.15960   0.31839   0.00000  Uiso   1.00
O169   O     0.85908   0.16908   0.32793   0.00000  Uiso   1.00
O170   O     0.77142   0.08578   0.24413   0.00000  Uiso   1.00
O171   O     0.87203   0.09526   0.25367   0.00000  Uiso   1.00
O172   O     0.80758   0.16425   0.17207   0.00000  Uiso   1.00
O173   O     0.90819   0.17373   0.18160   0.00000  Uiso   1.00
O174   O     0.69088   0.25546   0.30676   0.00000  Uiso   1.00
C175   C     0.18201   0.60002   0.25048   0.00000  Uiso   1.00
C176   C     0.11105   0.49056   0.40382   0.00000  Uiso   1.00
C177   C     0.18854   0.65606   0.25205   0.00000  Uiso   1.00
C178   C     0.13282   0.49619   0.34734   0.00000  Uiso   1.00
C179   C     0.15008   0.34447   0.23225   0.00000  Uiso   1.00
C180   C     0.15332   0.40018   0.24366   0.00000  Uiso   1.00
C181   C     0.20040   0.50499   0.15294   0.00000  Uiso   1.00
C182   C     0.27827   0.58142   0.03334   0.00000  Uiso   1.00
C183   C     0.21999   0.51843   0.09842   0.00000  Uiso   1.00
C184   C     0.05522   0.45350   0.42409   0.00000  Uiso   1.00
C185   C     0.03429   0.45063   0.47753   0.00000  Uiso   1.00
C186   C     0.13320   0.50608   0.49091   0.00000  Uiso   1.00
C187   C     0.07163   0.47750   0.01144   0.00000  Uiso   1.00
C188   C     0.06871   0.33658   0.17795   0.00000  Uiso   1.00
C189   C     0.00045   0.54160   0.30849   0.00000  Uiso   1.00
C190   C     0.01785   0.41601   0.39142   0.00000  Uiso   1.00
C191   C     0.04183   0.48091   0.06703   0.00000  Uiso   1.00
C192   C     0.14811   0.51944   0.43827   0.00000  Uiso   1.00
C193   C     0.18067   0.52223   0.02041   0.00000  Uiso   1.00
C194   C     0.23362   0.56265   0.00249   0.00000  Uiso   1.00
C195   C     0.24082   0.58376   0.45424   0.00000  Uiso   1.00
C196   C     0.19964   0.56151   0.42188   0.00000  Uiso   1.00
C197   C     0.17845   0.49731   0.06595   0.00000  Uiso   1.00
C198   C     0.27025   0.56056   0.08192   0.00000  Uiso   1.00
Cu199  Cu    0.10710   0.49439   0.24435   0.00000  Uiso   1.00
Cu200  Cu    0.22623   0.50561   0.25564   0.00000  Uiso   1.00
H201   H     0.30152   0.57873   0.10734   0.00000  Uiso   1.00
H202   H     0.04542   0.64041   0.15176   0.00000  Uiso   1.00
H203   H     0.09282   0.37260   0.15577   0.00000  Uiso   1.00
H204   H     0.03169   0.34509   0.21052   0.00000  Uiso   1.00
H205   H     0.33143   0.54003   0.38473   0.00000  Uiso   1.00
H206   H     0.26562   0.37738   0.38078   0.00000  Uiso   1.00
H207   H     0.03662   0.52443   0.13367   0.00000  Uiso   1.00
H208   H     0.33185   0.46386   0.20693   0.00000  Uiso   1.00
H209   H     0.28004   0.61578   0.44044   0.00000  Uiso   1.00
H210   H     0.31801   0.61342   0.02070   0.00000  Uiso   1.00
H211   H     0.14270   0.46246   0.07804   0.00000  Uiso   1.00
H212   H     0.32203   0.42638   0.49297   0.00000  Uiso   1.00
H213   H     0.20830   0.57820   0.38425   0.00000  Uiso   1.00
H214   H     0.22192   0.34587   0.27393   0.00000  Uiso   1.00
H215   H     0.13698   0.62573   0.16937   0.00000  Uiso   1.00
N216   N     0.31574   0.51407   0.26416   0.00000  Uiso   1.00
N217   N     0.01759   0.48593   0.23584   0.00000  Uiso   1.00
N218   N     0.11328   0.64815   0.19686   0.00000  Uiso   1.00
O219   O     0.12797   0.57141   0.24633   0.00000  Uiso   1.00
O220   O     0.31624   0.51645   0.35571   0.00000  Uiso   1.00
O221   O     0.04391   0.39384   0.35362   0.00000  Uiso   1.00
O222   O     0.28589   0.40399   0.40551   0.00000  Uiso   1.00
O223   O     0.00032   0.44461   0.08674   0.00000  Uiso   1.00
O224   O     0.06017   0.52651   0.09651   0.00000  Uiso   1.00
O225   O     0.22858   0.58089   0.25586   0.00000  Uiso   1.00
O226   O     0.09181   0.49293   0.31839   0.00000  Uiso   1.00
O227   O     0.19242   0.50241   0.32793   0.00000  Uiso   1.00
O228   O     0.10476   0.41911   0.24413   0.00000  Uiso   1.00
O229   O     0.20536   0.42859   0.25367   0.00000  Uiso   1.00
O230   O     0.14092   0.49759   0.17207   0.00000  Uiso   1.00
O231   O     0.24152   0.50707   0.18160   0.00000  Uiso   1.00
O232   O     0.02421   0.58879   0.30676   0.00000  Uiso   1.00
C233   C     0.51535   0.60002   0.25048   0.00000  Uiso   1.00
C234   C     0.44438   0.49056   0.40382   0.00000  Uiso   1.00
C235   C     0.52188   0.65606   0.25205   0.00000  Uiso   1.00
C236   C     0.46616   0.49619   0.34734   0.00000  Uiso   1.00
C237   C     0.48342   0.34447   0.23225   0.00000  Uiso   1.00
C238   C     0.48666   0.40018   0.24366   0.00000  Uiso   1.00
C239   C     0.53374   0.50499   0.15294   0.00000  Uiso   1.00
C240   C     0.61161   0.58142   0.03334   0.00000  Uiso   1.00
C241   C     0.55332   0.51843   0.09842   0.00000  Uiso   1.00
C242   C     0.38856   0.45350   0.42409   0.00000  Uiso   1.00
C243   C     0.36763   0.45063   0.47753   0.00000  Uiso   1.00
C244   C     0.46653   0.50608   0.49091   0.00000  Uiso   1.00
C245   C     0.40496   0.47750   0.01144   0.00000  Uiso   1.00
C246   C     0.40204   0.33658   0.17795   0.00000  Uiso   1.00
C247   C     0.33378   0.54160   0.30849   0.00000  Uiso   1.00
C248   C     0.35118   0.41601   0.39142   0.00000  Uiso   1.00
C249   C     0.37517   0.48091   0.06703   0.00000  Uiso   1.00
C250   C     0.48144   0.51944   0.43827   0.00000  Uiso   1.00
C251   C     0.51401   0.52223   0.02041   0.00000  Uiso   1.00
C252   C     0.56695   0.56265   0.00249   0.00000  Uiso   1.00
C253   C     0.57415   0.58376   0.45424   0.00000  Uiso   1.00
C254   C     0.53297   0.56151   0.42188   0.00000  Uiso   1.00
C255   C     0.51179   0.49731   0.06595   0.00000  Uiso   1.00
C256   C     0.60358   0.56056   0.08192   0.00000  Uiso   1.00
Cu257  Cu    0.44043   0.49439   0.24435   0.00000  Uiso   1.00
Cu258  Cu    0.55957   0.50561   0.25564   0.00000  Uiso   1.00
H259   H     0.63485   0.57873   0.10734   0.00000  Uiso   1.00
H260   H     0.37875   0.64041   0.15176   0.00000  Uiso   1.00
H261   H     0.42615   0.37260   0.15577   0.00000  Uiso   1.00
H262   H     0.36503   0.34509   0.21052   0.00000  Uiso   1.00
H263   H     0.66477   0.54003   0.38473   0.00000  Uiso   1.00
H264   H     0.59895   0.37738   0.38078   0.00000  Uiso   1.00
H265   H     0.36996   0.52443   0.13367   0.00000  Uiso   1.00
H266   H     0.66519   0.46386   0.20693   0.00000  Uiso   1.00
H267   H     0.61338   0.61578   0.44044   0.00000  Uiso   1.00
H268   H     0.65134   0.61342   0.02070   0.00000  Uiso   1.00
H269   H     0.47603   0.46246   0.07804   0.00000  Uiso   1.00
H270   H     0.65536   0.42638   0.49297   0.00000  Uiso   1.00
H271   H     0.54163   0.57820   0.38425   0.00000  Uiso   1.00
H272   H     0.55525   0.34587   0.27393   0.00000  Uiso   1.00
H273   H     0.47031   0.62573   0.16937   0.00000  Uiso   1.00
N274   N     0.64908   0.51407   0.26416   0.00000  Uiso   1.00
N275   N     0.35092   0.48593   0.23584   0.00000  Uiso   1.00
N276   N     0.44662   0.64815   0.19686   0.00000  Uiso   1.00
O277   O     0.46131   0.57141   0.24633   0.00000  Uiso   1.00
O278   O     0.64957   0.51645   0.35571   0.00000  Uiso   1.00
O279   O     0.37725   0.39384   0.35362   0.00000  Uiso   1.00
O280   O     0.61922   0.40399   0.40551   0.00000  Uiso   1.00
O281   O     0.33365   0.44461   0.08674   0.00000  Uiso   1.00
O282   O     0.39350   0.52651   0.09651   0.00000  Uiso   1.00
O283   O     0.56191   0.58089   0.25586   0.00000  Uiso   1.00
O284   O     0.42515   0.49293   0.31839   0.00000  Uiso   1.00
O285   O     0.52575   0.50241   0.32793   0.00000  Uiso   1.00
O286   O     0.43809   0.41911   0.24413   0.00000  Uiso   1.00
O287   O     0.53869   0.42859   0.25367   0.00000  Uiso   1.00
O288   O     0.47425   0.49759   0.17207   0.00000  Uiso   1.00
O289   O     0.57485   0.50707   0.18160   0.00000  Uiso   1.00
O290   O     0.35755   0.58879   0.30676   0.00000  Uiso   1.00
C291   C     0.84868   0.60002   0.25048   0.00000  Uiso   1.00
C292   C     0.77771   0.49056   0.40382   0.00000  Uiso   1.00
C293   C     0.85521   0.65606   0.25205   0.00000  Uiso   1.00
C294   C     0.79949   0.49619   0.34734   0.00000  Uiso   1.00
C295   C     0.81675   0.34447   0.23225   0.00000  Uiso   1.00
C296   C     0.81999   0.40018   0.24366   0.00000  Uiso   1.00
C297   C     0.86707   0.50499   0.15294   0.00000  Uiso   1.00
C298   C     0.94494   0.58142   0.03334   0.00000  Uiso   1.00
C299   C     0.88665   0.51843   0.09842   0.00000  Uiso   1.00
C300   C     0.72189   0.45350   0.42409   0.00000  Uiso   1.00
C301   C     0.70096   0.45063   0.47753   0.00000  Uiso   1.00
C302   C     0.79987   0.50608   0.49091   0.00000  Uiso   1.00
C303   C     0.73829   0.47750   0.01144   0.00000  Uiso   1.00
C304   C     0.73537   0.33658   0.17795   0.00000  Uiso   1.00
C305   C     0.66711   0.54160   0.30849   0.00000  Uiso   1.00
C306   C     0.68452   0.41601   0.39142   0.00000  Uiso   1.00
C307   C     0.70850   0.48091   0.06703   0.00000  Uiso   1.00
C308   C     0.81477   0.51944   0.43827   0.00000  Uiso   1.00
C309   C     0.84734   0.52223   0.02041   0.00000  Uiso   1.00
C310   C     0.90028   0.56265   0.00249   0.00000  Uiso   1.00
C311   C     0.90749   0.58376   0.45424   0.00000  Uiso   1.00
C312   C     0.86630   0.56151   0.42188   0.00000  Uiso   1.00
C313   C     0.84512   0.49731   0.06595   0.00000  Uiso   1.00
C314   C     0.93691   0.56056   0.08192   0.00000  Uiso   1.00
Cu315  Cu    0.77377   0.49439   0.24435   0.00000  Uiso   1.00
Cu316  Cu    0.89290   0.50561   0.25564   0.00000  Uiso   1.00
H317   H     0.96819   0.57873   0.10734   0.00000  Uiso   1.00
H318   H     0.71208   0.64041   0.15176   0.00000  Uiso   1.00
H319   H     0.75948   0.37260   0.15577   0.00000  Uiso   1.00
H320   H     0.69836   0.34509   0.21052   0.00000  Uiso   1.00
H321   H     0.99810   0.54003   0.38473   0.00000  Uiso   1.00
H322   H     0.93229   0.37738   0.38078   0.00000  Uiso   1.00
H323   H     0.70329   0.52443   0.13367   0.00000  Uiso   1.00
H324   H     0.99852   0.46386   0.20693   0.00000  Uiso   1.00
H325   H     0.94671   0.61578   0.44044   0.00000  Uiso   1.00
H326   H     0.98467   0.61342   0.02070   0.00000  Uiso   1.00
H327   H     0.80937   0.46246   0.07804   0.00000  Uiso   1.00
H328   H     0.98870   0.42638   0.49297   0.00000  Uiso   1.00
H329   H     0.87497   0.57820   0.38425   0.00000  Uiso   1.00
H330   H     0.88858   0.34587   0.27393   0.00000  Uiso   1.00
H331   H     0.80364   0.62573   0.16937   0.00000  Uiso   1.00
N332   N     0.98241   0.51407   0.26416   0.00000  Uiso   1.00
N333   N     0.68426   0.48593   0.23584   0.00000  Uiso   1.00
N334   N     0.77995   0.64815   0.19686   0.00000  Uiso   1.00
O335   O     0.79464   0.57141   0.24633   0.00000  Uiso   1.00
O336   O     0.98291   0.51645   0.35571   0.00000  Uiso   1.00
O337   O     0.71058   0.39384   0.35362   0.00000  Uiso   1.00
O338   O     0.95256   0.40399   0.40551   0.00000  Uiso   1.00
O339   O     0.66699   0.44461   0.08674   0.00000  Uiso   1.00
O340   O     0.72683   0.52651   0.09651   0.00000  Uiso   1.00
O341   O     0.89524   0.58089   0.25586   0.00000  Uiso   1.00
O342   O     0.75848   0.49293   0.31839   0.00000  Uiso   1.00
O343   O     0.85908   0.50241   0.32793   0.00000  Uiso   1.00
O344   O     0.77142   0.41911   0.24413   0.00000  Uiso   1.00
O345   O     0.87203   0.42859   0.25367   0.00000  Uiso   1.00
O346   O     0.80758   0.49759   0.17207   0.00000  Uiso   1.00
O347   O     0.90819   0.50707   0.18160   0.00000  Uiso   1.00
O348   O     0.69088   0.58879   0.30676   0.00000  Uiso   1.00
C349   C     0.18201   0.93335   0.25048   0.00000  Uiso   1.00
C350   C     0.11105   0.82389   0.40382   0.00000  Uiso   1.00
C351   C     0.18854   0.98940   0.25205   0.00000  Uiso   1.00
C352   C     0.13282   0.82952   0.34734   0.00000  Uiso   1.00
C353   C     0.15008   0.67780   0.23225   0.00000  Uiso   1.00
C354   C     0.15332   0.73352   0.24366   0.00000  Uiso   1.00
C355   C     0.20040   0.83832   0.15294   0.00000  Uiso   1.00
C356   C     0.27827   0.91476   0.03334   0.00000  Uiso   1.00
C357   C     0.21999   0.85176   0.09842   0.00000  Uiso   1.00
C358   C     0.05522   0.78683   0.42409   0.00000  Uiso   1.00
C359   C     0.03429   0.78396   0.47753   0.00000  Uiso   1.00
C360   C     0.13320   0.83941   0.49091   0.00000  Uiso   1.00
C361   C     0.07163   0.81083   0.01144   0.00000  Uiso   1.00
C362   C     0.06871   0.66991   0.17795   0.00000  Uiso   1.00
C363   C     0.00045   0.87494   0.30849   0.00000  Uiso   1.00
C364   C     0.01785   0.74934   0.39142   0.00000  Uiso   1.00
C365   C     0.04183   0.81424   0.06703   0.00000  Uiso   1.00
C366   C     0.14811   0.85277   0.43827   0.00000  Uiso   1.00
C367   C     0.18067   0.85556   0.02041   0.00000  Uiso   1.00
C368   C     0.23362   0.89598   0.00249   0.00000  Uiso   1.00
C369   C     0.24082   0.91709   0.45424   0.00000  Uiso   1.00
C370   C     0.19964   0.89484   0.42188   0.00000  Uiso   1.00
C371   C     0.17845   0.83064   0.06595   0.00000  Uiso   1.00
C372   C     0.27025   0.89390   0.08192   0.00000  Uiso   1.00
Cu373  Cu    0.10710   0.82772   0.24435   0.00000  Uiso   1.00
Cu374  Cu    0.22623   0.83895   0.25564   0.00000  Uiso   1.00
H375   H     0.30152   0.91207   0.10734   0.00000  Uiso   1.00
H376   H     0.04542   0.97375   0.15176   0.00000  Uiso   1.00
H377   H     0.09282   0.70594   0.15577   0.00000  Uiso   1.00
H378   H     0.03169   0.67842   0.21052   0.00000  Uiso   1.00
H379   H     0.33143   0.87336   0.38473   0.00000  Uiso   1.00
H380   H     0.26562   0.71071   0.38078   0.00000  Uiso   1.00
H381   H     0.03662   0.85776   0.13367   0.00000  Uiso   1.00
H382   H     0.33185   0.79719   0.20693   0.00000  Uiso   1.00
H383   H     0.28004   0.94912   0.44044   0.00000  Uiso   1.00
H384   H     0.31801   0.94675   0.02070   0.00000  Uiso   1.00
H385   H     0.14270   0.79579   0.07804   0.00000  Uiso   1.00
H386   H     0.32203   0.75972   0.49297   0.00000  Uiso   1.00
H387   H     0.20830   0.91153   0.38425   0.00000  Uiso   1.00
H388   H     0.22192   0.67920   0.27393   0.00000  Uiso   1.00
H389   H     0.13698   0.95906   0.16937   0.00000  Uiso   1.00
N390   N     0.31574   0.84741   0.26416   0.00000  Uiso   1.00
N391   N     0.01759   0.81926   0.23584   0.00000  Uiso   1.00
N392   N     0.11328   0.98148   0.19686   0.00000  Uiso   1.00
O393   O     0.12797   0.90474   0.24633   0.00000  Uiso   1.00
O394   O     0.31624   0.84978   0.35571   0.00000  Uiso   1.00
O395   O     0.04391   0.72717   0.35362   0.00000  Uiso   1.00
O396   O     0.28589   0.73733   0.40551   0.00000  Uiso   1.00
O397   O     0.00032   0.77795   0.08674   0.00000  Uiso   1.00
O398   O     0.06017   0.85985   0.09651   0.00000  Uiso   1.00
O399   O     0.22858   0.91422   0.25586   0.00000  Uiso   1.00
O400   O     0.09181   0.82627   0.31839   0.00000  Uiso   1.00
O401   O     0.19242   0.83575   0.32793   0.00000  Uiso   1.00
O402   O     0.10476   0.75245   0.24413   0.00000  Uiso   1.00
O403   O     0.20536   0.76193   0.25367   0.00000  Uiso   1.00
O404   O     0.14092   0.83092   0.17207   0.00000  Uiso   1.00
O405   O     0.24152   0.84040   0.18160   0.00000  Uiso   1.00
O406   O     0.02421   0.92212   0.30676   0.00000  Uiso   1.00
C407   C     0.51535   0.93335   0.25048   0.00000  Uiso   1.00
C408   C     0.44438   0.82389   0.40382   0.00000  Uiso   1.00
C409   C     0.52188   0.98940   0.25205   0.00000  Uiso   1.00
C410   C     0.46616   0.82952   0.34734   0.00000  Uiso   1.00
C411   C     0.48342   0.67780   0.23225   0.00000  Uiso   1.00
C412   C     0.48666   0.73352   0.24366   0.00000  Uiso   1.00
C413   C     0.53374   0.83832   0.15294   0.00000  Uiso   1.00
C414   C     0.61161   0.91476   0.03334   0.00000  Uiso   1.00
C415   C     0.55332   0.85176   0.09842   0.00000  Uiso   1.00
C416   C     0.38856   0.78683   0.42409   0.00000  Uiso   1.00
C417   C     0.36763   0.78396   0.47753   0.00000  Uiso   1.00
C418   C     0.46653   0.83941   0.49091   0.00000  Uiso   1.00
C419   C     0.40496   0.81083   0.01144   0.00000  Uiso   1.00
C420   C     0.40204   0.66991   0.17795   0.00000  Uiso   1.00
C421   C     0.33378   0.87494   0.30849   0.00000  Uiso   1.00
C422   C     0.35118   0.74934   0.39142   0.00000  Uiso   1.00
C423   C     0.37517   0.81424   0.06703   0.00000  Uiso   1.00
C424   C     0.48144   0.85277   0.43827   0.00000  Uiso   1.00
C425   C     0.51401   0.85556   0.02041   0.00000  Uiso   1.00
C426   C     0.56695   0.89598   0.00249   0.00000  Uiso   1.00
C427   C     0.57415   0.91709   0.45424   0.00000  Uiso   1.00
C428   C     0.53297   0.89484   0.42188   0.00000  Uiso   1.00
C429   C     0.51179   0.83064   0.06595   0.00000  Uiso   1.00
C430   C     0.60358   0.89390   0.08192   0.00000  Uiso   1.00
Cu431  Cu    0.44043   0.82772   0.24435   0.00000  Uiso   1.00
Cu432  Cu    0.55957   0.83895   0.25564   0.00000  Uiso   1.00
H433   H     0.63485   0.91207   0.10734   0.00000  Uiso   1.00
H434   H     0.37875   0.97375   0.15176   0.00000  Uiso   1.00
H435   H     0.42615   0.70594   0.15577   0.00000  Uiso   1.00
H436   H     0.36503   0.67842   0.21052   0.00000  Uiso   1.00
H437   H     0.66477   0.87336   0.38473   0.00000  Uiso   1.00
H438   H     0.59895   0.71071   0.38078   0.00000  Uiso   1.00
H439   H     0.36996   0.85776   0.13367   0.00000  Uiso   1.00
H440   H     0.66519   0.79719   0.20693   0.00000  Uiso   1.00
H441   H     0.61338   0.94912   0.44044   0.00000  Uiso   1.00
H442   H     0.65134   0.94675   0.02070   0.00000  Uiso   1.00
H443   H     0.47603   0.79579   0.07804   0.00000  Uiso   1.00
H444   H     0.65536   0.75972   0.49297   0.00000  Uiso   1.00
H445   H     0.54163   0.91153   0.38425   0.00000  Uiso   1.00
H446   H     0.55525   0.67920   0.27393   0.00000  Uiso   1.00
H447   H     0.47031   0.95906   0.16937   0.00000  Uiso   1.00
N448   N     0.64908   0.84741   0.26416   0.00000  Uiso   1.00
N449   N     0.35092   0.81926   0.23584   0.00000  Uiso   1.00
N450   N     0.44662   0.98148   0.19686   0.00000  Uiso   1.00
O451   O     0.46131   0.90474   0.24633   0.00000  Uiso   1.00
O452   O     0.64957   0.84978   0.35571   0.00000  Uiso   1.00
O453   O     0.37725   0.72717   0.35362   0.00000  Uiso   1.00
O454   O     0.61922   0.73733   0.40551   0.00000  Uiso   1.00
O455   O     0.33365   0.77795   0.08674   0.00000  Uiso   1.00
O456   O     0.39350   0.85985   0.09651   0.00000  Uiso   1.00
O457   O     0.56191   0.91422   0.25586   0.00000  Uiso   1.00
O458   O     0.42515   0.82627   0.31839   0.00000  Uiso   1.00
O459   O     0.52575   0.83575   0.32793   0.00000  Uiso   1.00
O460   O     0.43809   0.75245   0.24413   0.00000  Uiso   1.00
O461   O     0.53869   0.76193   0.25367   0.00000  Uiso   1.00
O462   O     0.47425   0.83092   0.17207   0.00000  Uiso   1.00
O463   O     0.57485   0.84040   0.18160   0.00000  Uiso   1.00
O464   O     0.35755   0.92212   0.30676   0.00000  Uiso   1.00
C465   C     0.84868   0.93335   0.25048   0.00000  Uiso   1.00
C466   C     0.77771   0.82389   0.40382   0.00000  Uiso   1.00
C467   C     0.85521   0.98940   0.25205   0.00000  Uiso   1.00
C468   C     0.79949   0.82952   0.34734   0.00000  Uiso   1.00
C469   C     0.81675   0.67780   0.23225   0.00000  Uiso   1.00
C470   C     0.81999   0.73352   0.24366   0.00000  Uiso   1.00
C471   C     0.86707   0.83832   0.15294   0.00000  Uiso   1.00
C472   C     0.94494   0.91476   0.03334   0.00000  Uiso   1.00
C473   C     0.88665   0.85176   0.09842   0.00000  Uiso   1.00
C474   C     0.72189   0.78683   0.42409   0.00000  Uiso   1.00
C475   C     0.70096   0.78396   0.47753   0.00000  Uiso   1.00
C476   C     0.79987   0.83941   0.49091   0.00000  Uiso   1.00
C477   C     0.73829   0.81083   0.01144   0.00000  Uiso   1.00
C478   C     0.73537   0.66991   0.17795   0.00000  Uiso   1.00
C479   C     0.66711   0.87494   0.30849   0.00000  Uiso   1.00
C480   C     0.68452   0.74934   0.39142   0.00000  Uiso   1.00
C481   C     0.70850   0.81424   0.06703   0.00000  Uiso   1.00
C482   C     0.81477   0.85277   0.43827   0.00000  Uiso   1.00
C483   C     0.84734   0.85556   0.02041   0.00000  Uiso   1.00
C484   C     0.90028   0.89598   0.00249   0.00000  Uiso   1.00
C485   C     0.90749   0.91709   0.45424   0.00000  Uiso   1.00
C486   C     0.86630   0.89484   0.42188   0.00000  Uiso   1.00
C487   C     0.84512   0.83064   0.06595   0.00000  Uiso   1.00
C488   C     0.93691   0.89390   0.08192   0.00000  Uiso   1.00
Cu489  Cu    0.77377   0.82772   0.24435   0.00000  Uiso   1.00
Cu490  Cu    0.89290   0.83895   0.25564   0.00000  Uiso   1.00
H491   H     0.96819   0.91207   0.10734   0.00000  Uiso   1.00
H492   H     0.71208   0.97375   0.15176   0.00000  Uiso   1.00
H493   H     0.75948   0.70594   0.15577   0.00000  Uiso   1.00
H494   H     0.69836   0.67842   0.21052   0.00000  Uiso   1.00
H495   H     0.99810   0.87336   0.38473   0.00000  Uiso   1.00
H496   H     0.93229   0.71071   0.38078   0.00000  Uiso   1.00
H497   H     0.70329   0.85776   0.13367   0.00000  Uiso   1.00
H498   H     0.99852   0.79719   0.20693   0.00000  Uiso   1.00
H499   H     0.94671   0.94912   0.44044   0.00000  Uiso   1.00
H500   H     0.98467   0.94675   0.02070   0.00000  Uiso   1.00
H501   H     0.80937   0.79579   0.07804   0.00000  Uiso   1.00
H502   H     0.98870   0.75972   0.49297   0.00000  Uiso   1.00
H503   H     0.87497   0.91153   0.38425   0.00000  Uiso   1.00
H504   H     0.88858   0.67920   0.27393   0.00000  Uiso   1.00
H505   H     0.80364   0.95906   0.16937   0.00000  Uiso   1.00
N506   N     0.98241   0.84741   0.26416   0.00000  Uiso   1.00
N507   N     0.68426   0.81926   0.23584   0.00000  Uiso   1.00
N508   N     0.77995   0.98148   0.19686   0.00000  Uiso   1.00
O509   O     0.79464   0.90474   0.24633   0.00000  Uiso   1.00
O510   O     0.98291   0.84978   0.35571   0.00000  Uiso   1.00
O511   O     0.71058   0.72717   0.35362   0.00000  Uiso   1.00
O512   O     0.95256   0.73733   0.40551   0.00000  Uiso   1.00
O513   O     0.66699   0.77795   0.08674   0.00000  Uiso   1.00
O514   O     0.72683   0.85985   0.09651   0.00000  Uiso   1.00
O515   O     0.89524   0.91422   0.25586   0.00000  Uiso   1.00
O516   O     0.75848   0.82627   0.31839   0.00000  Uiso   1.00
O517   O     0.85908   0.83575   0.32793   0.00000  Uiso   1.00
O518   O     0.77142   0.75245   0.24413   0.00000  Uiso   1.00
O519   O     0.87203   0.76193   0.25367   0.00000  Uiso   1.00
O520   O     0.80758   0.83092   0.17207   0.00000  Uiso   1.00
O521   O     0.90819   0.84040   0.18160   0.00000  Uiso   1.00
O522   O     0.69088   0.92212   0.30676   0.00000  Uiso   1.00
C523   C     0.18201   0.26669   0.75048   0.00000  Uiso   1.00
C524   C     0.11105   0.15723   0.90382   0.00000  Uiso   1.00
C525   C     0.18854   0.32273   0.75205   0.00000  Uiso   1.00
C526   C     0.13282   0.16285   0.84734   0.00000  Uiso   1.00
C527   C     0.15008   0.01113   0.73225   0.00000  Uiso   1.00
C528   C     0.15332   0.06685   0.74366   0.00000  Uiso   1.00
C529   C     0.20040   0.17165   0.65294   0.00000  Uiso   1.00
C530   C     0.27827   0.24809   0.53334   0.00000  Uiso   1.00
C531   C     0.21999   0.18509   0.59842   0.00000  Uiso   1.00
C532   C     0.05522   0.12017   0.92409   0.00000  Uiso   1.00
C533   C     0.03429   0.11729   0.97753   0.00000  Uiso   1.00
C534   C     0.13320   0.17275   0.99091   0.00000  Uiso   1.00
C535   C     0.07163   0.14417   0.51144   0.00000  Uiso   1.00
C536   C     0.06871   0.00325   0.67795   0.00000  Uiso   1.00
C537   C     0.00045   0.20827   0.80849   0.00000  Uiso   1.00
C538   C     0.01785   0.08268   0.89142   0.00000  Uiso   1.00
C539   C     0.04183   0.14757   0.56703   0.00000  Uiso   1.00
C540   C     0.14811   0.18611   0.93827   0.00000  Uiso   1.00
C541   C     0.18067   0.18890   0.52041   0.00000  Uiso   1.00
C542   C     0.23362   0.22931   0.50249   0.00000  Uiso   1.00
C543   C     0.24082   0.25043   0.95424   0.00000  Uiso   1.00
C544   C     0.19964   0.22818   0.92188   0.00000  Uiso   1.00
C545   C     0.17845   0.16398   0.56595   0.00000  Uiso   1.00
C546   C     0.27025   0.22723   0.58192   0.00000  Uiso   1.00
Cu547  Cu    0.10710   0.16105   0.74435   0.00000  Uiso   1.00
Cu548  Cu    0.22623   0.17228   0.75564   0.00000  Uiso   1.00
H549   H     0.30152   0.24540   0.60734   0.00000  Uiso   1.00
H550   H     0.04542   0.30708   0.65176   0.00000  Uiso   1.00
H551   H     0.09282   0.03927   0.65577   0.00000  Uiso   1.00
H552   H     0.03169   0.01175   0.71052   0.00000  Uiso   1.00
H553   H     0.33143   0.20669   0.88473   0.00000  Uiso   1.00
H554   H     0.26562   0.04404   0.88078   0.00000  Uiso   1.00
H555   H     0.03662   0.19110   0.63367   0.00000  Uiso   1.00
H556   H     0.33185   0.13052   0.70693   0.00000  Uiso   1.00
H557   H     0.28004   0.28245   0.94044   0.00000  Uiso   1.00
H558   H     0.31801   0.28008   0.52070   0.00000  Uiso   1.00
H559   H     0.14270   0.12912   0.57804   0.00000  Uiso   1.00
H560   H     0.32203   0.09305   0.99297   0.00000  Uiso   1.00
H561   H     0.20830   0.24487   0.88425   0.00000  Uiso   1.00
H562   H     0.22192   0.01253   0.77393   0.00000  Uiso   1.00
H563   H     0.13698   0.29239   0.66937   0.00000  Uiso   1.00
N564   N     0.31574   0.18074   0.76416   0.00000  Uiso   1.00
N565   N     0.01759   0.15259   0.73584   0.00000  Uiso   1.00
N566   N     0.11328   0.31482   0.69686   0.00000  Uiso   1.00
O567   O     0.12797   0.23807   0.74633   0.00000  Uiso   1.00
O568   O     0.31624   0.18311   0.85571   0.00000  Uiso   1.00
O569   O     0.04391   0.06050   0.85362   0.00000  Uiso   1.00
O570   O     0.28589   0.07066   0.90551   0.00000  Uiso   1.00
O571   O     0.00032   0.11128   0.58674   0.00000  Uiso   1.00
O572   O     0.06017   0.19318   0.59651   0.00000  Uiso   1.00
O573   O     0.22858   0.24755   0.75586   0.00000  Uiso   1.00
O574   O     0.09181   0.15960   0.81839   0.00000  Uiso   1.00
O575   O     0.19242   0.16908   0.82793   0.00000  Uiso   1.00
O576   O     0.10476   0.08578   0.74413   0.00000  Uiso   1.00
O577   O     0.20536   0.09526   0.75367   0.00000  Uiso   1.00
O578   O     0.14092   0.16425   0.67207   0.00000  Uiso   1.00
O579   O     0.24152   0.17373   0.68160   0.00000  Uiso   1.00
O580   O     0.02421   0.25546   0.80676   0.00000  Uiso   1.00
C581   C     0.51535   0.26669   0.75048   0.00000  Uiso   1.00
C582   C     0.44438   0.15723   0.90382   0.00000  Uiso   1.00
C583   C     0.52188   0.32273   0.75205   0.00000  Uiso   1.00
C584   C     0.46616   0.16285   0.84734   0.00000  Uiso   1.00
C585   C     0.48342   0.01113   0.73225   0.00000  Uiso   1.00
C586   C     0.48666   0.06685   0.74366   0.00000  Uiso   1.00
C587   C     0.53374   0.17165   0.65294   0.00000  Uiso   1.00
C588   C     0.61161   0.24809   0.53334   0.00000  Uiso   1.00
C589   C     0.55332   0.18509   0.59842   0.00000  Uiso   1.00
C590   C     0.38856   0.12017   0.92409   0.00000  Uiso   1.00
C591   C     0.36763   0.11729   0.97753   0.00000  Uiso   1.00
C592   C     0.46653   0.17275   0.99091   0.00000  Uiso   1.00
C593   C     0.40496   0.14417   0.51144   0.00000  Uiso   1.00
C594   C     0.40204   0.00325   0.67795   0.00000  Uiso   1.00
C595   C     0.33378   0.20827   0.80849   0.00000  Uiso   1.00
C596   C     0.35118   0.08268   0.89142   0.00000  Uiso   1.00
C597   C     0.37517   0.14757   0.56703   0.00000  Uiso   1.00
C598   C     0.48144   0.18611   0.93827   0.00000  Uiso   1.00
C599   C     0.51401   0.18890   0.52041   0.00000  Uiso   1.00
C600   C     0.56695   0.22931   0.50249   0.00000  Uiso   1.00
C601   C     0.57415   0.25043   0.95424   0.00000  Uiso   1.00
C602   C     0.53297   0.22818   0.92188   0.00000  Uiso   1.00
C603   C     0.51179   0.16398   0.56595   0.00000  Uiso   1.00
C604   C     0.60358   0.22723   0.58192   0.00000  Uiso   1.00
Cu605  Cu    0.44043   0.16105   0.74435   0.00000  Uiso   1.00
Cu606  Cu    0.55957   0.17228   0.75564   0.00000  Uiso   1.00
H607   H     0.63485   0.24540   0.60734   0.00000  Uiso   1.00
H608   H     0.37875   0.30708   0.65176   0.00000  Uiso   1.00
H609   H     0.42615   0.03927   0.65577   0.00000  Uiso   1.00
H610   H     0.36503   0.01175   0.71052   0.00000  Uiso   1.00
H611   H     0.66477   0.20669   0.88473   0.00000  Uiso   1.00
H612   H     0.59895   0.04404   0.88078   0.00000  Uiso   1.00
H613   H     0.36996   0.19110   0.63367   0.00000  Uiso   1.00
H614   H     0.66519   0.13052   0.70693   0.00000  Uiso   1.00
H615   H     0.61338   0.28245   0.94044   0.00000  Uiso   1.00
H616   H     0.65134   0.28008   0.52070   0.00000  Uiso   1.00
H617   H     0.47603   0.12912   0.57804   0.00000  Uiso   1.00
H618   H     0.65536   0.09305   0.99297   0.00000  Uiso   1.00
H619   H     0.54163   0.24487   0.88425   0.00000  Uiso   1.00
H620   H     0.55525   0.01253   0.77393   0.00000  Uiso   1.00
H621   H     0.47031   0.29239   0.66937   0.00000  Uiso   1.00
N622   N     0.64908   0.18074   0.76416   0.00000  Uiso   1.00
N623   N     0.35092   0.15259   0.73584   0.00000  Uiso   1.00
N624   N     0.44662   0.31482   0.69686   0.00000  Uiso   1.00
O625   O     0.46131   0.23807   0.74633   0.00000  Uiso   1.00
O626   O     0.64957   0.18311   0.85571   0.00000  Uiso   1.00
O627   O     0.37725   0.06050   0.85362   0.00000  Uiso   1.00
O628   O     0.61922   0.07066   0.90551   0.00000  Uiso   1.00
O629   O     0.33365   0.11128   0.58674   0.00000  Uiso   1.00
O630   O     0.39350   0.19318   0.59651   0.00000  Uiso   1.00
O631   O     0.56191   0.24755   0.75586   0.00000  Uiso   1.00
O632   O     0.42515   0.15960   0.81839   0.00000  Uiso   1.00
O633   O     0.52575   0.16908   0.82793   0.00000  Uiso   1.00
O634   O     0.43809   0.08578   0.74413   0.00000  Uiso   1.00
O635   O     0.53869   0.09526   0.75367   0.00000  Uiso   1.00
O636   O     0.47425   0.16425   0.67207   0.00000  Uiso   1.00
O637   O     0.57485   0.17373   0.68160   0.00000  Uiso   1.00
O638   O     0.35755   0.25546   0.80676   0.00000  Uiso   1.00
C639   C     0.84868   0.26669   0.75048   0.00000  Uiso   1.00
C640   C     0.77771   0.15723   0.90382   0.00000  Uiso   1.00
C641   C     0.85521   0.32273   0.75205   0.00000  Uiso   1.00
C642   C     0.79949   0.16285   0.84734   0.00000  Uiso   1.00
C643   C     0.81675   0.01113   0.73225   0.00000  Uiso   1.00
C644   C     0.81999   0.06685   0.74366   0.00000  Uiso   1.00
C645   C     0.86707   0.17165   0.65294   0.00000  Uiso   1.00
C646   C     0.94494   0.24809   0.53334   0.00000  Uiso   1.00
C647   C     0.88665   0.18509   0.59842   0.00000  Uiso   1.00
C648   C     0.72189   0.12017   0.92409   0.00000  Uiso   1.00
C649   C     0.70096   0.11729   0.97753   0.00000  Uiso   1.00
C650   C     0.79987   0.17275   0.99091   0.00000  Uiso   1.00
C651   C     0.73829   0.14417   0.51144   0.00000  Uiso   1.00
C652   C     0.73537   0.00325   0.67795   0.00000  Uiso   1.00
C653   C     0.66711   0.20827   0.80849   0.00000  Uiso   1.00
C654   C     0.68452   0.08268   0.89142   0.00000  Uiso   1.00
C655   C     0.70850   0.14757   0.56703   0.00000  Uiso   1.00
C656   C     0.81477   0.18611   0.93827   0.00000  Uiso   1.00
C657   C     0.84734   0.18890   0.52041   0.00000  Uiso   1.00
C658   C     0.90028   0.22931   0.50249   0.00000  Uiso   1.00
C659   C     0.90749   0.25043   0.95424   0.00000  Uiso   1.00
C660   C     0.86630   0.22818   0.92188   0.00000  Uiso   1.00
C661   C     0.84512   0.16398   0.56595   0.00000  Uiso   1.00
C662   C     0.93691   0.22723   0.58192   0.00000  Uiso   1.00
Cu663  Cu    0.77377   0.16105   0.74435   0.00000  Uiso   1.00
Cu664  Cu    0.89290   0.17228   0.75564   0.00000  Uiso   1.00
H665   H     0.96819   0.24540   0.60734   0.00000  Uiso   1.00
H666   H     0.71208   0.30708   0.65176   0.00000  Uiso   1.00
H667   H     0.75948   0.03927   0.65577   0.00000  Uiso   1.00
H668   H     0.69836   0.01175   0.71052   0.00000  Uiso   1.00
H669   H     0.99810   0.20669   0.88473   0.00000  Uiso   1.00
H670   H     0.93229   0.04404   0.88078   0.00000  Uiso   1.00
H671   H     0.70329   0.19110   0.63367   0.00000  Uiso   1.00
H672   H     0.99852   0.13052   0.70693   0.00000  Uiso   1.00
H673   H     0.94671   0.28245   0.94044   0.00000  Uiso   1.00
H674   H     0.98467   0.28008   0.52070   0.00000  Uiso   1.00
H675   H     0.80937   0.12912   0.57804   0.00000  Uiso   1.00
H676   H     0.98870   0.09305   0.99297   0.00000  Uiso   1.00
H677   H     0.87497   0.24487   0.88425   0.00000  Uiso   1.00
H678   H     0.88858   0.01253   0.77393   0.00000  Uiso   1.00
H679   H     0.80364   0.29239   0.66937   0.00000  Uiso   1.00
N680   N     0.98241   0.18074   0.76416   0.00000  Uiso   1.00
N681   N     0.68426   0.15259   0.73584   0.00000  Uiso   1.00
N682   N     0.77995   0.31482   0.69686   0.00000  Uiso   1.00
O683   O     0.79464   0.23807   0.74633   0.00000  Uiso   1.00
O684   O     0.98291   0.18311   0.85571   0.00000  Uiso   1.00
O685   O     0.71058   0.06050   0.85362   0.00000  Uiso   1.00
O686   O     0.95256   0.07066   0.90551   0.00000  Uiso   1.00
O687   O     0.66699   0.11128   0.58674   0.00000  Uiso   1.00
O688   O     0.72683   0.19318   0.59651   0.00000  Uiso   1.00
O689   O     0.89524   0.24755   0.75586   0.00000  Uiso   1.00
O690   O     0.75848   0.15960   0.81839   0.00000  Uiso   1.00
O691   O     0.85908   0.16908   0.82793   0.00000  Uiso   1.00
O692   O     0.77142   0.08578   0.74413   0.00000  Uiso   1.00
O693   O     0.87203   0.09526   0.75367   0.00000  Uiso   1.00
O694   O     0.80758   0.16425   0.67207   0.00000  Uiso   1.00
O695   O     0.90819   0.17373   0.68160   0.00000  Uiso   1.00
O696   O     0.69088   0.25546   0.80676   0.00000  Uiso   1.00
C697   C     0.18201   0.60002   0.75048   0.00000  Uiso   1.00
C698   C     0.11105   0.49056   0.90382   0.00000  Uiso   1.00
C699   C     0.18854   0.65606   0.75205   0.00000  Uiso   1.00
C700   C     0.13282   0.49619   0.84734   0.00000  Uiso   1.00
C701   C     0.15008   0.34447   0.73225   0.00000  Uiso   1.00
C702   C     0.15332   0.40018   0.74366   0.00000  Uiso   1.00
C703   C     0.20040   0.50499   0.65294   0.00000  Uiso   1.00
C704   C     0.27827   0.58142   0.53334   0.00000  Uiso   1.00
C705   C     0.21999   0.51843   0.59842   0.00000  Uiso   1.00
C706   C     0.05522   0.45350   0.92409   0.00000  Uiso   1.00
C707   C     0.03429   0.45063   0.97753   0.00000  Uiso   1.00
C708   C     0.13320   0.50608   0.99091   0.00000  Uiso   1.00
C709   C     0.07163   0.47750   0.51144   0.00000  Uiso   1.00
C710   C     0.06871   0.33658   0.67795   0.00000  Uiso   1.00
C711   C     0.00045   0.54160   0.80849   0.00000  Uiso   1.00
C712   C     0.01785   0.41601   0.89142   0.00000  Uiso   1.00
C713   C     0.04183   0.48091   0.56703   0.00000  Uiso   1.00
C714   C     0.14811   0.51944   0.93827   0.00000  Uiso   1.00
C715   C     0.18067   0.52223   0.52041   0.00000  Uiso   1.00
C716   C     0.23362   0.56265   0.50249   0.00000  Uiso   1.00
C717   C     0.24082   0.58376   0.95424   0.00000  Uiso   1.00
C718   C     0.19964   0.56151   0.92188   0.00000  Uiso   1.00
C719   C     0.17845   0.49731   0.56595   0.00000  Uiso   1.00
C720   C     0.27025   0.56056   0.58192   0.00000  Uiso   1.00
Cu721  Cu    0.10710   0.49439   0.74435   0.00000  Uiso   1.00
Cu722  Cu    0.22623   0.50561   0.75564   0.00000  Uiso   1.00
H723   H     0.30152   0.57873   0.60734   0.00000  Uiso   1.00
H724   H     0.04542   0.64041   0.65176   0.00000  Uiso   1.00
H725   H     0.09282   0.37260   0.65577   0.00000  Uiso   1.00
H726   H     0.03169   0.34509   0.71052   0.00000  Uiso   1.00
H727   H     0.33143   0.54003   0.88473   0.00000  Uiso   1.00
H728   H     0.26562   0.37738   0.88078   0.00000  Uiso   1.00
H729   H     0.03662   0.52443   0.63367   0.00000  Uiso   1.00
H730   H     0.33185   0.46386   0.70693   0.00000  Uiso   1.00
H731   H     0.28004   0.61578   0.94044   0.00000  Uiso   1.00
H732   H     0.31801   0.61342   0.52070   0.00000  Uiso   1.00
H733   H     0.14270   0.46246   0.57804   0.00000  Uiso   1.00
H734   H     0.32203   0.42638   0.99297   0.00000  Uiso   1.00
H735   H     0.20830   0.57820   0.88425   0.00000  Uiso   1.00
H736   H     0.22192   0.34587   0.77393   0.00000  Uiso   1.00
H737   H     0.13698   0.62573   0.66937   0.00000  Uiso   1.00
N738   N     0.31574   0.51407   0.76416   0.00000  Uiso   1.00
N739   N     0.01759   0.48593   0.73584   0.00000  Uiso   1.00
N740   N     0.11328   0.64815   0.69686   0.00000  Uiso   1.00
O741   O     0.12797   0.57141   0.74633   0.00000  Uiso   1.00
O742   O     0.31624   0.51645   0.85571   0.00000  Uiso   1.00
O743   O     0.04391   0.39384   0.85362   0.00000  Uiso   1.00
O744   O     0.28589   0.40399   0.90551   0.00000  Uiso   1.00
O745   O     0.00032   0.44461   0.58674   0.00000  Uiso   1.00
O746   O     0.06017   0.52651   0.59651   0.00000  Uiso   1.00
O747   O     0.22858   0.58089   0.75586   0.00000  Uiso   1.00
O748   O     0.09181   0.49293   0.81839   0.00000  Uiso   1.00
O749   O     0.19242   0.50241   0.82793   0.00000  Uiso   1.00
O750   O     0.10476   0.41911   0.74413   0.00000  Uiso   1.00
O751   O     0.20536   0.42859   0.75367   0.00000  Uiso   1.00
O752   O     0.14092   0.49759   0.67207   0.00000  Uiso   1.00
O753   O     0.24152   0.50707   0.68160   0.00000  Uiso   1.00
O754   O     0.02421   0.58879   0.80676   0.00000  Uiso   1.00
C755   C     0.51535   0.60002   0.75048   0.00000  Uiso   1.00
C756   C     0.44438   0.49056   0.90382   0.00000  Uiso   1.00
C757   C     0.52188   0.65606   0.75205   0.00000  Uiso   1.00
C758   C     0.46616   0.49619   0.84734   0.00000  Uiso   1.00
C759   C     0.48342   0.34447   0.73225   0.00000  Uiso   1.00
C760   C     0.48666   0.40018   0.74366   0.00000  Uiso   1.00
C761   C     0.53374   0.50499   0.65294   0.00000  Uiso   1.00
C762   C     0.61161   0.58142   0.53334   0.00000  Uiso   1.00
C763   C     0.55332   0.51843   0.59842   0.00000  Uiso   1.00
C764   C     0.38856   0.45350   0.92409   0.00000  Uiso   1.00
C765   C     0.36763   0.45063   0.97753   0.00000  Uiso   1.00
C766   C     0.46653   0.50608   0.99091   0.00000  Uiso   1.00
C767   C     0.40496   0.47750   0.51144   0.00000  Uiso   1.00
C768   C     0.40204   0.33658   0.67795   0.00000  Uiso   1.00
C769   C     0.33378   0.54160   0.80849   0.00000  Uiso   1.00
C770   C     0.35118   0.41601   0.89142   0.00000  Uiso   1.00
C771   C     0.37517   0.48091   0.56703   0.00000  Uiso   1.00
C772   C     0.48144   0.51944   0.93827   0.00000  Uiso   1.00
C773   C     0.51401   0.52223   0.52041   0.00000  Uiso   1.00
C774   C     0.56695   0.56265   0.50249   0.00000  Uiso   1.00
C775   C     0.57415   0.58376   0.95424   0.00000  Uiso   1.00
C776   C     0.53297   0.56151   0.92188   0.00000  Uiso   1.00
C777   C     0.51179   0.49731   0.56595   0.00000  Uiso   1.00
C778   C     0.60358   0.56056   0.58192   0.00000  Uiso   1.00
Cu779  Cu    0.44043   0.49439   0.74435   0.00000  Uiso   1.00
Cu780  Cu    0.55957   0.50561   0.75564   0.00000  Uiso   1.00
H781   H     0.63485   0.57873   0.60734   0.00000  Uiso   1.00
H782   H     0.37875   0.64041   0.65176   0.00000  Uiso   1.00
H783   H     0.42615   0.37260   0.65577   0.00000  Uiso   1.00
H784   H     0.36503   0.34509   0.71052   0.00000  Uiso   1.00
H785   H     0.66477   0.54003   0.88473   0.00000  Uiso   1.00
H786   H     0.59895   0.37738   0.88078   0.00000  Uiso   1.00
H787   H     0.36996   0.52443   0.63367   0.00000  Uiso   1.00
H788   H     0.66519   0.46386   0.70693   0.00000  Uiso   1.00
H789   H     0.61338   0.61578   0.94044   0.00000  Uiso   1.00
H790   H     0.65134   0.61342   0.52070   0.00000  Uiso   1.00
H791   H     0.47603   0.46246   0.57804   0.00000  Uiso   1.00
H792   H     0.65536   0.42638   0.99297   0.00000  Uiso   1.00
H793   H     0.54163   0.57820   0.88425   0.00000  Uiso   1.00
H794   H     0.55525   0.34587   0.77393   0.00000  Uiso   1.00
H795   H     0.47031   0.62573   0.66937   0.00000  Uiso   1.00
N796   N     0.64908   0.51407   0.76416   0.00000  Uiso   1.00
N797   N     0.35092   0.48593   0.73584   0.00000  Uiso   1.00
N798   N     0.44662   0.64815   0.69686   0.00000  Uiso   1.00
O799   O     0.46131   0.57141   0.74633   0.00000  Uiso   1.00
O800   O     0.64957   0.51645   0.85571   0.00000  Uiso   1.00
O801   O     0.37725   0.39384   0.85362   0.00000  Uiso   1.00
O802   O     0.61922   0.40399   0.90551   0.00000  Uiso   1.00
O803   O     0.33365   0.44461   0.58674   0.00000  Uiso   1.00
O804   O     0.39350   0.52651   0.59651   0.00000  Uiso   1.00
O805   O     0.56191   0.58089   0.75586   0.00000  Uiso   1.00
O806   O     0.42515   0.49293   0.81839   0.00000  Uiso   1.00
O807   O     0.52575   0.50241   0.82793   0.00000  Uiso   1.00
O808   O     0.43809   0.41911   0.74413   0.00000  Uiso   1.00
O809   O     0.53869   0.42859   0.75367   0.00000  Uiso   1.00
O810   O     0.47425   0.49759   0.67207   0.00000  Uiso   1.00
O811   O     0.57485   0.50707   0.68160   0.00000  Uiso   1.00
O812   O     0.35755   0.58879   0.80676   0.00000  Uiso   1.00
C813   C     0.84868   0.60002   0.75048   0.00000  Uiso   1.00
C814   C     0.77771   0.49056   0.90382   0.00000  Uiso   1.00
C815   C     0.85521   0.65606   0.75205   0.00000  Uiso   1.00
C816   C     0.79949   0.49619   0.84734   0.00000  Uiso   1.00
C817   C     0.81675   0.34447   0.73225   0.00000  Uiso   1.00
C818   C     0.81999   0.40018   0.74366   0.00000  Uiso   1.00
C819   C     0.86707   0.50499   0.65294   0.00000  Uiso   1.00
C820   C     0.94494   0.58142   0.53334   0.00000  Uiso   1.00
C821   C     0.88665   0.51843   0.59842   0.00000  Uiso   1.00
C822   C     0.72189   0.45350   0.92409   0.00000  Uiso   1.00
C823   C     0.70096   0.45063   0.97753   0.00000  Uiso   1.00
C824   C     0.79987   0.50608   0.99091   0.00000  Uiso   1.00
C825   C     0.73829   0.47750   0.51144   0.00000  Uiso   1.00
C826   C     0.73537   0.33658   0.67795   0.00000  Uiso   1.00
C827   C     0.66711   0.54160   0.80849   0.00000  Uiso   1.00
C828   C     0.68452   0.41601   0.89142   0.00000  Uiso   1.00
C829   C     0.70850   0.48091   0.56703   0.00000  Uiso   1.00
C830   C     0.81477   0.51944   0.93827   0.00000  Uiso   1.00
C831   C     0.84734   0.52223   0.52041   0.00000  Uiso   1.00
C832   C     0.90028   0.56265   0.50249   0.00000  Uiso   1.00
C833   C     0.90749   0.58376   0.95424   0.00000  Uiso   1.00
C834   C     0.86630   0.56151   0.92188   0.00000  Uiso   1.00
C835   C     0.84512   0.49731   0.56595   0.00000  Uiso   1.00
C836   C     0.93691   0.56056   0.58192   0.00000  Uiso   1.00
Cu837  Cu    0.77377   0.49439   0.74435   0.00000  Uiso   1.00
Cu838  Cu    0.89290   0.50561   0.75564   0.00000  Uiso   1.00
H839   H     0.96819   0.57873   0.60734   0.00000  Uiso   1.00
H840   H     0.71208   0.64041   0.65176   0.00000  Uiso   1.00
H841   H     0.75948   0.37260   0.65577   0.00000  Uiso   1.00
H842   H     0.69836   0.34509   0.71052   0.00000  Uiso   1.00
H843   H     0.99810   0.54003   0.88473   0.00000  Uiso   1.00
H844   H     0.93229   0.37738   0.88078   0.00000  Uiso   1.00
H845   H     0.70329   0.52443   0.63367   0.00000  Uiso   1.00
H846   H     0.99852   0.46386   0.70693   0.00000  Uiso   1.00
H847   H     0.94671   0.61578   0.94044   0.00000  Uiso   1.00
H848   H     0.98467   0.61342   0.52070   0.00000  Uiso   1.00
H849   H     0.80937   0.46246   0.57804   0.00000  Uiso   1.00
H850   H     0.98870   0.42638   0.99297   0.00000  Uiso   1.00
H851   H     0.87497   0.57820   0.88425   0.00000  Uiso   1.00
H852   H     0.88858   0.34587   0.77393   0.00000  Uiso   1.00
H853   H     0.80364   0.62573   0.66937   0.00000  Uiso   1.00
N854   N     0.98241   0.51407   0.76416   0.00000  Uiso   1.00
N855   N     0.68426   0.48593   0.73584   0.00000  Uiso   1.00
N856   N     0.77995   0.64815   0.69686   0.00000  Uiso   1.00
O857   O     0.79464   0.57141   0.74633   0.00000  Uiso   1.00
O858   O     0.98291   0.51645   0.85571   0.00000  Uiso   1.00
O859   O     0.71058   0.39384   0.85362   0.00000  Uiso   1.00
O860   O     0.95256   0.40399   0.90551   0.00000  Uiso   1.00
O861   O     0.66699   0.44461   0.58674   0.00000  Uiso   1.00
O862   O     0.72683   0.52651   0.59651   0.00000  Uiso   1.00
O863   O     0.89524   0.58089   0.75586   0.00000  Uiso   1.00
O864   O     0.75848   0.49293   0.81839   0.00000  Uiso   1.00
O865   O     0.85908   0.50241   0.82793   0.00000  Uiso   1.00
O866   O     0.77142   0.41911   0.74413   0.00000  Uiso   1.00
O867   O     0.87203   0.42859   0.75367   0.00000  Uiso   1.00
O868   O     0.80758   0.49759   0.67207   0.00000  Uiso   1.00
O869   O     0.90819   0.50707   0.68160   0.00000  Uiso   1.00
O870   O     0.69088   0.58879   0.80676   0.00000  Uiso   1.00
C871   C     0.18201   0.93335   0.75048   0.00000  Uiso   1.00
C872   C     0.11105   0.82389   0.90382   0.00000  Uiso   1.00
C873   C     0.18854   0.98940   0.75205   0.00000  Uiso   1.00
C874   C     0.13282   0.82952   0.84734   0.00000  Uiso   1.00
C875   C     0.15008   0.67780   0.73225   0.00000  Uiso   1.00
C876   C     0.15332   0.73352   0.74366   0.00000  Uiso   1.00
C877   C     0.20040   0.83832   0.65294   0.00000  Uiso   1.00
C878   C     0.27827   0.91476   0.53334   0.00000  Uiso   1.00
C879   C     0.21999   0.85176   0.59842   0.00000  Uiso   1.00
C880   C     0.05522   0.78683   0.92409   0.00000  Uiso   1.00
C881   C     0.03429   0.78396   0.97753   0.00000  Uiso   1.00
C882   C     0.13320   0.83941   0.99091   0.00000  Uiso   1.00
C883   C     0.07163   0.81083   0.51144   0.00000  Uiso   1.00
C884   C     0.06871   0.66991   0.67795   0.00000  Uiso   1.00
C885   C     0.00045   0.87494   0.80849   0.00000  Uiso   1.00
C886   C     0.01785   0.74934   0.89142   0.00000  Uiso   1.00
C887   C     0.04183   0.81424   0.56703   0.00000  Uiso   1.00
C888   C     0.14811   0.85277   0.93827   0.00000  Uiso   1.00
C889   C     0.18067   0.85556   0.52041   0.00000  Uiso   1.00
C890   C     0.23362   0.89598   0.50249   0.00000  Uiso   1.00
C891   C     0.24082   0.91709   0.95424   0.00000  Uiso   1.00
C892   C     0.19964   0.89484   0.92188   0.00000  Uiso   1.00
C893   C     0.17845   0.83064   0.56595   0.00000  Uiso   1.00
C894   C     0.27025   0.89390   0.58192   0.00000  Uiso   1.00
Cu895  Cu    0.10710   0.82772   0.74435   0.00000  Uiso   1.00
Cu896  Cu    0.22623   0.83895   0.75564   0.00000  Uiso   1.00
H897   H     0.30152   0.91207   0.60734   0.00000  Uiso   1.00
H898   H     0.04542   0.97375   0.65176   0.00000  Uiso   1.00
H899   H     0.09282   0.70594   0.65577   0.00000  Uiso   1.00
H900   H     0.03169   0.67842   0.71052   0.00000  Uiso   1.00
H901   H     0.33143   0.87336   0.88473   0.00000  Uiso   1.00
H902   H     0.26562   0.71071   0.88078   0.00000  Uiso   1.00
H903   H     0.03662   0.85776   0.63367   0.00000  Uiso   1.00
H904   H     0.33185   0.79719   0.70693   0.00000  Uiso   1.00
H905   H     0.28004   0.94912   0.94044   0.00000  Uiso   1.00
H906   H     0.31801   0.94675   0.52070   0.00000  Uiso   1.00
H907   H     0.14270   0.79579   0.57804   0.00000  Uiso   1.00
H908   H     0.32203   0.75972   0.99297   0.00000  Uiso   1.00
H909   H     0.20830   0.91153   0.88425   0.00000  Uiso   1.00
H910   H     0.22192   0.67920   0.77393   0.00000  Uiso   1.00
H911   H     0.13698   0.95906   0.66937   0.00000  Uiso   1.00
N912   N     0.31574   0.84741   0.76416   0.00000  Uiso   1.00
N913   N     0.01759   0.81926   0.73584   0.00000  Uiso   1.00
N914   N     0.11328   0.98148   0.69686   0.00000  Uiso   1.00
O915   O     0.12797   0.90474   0.74633   0.00000  Uiso   1.00
O916   O     0.31624   0.84978   0.85571   0.00000  Uiso   1.00
O917   O     0.04391   0.72717   0.85362   0.00000  Uiso   1.00
O918   O     0.28589   0.73733   0.90551   0.00000  Uiso   1.00
O919   O     0.00032   0.77795   0.58674   0.00000  Uiso   1.00
O920   O     0.06017   0.85985   0.59651   0.00000  Uiso   1.00
O921   O     0.22858   0.91422   0.75586   0.00000  Uiso   1.00
O922   O     0.09181   0.82627   0.81839   0.00000  Uiso   1.00
O923   O     0.19242   0.83575   0.82793   0.00000  Uiso   1.00
O924   O     0.10476   0.75245   0.74413   0.00000  Uiso   1.00
O925   O     0.20536   0.76193   0.75367   0.00000  Uiso   1.00
O926   O     0.14092   0.83092   0.67207   0.00000  Uiso   1.00
O927   O     0.24152   0.84040   0.68160   0.00000  Uiso   1.00
O928   O     0.02421   0.92212   0.80676   0.00000  Uiso   1.00
C929   C     0.51535   0.93335   0.75048   0.00000  Uiso   1.00
C930   C     0.44438   0.82389   0.90382   0.00000  Uiso   1.00
C931   C     0.52188   0.98940   0.75205   0.00000  Uiso   1.00
C932   C     0.46616   0.82952   0.84734   0.00000  Uiso   1.00
C933   C     0.48342   0.67780   0.73225   0.00000  Uiso   1.00
C934   C     0.48666   0.73352   0.74366   0.00000  Uiso   1.00
C935   C     0.53374   0.83832   0.65294   0.00000  Uiso   1.00
C936   C     0.61161   0.91476   0.53334   0.00000  Uiso   1.00
C937   C     0.55332   0.85176   0.59842   0.00000  Uiso   1.00
C938   C     0.38856   0.78683   0.92409   0.00000  Uiso   1.00
C939   C     0.36763   0.78396   0.97753   0.00000  Uiso   1.00
C940   C     0.46653   0.83941   0.99091   0.00000  Uiso   1.00
C941   C     0.40496   0.81083   0.51144   0.00000  Uiso   1.00
C942   C     0.40204   0.66991   0.67795   0.00000  Uiso   1.00
C943   C     0.33378   0.87494   0.80849   0.00000  Uiso   1.00
C944   C     0.35118   0.74934   0.89142   0.00000  Uiso   1.00
C945   C     0.37517   0.81424   0.56703   0.00000  Uiso   1.00
C946   C     0.48144   0.85277   0.93827   0.00000  Uiso   1.00
C947   C     0.51401   0.85556   0.52041   0.00000  Uiso   1.00
C948   C     0.56695   0.89598   0.50249   0.00000  Uiso   1.00
C949   C     0.57415   0.91709   0.95424   0.00000  Uiso   1.00
C950   C     0.53297   0.89484   0.92188   0.00000  Uiso   1.00
C951   C     0.51179   0.83064   0.56595   0.00000  Uiso   1.00
C952   C     0.60358   0.89390   0.58192   0.00000  Uiso   1.00
Cu953  Cu    0.44043   0.82772   0.74435   0.00000  Uiso   1.00
Cu954  Cu    0.55957   0.83895   0.75564   0.00000  Uiso   1.00
H955   H     0.63485   0.91207   0.60734   0.00000  Uiso   1.00
H956   H     0.37875   0.97375   0.65176   0.00000  Uiso   1.00
H957   H     0.42615   0.70594   0.65577   0.00000  Uiso   1.00
H958   H     0.36503   0.67842   0.71052   0.00000  Uiso   1.00
H959   H     0.66477   0.87336   0.88473   0.00000  Uiso   1.00
H960   H     0.59895   0.71071   0.88078   0.00000  Uiso   1.00
H961   H     0.36996   0.85776   0.63367   0.00000  Uiso   1.00
H962   H     0.66519   0.79719   0.70693   0.00000  Uiso   1.00
H963   H     0.61338   0.94912   0.94044   0.00000  Uiso   1.00
H964   H     0.65134   0.94675   0.52070   0.00000  Uiso   1.00
H965   H     0.47603   0.79579   0.57804   0.00000  Uiso   1.00
H966   H     0.65536   0.75972   0.99297   0.00000  Uiso   1.00
H967   H     0.54163   0.91153   0.88425   0.00000  Uiso   1.00
H968   H     0.55525   0.67920   0.77393   0.00000  Uiso   1.00
H969   H     0.47031   0.95906   0.66937   0.00000  Uiso   1.00
N970   N     0.64908   0.84741   0.76416   0.00000  Uiso   1.00
N971   N     0.35092   0.81926   0.73584   0.00000  Uiso   1.00
N972   N     0.44662   0.98148   0.69686   0.00000  Uiso   1.00
O973   O     0.46131   0.90474   0.74633   0.00000  Uiso   1.00
O974   O     0.64957   0.84978   0.85571   0.00000  Uiso   1.00
O975   O     0.37725   0.72717   0.85362   0.00000  Uiso   1.00
O976   O     0.61922   0.73733   0.90551   0.00000  Uiso   1.00
O977   O     0.33365   0.77795   0.58674   0.00000  Uiso   1.00
O978   O     0.39350   0.85985   0.59651   0.00000  Uiso   1.00
O979   O     0.56191   0.91422   0.75586   0.00000  Uiso   1.00
O980   O     0.42515   0.82627   0.81839   0.00000  Uiso   1.00
O981   O     0.52575   0.83575   0.82793   0.00000  Uiso   1.00
O982   O     0.43809   0.75245   0.74413   0.00000  Uiso   1.00
O983   O     0.53869   0.76193   0.75367   0.00000  Uiso   1.00
O984   O     0.47425   0.83092   0.67207   0.00000  Uiso   1.00
O985   O     0.57485   0.84040   0.68160   0.00000  Uiso   1.00
O986   O     0.35755   0.92212   0.80676   0.00000  Uiso   1.00
C987   C     0.84868   0.93335   0.75048   0.00000  Uiso   1.00
C988   C     0.77771   0.82389   0.90382   0.00000  Uiso   1.00
C989   C     0.85521   0.98940   0.75205   0.00000  Uiso   1.00
C990   C     0.79949   0.82952   0.84734   0.00000  Uiso   1.00
C991   C     0.81675   0.67780   0.73225   0.00000  Uiso   1.00
C992   C     0.81999   0.73352   0.74366   0.00000  Uiso   1.00
C993   C     0.86707   0.83832   0.65294   0.00000  Uiso   1.00
C994   C     0.94494   0.91476   0.53334   0.00000  Uiso   1.00
C995   C     0.88665   0.85176   0.59842   0.00000  Uiso   1.00
C996   C     0.72189   0.78683   0.92409   0.00000  Uiso   1.00
C997   C     0.70096   0.78396   0.97753   0.00000  Uiso   1.00
C998   C     0.79987   0.83941   0.99091   0.00000  Uiso   1.00
C999   C     0.73829   0.81083   0.51144   0.00000  Uiso   1.00
C1000  C     0.73537   0.66991   0.67795   0.00000  Uiso   1.00
C1001  C     0.66711   0.87494   0.80849   0.00000  Uiso   1.00
C1002  C     0.68452   0.74934   0.89142   0.00000  Uiso   1.00
C1003  C     0.70850   0.81424   0.56703   0.00000  Uiso   1.00
C1004  C     0.81477   0.85277   0.93827   0.00000  Uiso   1.00
C1005  C     0.84734   0.85556   0.52041   0.00000  Uiso   1.00
C1006  C     0.90028   0.89598   0.50249   0.00000  Uiso   1.00
C1007  C     0.90749   0.91709   0.95424   0.00000  Uiso   1.00
C1008  C     0.86630   0.89484   0.92188   0.00000  Uiso   1.00
C1009  C     0.84512   0.83064   0.56595   0.00000  Uiso   1.00
C1010  C     0.93691   0.89390   0.58192   0.00000  Uiso   1.00
Cu1011 Cu    0.77377   0.82772   0.74435   0.00000  Uiso   1.00
Cu1012 Cu    0.89290   0.83895   0.75564   0.00000  Uiso   1.00
H1013  H     0.96819   0.91207   0.60734   0.00000  Uiso   1.00
H1014  H     0.71208   0.97375   0.65176   0.00000  Uiso   1.00
H1015  H     0.75948   0.70594   0.65577   0.00000  Uiso   1.00
H1016  H     0.69836   0.67842   0.71052   0.00000  Uiso   1.00
H1017  H     0.99810   0.87336   0.88473   0.00000  Uiso   1.00
H1018  H     0.93229   0.71071   0.88078   0.00000  Uiso   1.00
H1019  H     0.70329   0.85776   0.63367   0.00000  Uiso   1.00
H1020  H     0.99852   0.79719   0.70693   0.00000  Uiso   1.00
H1021  H     0.94671   0.94912   0.94044   0.00000  Uiso   1.00
H1022  H     0.98467   0.94675   0.52070   0.00000  Uiso   1.00
H1023  H     0.80937   0.79579   0.57804   0.00000  Uiso   1.00
H1024  H     0.98870   0.75972   0.99297   0.00000  Uiso   1.00
H1025  H     0.87497   0.91153   0.88425   0.00000  Uiso   1.00
H1026  H     0.88858   0.67920   0.77393   0.00000  Uiso   1.00
H1027  H     0.80364   0.95906   0.66937   0.00000  Uiso   1.00
N1028  N     0.98241   0.84741   0.76416   0.00000  Uiso   1.00
N1029  N     0.68426   0.81926   0.73584   0.00000  Uiso   1.00
N1030  N     0.77995   0.98148   0.69686   0.00000  Uiso   1.00
O1031  O     0.79464   0.90474   0.74633   0.00000  Uiso   1.00
O1032  O     0.98291   0.84978   0.85571   0.00000  Uiso   1.00
O1033  O     0.71058   0.72717   0.85362   0.00000  Uiso   1.00
O1034  O     0.95256   0.73733   0.90551   0.00000  Uiso   1.00
O1035  O     0.66699   0.77795   0.58674   0.00000  Uiso   1.00
O1036  O     0.72683   0.85985   0.59651   0.00000  Uiso   1.00
O1037  O     0.89524   0.91422   0.75586   0.00000  Uiso   1.00
O1038  O     0.75848   0.82627   0.81839   0.00000  Uiso   1.00
O1039  O     0.85908   0.83575   0.82793   0.00000  Uiso   1.00
O1040  O     0.77142   0.75245   0.74413   0.00000  Uiso   1.00
O1041  O     0.87203   0.76193   0.75367   0.00000  Uiso   1.00
O1042  O     0.80758   0.83092   0.67207   0.00000  Uiso   1.00
O1043  O     0.90819   0.84040   0.68160   0.00000  Uiso   1.00
O1044  O     0.69088   0.92212   0.80676   0.00000  Uiso   1.00
loop_
_geom_bond_atom_site_label_1
_geom_bond_atom_site_label_2
_geom_bond_distance
_geom_bond_site_symmetry_2
_ccdc_geom_bond_type
C1     O51     1.295   .     A
C1     O45     1.290   .     A
C1     C3      1.431   .     S
C2     C4      1.480   .     S
C2     C18     1.421   .     A
C2     C10     1.423   .     A
C3     C179    1.344   .     S
C3     H214    1.088   .     S
C4     O53     1.303   .     A
C4     O52     1.304   .     A
C5     C6      1.447   .     S
C5     C351    1.344   1_545 S
C5     N392    1.443   1_545 S
C6     O55     1.298   .     A
C6     O54     1.293   .     A
C7     O56     1.297   .     A
C7     C9      1.464   .     S
C7     O57     1.305   .     A
C8     C20     1.405   .     A
C8     C24     1.397   .     A
C8     H36     1.084   .     S
C9     C24     1.400   .     A
C9     C23     1.395   .     A
C10    C16     1.486   .     S
C10    C11     1.396   .     A
C11    C535    1.398   .     S
C11    H154    1.085   1_455 S
C12    C18     1.416   .     A
C12    C535    1.423   .     S
C12    C541    1.422   .     S
C13    C17     1.488   .     S
C13    C534    1.423   1_554 S
C13    C533    1.398   1_554 S
C14    H30     1.110   .     S
C14    H29     1.111   .     S
C14    H376    1.110   1_545 S
C14    N392    1.447   1_545 S
C15    O58     1.222   .     D
C15    N158    1.413   1_455 S
C15    O162    1.397   1_455 S
C16    O47     1.223   .     D
C16    O164    1.399   1_455 S
C17    O50     1.399   .     S
C17    O49     1.223   .     D
C18    C22     1.414   .     A
C19    C23     1.402   .     A
C19    C20     1.416   .     A
C19    C534    1.422   1_554 S
C20    C543    1.395   1_554 S
C21    H35     1.084   .     S
C21    C22     1.393   .     A
C21    C542    1.395   .     S
C22    H39     1.081   .     S
C23    H37     1.081   .     S
C24    H27     1.082   .     S
Cu25   O56     1.905   .     S
Cu25   O52     1.921   .     S
Cu25   O54     1.948   .     S
Cu25   N43     2.029   .     S
Cu25   O45     1.951   .     S
Cu25   Cu26    2.700   .     S
Cu26   O55     1.951   .     S
Cu26   O57     1.921   .     S
Cu26   O51     1.948   .     S
Cu26   O53     1.905   .     S
Cu26   N42     2.029   .     S
H28    C188    1.110   .     S
H31    O46     1.013   .     S
H32    O48     1.014   .     S
H33    O50     1.013   .     S
H34    N101    1.029   .     S
H38    C69     1.085   .     S
H40    C351    1.088   1_545 S
H41    N44     1.032   .     S
N42    C73     1.413   .     S
N42    N101    1.285   .     S
N43    N158    1.285   1_455 S
N43    H150    1.029   1_455 S
N44    C188    1.447   .     S
N44    C179    1.443   .     S
O46    C73     1.397   .     S
O48    C74     1.399   .     S
C59    O109    1.295   .     A
C59    O103    1.290   .     A
C59    C61     1.431   .     S
C60    C62     1.480   .     S
C60    C76     1.421   .     A
C60    C68     1.423   .     A
C61    C237    1.344   .     S
C61    H272    1.088   .     S
C62    O111    1.303   .     A
C62    O110    1.304   .     A
C63    C64     1.447   .     S
C63    C409    1.344   1_545 S
C63    N450    1.443   1_545 S
C64    O113    1.298   .     A
C64    O112    1.293   .     A
C65    O114    1.297   .     A
C65    C67     1.464   .     S
C65    O115    1.305   .     A
C66    C78     1.405   .     A
C66    C82     1.397   .     A
C66    H94     1.084   .     S
C67    C82     1.400   .     A
C67    C81     1.395   .     A
C68    C74     1.486   .     S
C68    C69     1.396   .     A
C69    C593    1.398   .     S
C70    C76     1.416   .     A
C70    C593    1.423   .     S
C70    C599    1.422   .     S
C71    C75     1.488   .     S
C71    C592    1.423   1_554 S
C71    C591    1.398   1_554 S
C72    H88     1.110   .     S
C72    H87     1.111   .     S
C72    H434    1.110   1_545 S
C72    N450    1.447   1_545 S
C73    O116    1.222   .     D
C74    O105    1.223   .     D
C75    O108    1.399   .     S
C75    O107    1.223   .     D
C76    C80     1.414   .     A
C77    C81     1.402   .     A
C77    C78     1.416   .     A
C77    C592    1.422   1_554 S
C78    C601    1.395   1_554 S
C79    H93     1.084   .     S
C79    C80     1.393   .     A
C79    C600    1.395   .     S
C80    H97     1.081   .     S
C81    H95     1.081   .     S
C82    H85     1.082   .     S
Cu83   O114    1.905   .     S
Cu83   O110    1.921   .     S
Cu83   O112    1.948   .     S
Cu83   N101    2.029   .     S
Cu83   O103    1.951   .     S
Cu83   Cu84    2.700   .     S
Cu84   O113    1.951   .     S
Cu84   O115    1.921   .     S
Cu84   O109    1.948   .     S
Cu84   O111    1.905   .     S
Cu84   N100    2.029   .     S
H86    C246    1.110   .     S
H89    O104    1.013   .     S
H90    O106    1.014   .     S
H91    O108    1.013   .     S
H92    N159    1.029   .     S
H96    C127    1.085   .     S
H98    C409    1.088   1_545 S
H99    N102    1.032   .     S
N100   C131    1.413   .     S
N100   N159    1.285   .     S
N102   C246    1.447   .     S
N102   C237    1.443   .     S
O104   C131    1.397   .     S
O106   C132    1.399   .     S
C117   O167    1.295   .     A
C117   O161    1.290   .     A
C117   C119    1.431   .     S
C118   C120    1.480   .     S
C118   C134    1.421   .     A
C118   C126    1.423   .     A
C119   C295    1.344   .     S
C119   H330    1.088   .     S
C120   O169    1.303   .     A
C120   O168    1.304   .     A
C121   C122    1.447   .     S
C121   C467    1.344   1_545 S
C121   N508    1.443   1_545 S
C122   O171    1.298   .     A
C122   O170    1.293   .     A
C123   O172    1.297   .     A
C123   C125    1.464   .     S
C123   O173    1.305   .     A
C124   C136    1.405   .     A
C124   C140    1.397   .     A
C124   H152    1.084   .     S
C125   C140    1.400   .     A
C125   C139    1.395   .     A
C126   C132    1.486   .     S
C126   C127    1.396   .     A
C127   C651    1.398   .     S
C128   C134    1.416   .     A
C128   C651    1.423   .     S
C128   C657    1.422   .     S
C129   C133    1.488   .     S
C129   C650    1.423   1_554 S
C129   C649    1.398   1_554 S
C130   H146    1.110   .     S
C130   H145    1.111   .     S
C130   H492    1.110   1_545 S
C130   N508    1.447   1_545 S
C131   O174    1.222   .     D
C132   O163    1.223   .     D
C133   O166    1.399   .     S
C133   O165    1.223   .     D
C134   C138    1.414   .     A
C135   C139    1.402   .     A
C135   C136    1.416   .     A
C135   C650    1.422   1_554 S
C136   C659    1.395   1_554 S
C137   H151    1.084   .     S
C137   C138    1.393   .     A
C137   C658    1.395   .     S
C138   H155    1.081   .     S
C139   H153    1.081   .     S
C140   H143    1.082   .     S
Cu141  O172    1.905   .     S
Cu141  O168    1.921   .     S
Cu141  O170    1.948   .     S
Cu141  N159    2.029   .     S
Cu141  O161    1.951   .     S
Cu141  Cu142   2.700   .     S
Cu142  O171    1.951   .     S
Cu142  O173    1.921   .     S
Cu142  O167    1.948   .     S
Cu142  O169    1.905   .     S
Cu142  N158    2.029   .     S
H144   C304    1.110   .     S
H147   O162    1.013   .     S
H148   O164    1.014   .     S
H149   O166    1.013   .     S
H150   N43     1.029   1_655 S
H154   C11     1.085   1_655 S
H156   C467    1.088   1_545 S
H157   N160    1.032   .     S
N158   C15     1.413   1_655 S
N158   N43     1.285   1_655 S
N160   C304    1.447   .     S
N160   C295    1.443   .     S
O162   C15     1.397   1_655 S
O164   C16     1.399   1_655 S
C175   O225    1.295   .     A
C175   O219    1.290   .     A
C175   C177    1.431   .     S
C176   C178    1.480   .     S
C176   C192    1.421   .     A
C176   C184    1.423   .     A
C177   C353    1.344   .     S
C177   H388    1.088   .     S
C178   O227    1.303   .     A
C178   O226    1.304   .     A
C179   C180    1.447   .     S
C180   O229    1.298   .     A
C180   O228    1.293   .     A
C181   O230    1.297   .     A
C181   C183    1.464   .     S
C181   O231    1.305   .     A
C182   C194    1.405   .     A
C182   C198    1.397   .     A
C182   H210    1.084   .     S
C183   C198    1.400   .     A
C183   C197    1.395   .     A
C184   C190    1.486   .     S
C184   C185    1.396   .     A
C185   C709    1.398   .     S
C185   H328    1.085   1_455 S
C186   C192    1.416   .     A
C186   C709    1.423   .     S
C186   C715    1.422   .     S
C187   C191    1.488   .     S
C187   C708    1.423   1_554 S
C187   C707    1.398   1_554 S
C188   H204    1.110   .     S
C188   H203    1.111   .     S
C189   O232    1.222   .     D
C189   N332    1.413   1_455 S
C189   O336    1.397   1_455 S
C190   O221    1.223   .     D
C190   O338    1.399   1_455 S
C191   O224    1.399   .     S
C191   O223    1.223   .     D
C192   C196    1.414   .     A
C193   C197    1.402   .     A
C193   C194    1.416   .     A
C193   C708    1.422   1_554 S
C194   C717    1.395   1_554 S
C195   H209    1.084   .     S
C195   C196    1.393   .     A
C195   C716    1.395   .     S
C196   H213    1.081   .     S
C197   H211    1.081   .     S
C198   H201    1.082   .     S
Cu199  O230    1.905   .     S
Cu199  O226    1.921   .     S
Cu199  O228    1.948   .     S
Cu199  N217    2.029   .     S
Cu199  O219    1.951   .     S
Cu199  Cu200   2.700   .     S
Cu200  O229    1.951   .     S
Cu200  O231    1.921   .     S
Cu200  O225    1.948   .     S
Cu200  O227    1.905   .     S
Cu200  N216    2.029   .     S
H202   C362    1.110   .     S
H205   O220    1.013   .     S
H206   O222    1.014   .     S
H207   O224    1.013   .     S
H208   N275    1.029   .     S
H212   C243    1.085   .     S
H215   N218    1.032   .     S
N216   C247    1.413   .     S
N216   N275    1.285   .     S
N217   N332    1.285   1_455 S
N217   H324    1.029   1_455 S
N218   C362    1.447   .     S
N218   C353    1.443   .     S
O220   C247    1.397   .     S
O222   C248    1.399   .     S
C233   O283    1.295   .     A
C233   O277    1.290   .     A
C233   C235    1.431   .     S
C234   C236    1.480   .     S
C234   C250    1.421   .     A
C234   C242    1.423   .     A
C235   C411    1.344   .     S
C235   H446    1.088   .     S
C236   O285    1.303   .     A
C236   O284    1.304   .     A
C237   C238    1.447   .     S
C238   O287    1.298   .     A
C238   O286    1.293   .     A
C239   O288    1.297   .     A
C239   C241    1.464   .     S
C239   O289    1.305   .     A
C240   C252    1.405   .     A
C240   C256    1.397   .     A
C240   H268    1.084   .     S
C241   C256    1.400   .     A
C241   C255    1.395   .     A
C242   C248    1.486   .     S
C242   C243    1.396   .     A
C243   C767    1.398   .     S
C244   C250    1.416   .     A
C244   C767    1.423   .     S
C244   C773    1.422   .     S
C245   C249    1.488   .     S
C245   C766    1.423   1_554 S
C245   C765    1.398   1_554 S
C246   H262    1.110   .     S
C246   H261    1.111   .     S
C247   O290    1.222   .     D
C248   O279    1.223   .     D
C249   O282    1.399   .     S
C249   O281    1.223   .     D
C250   C254    1.414   .     A
C251   C255    1.402   .     A
C251   C252    1.416   .     A
C251   C766    1.422   1_554 S
C252   C775    1.395   1_554 S
C253   H267    1.084   .     S
C253   C254    1.393   .     A
C253   C774    1.395   .     S
C254   H271    1.081   .     S
C255   H269    1.081   .     S
C256   H259    1.082   .     S
Cu257  O288    1.905   .     S
Cu257  O284    1.921   .     S
Cu257  O286    1.948   .     S
Cu257  N275    2.029   .     S
Cu257  O277    1.951   .     S
Cu257  Cu258   2.700   .     S
Cu258  O287    1.951   .     S
Cu258  O289    1.921   .     S
Cu258  O283    1.948   .     S
Cu258  O285    1.905   .     S
Cu258  N274    2.029   .     S
H260   C420    1.110   .     S
H263   O278    1.013   .     S
H264   O280    1.014   .     S
H265   O282    1.013   .     S
H266   N333    1.029   .     S
H270   C301    1.085   .     S
H273   N276    1.032   .     S
N274   C305    1.413   .     S
N274   N333    1.285   .     S
N276   C420    1.447   .     S
N276   C411    1.443   .     S
O278   C305    1.397   .     S
O280   C306    1.399   .     S
C291   O341    1.295   .     A
C291   O335    1.290   .     A
C291   C293    1.431   .     S
C292   C294    1.480   .     S
C292   C308    1.421   .     A
C292   C300    1.423   .     A
C293   C469    1.344   .     S
C293   H504    1.088   .     S
C294   O343    1.303   .     A
C294   O342    1.304   .     A
C295   C296    1.447   .     S
C296   O345    1.298   .     A
C296   O344    1.293   .     A
C297   O346    1.297   .     A
C297   C299    1.464   .     S
C297   O347    1.305   .     A
C298   C310    1.405   .     A
C298   C314    1.397   .     A
C298   H326    1.084   .     S
C299   C314    1.400   .     A
C299   C313    1.395   .     A
C300   C306    1.486   .     S
C300   C301    1.396   .     A
C301   C825    1.398   .     S
C302   C308    1.416   .     A
C302   C825    1.423   .     S
C302   C831    1.422   .     S
C303   C307    1.488   .     S
C303   C824    1.423   1_554 S
C303   C823    1.398   1_554 S
C304   H320    1.110   .     S
C304   H319    1.111   .     S
C305   O348    1.222   .     D
C306   O337    1.223   .     D
C307   O340    1.399   .     S
C307   O339    1.223   .     D
C308   C312    1.414   .     A
C309   C313    1.402   .     A
C309   C310    1.416   .     A
C309   C824    1.422   1_554 S
C310   C833    1.395   1_554 S
C311   H325    1.084   .     S
C311   C312    1.393   .     A
C311   C832    1.395   .     S
C312   H329    1.081   .     S
C313   H327    1.081   .     S
C314   H317    1.082   .     S
Cu315  O346    1.905   .     S
Cu315  O342    1.921   .     S
Cu315  O344    1.948   .     S
Cu315  N333    2.029   .     S
Cu315  O335    1.951   .     S
Cu315  Cu316   2.700   .     S
Cu316  O345    1.951   .     S
Cu316  O347    1.921   .     S
Cu316  O341    1.948   .     S
Cu316  O343    1.905   .     S
Cu316  N332    2.029   .     S
H318   C478    1.110   .     S
H321   O336    1.013   .     S
H322   O338    1.014   .     S
H323   O340    1.013   .     S
H324   N217    1.029   1_655 S
H328   C185    1.085   1_655 S
H331   N334    1.032   .     S
N332   C189    1.413   1_655 S
N332   N217    1.285   1_655 S
N334   C478    1.447   .     S
N334   C469    1.443   .     S
O336   C189    1.397   1_655 S
O338   C190    1.399   1_655 S
C349   O399    1.295   .     A
C349   O393    1.290   .     A
C349   C351    1.431   .     S
C350   C352    1.480   .     S
C350   C366    1.421   .     A
C350   C358    1.423   .     A
C351   C5      1.344   1_565 S
C351   H40     1.088   1_565 S
C352   O401    1.303   .     A
C352   O400    1.304   .     A
C353   C354    1.447   .     S
C354   O403    1.298   .     A
C354   O402    1.293   .     A
C355   O404    1.297   .     A
C355   C357    1.464   .     S
C355   O405    1.305   .     A
C356   C368    1.405   .     A
C356   C372    1.397   .     A
C356   H384    1.084   .     S
C357   C372    1.400   .     A
C357   C371    1.395   .     A
C358   C364    1.486   .     S
C358   C359    1.396   .     A
C359   C883    1.398   .     S
C359   H502    1.085   1_455 S
C360   C366    1.416   .     A
C360   C883    1.423   .     S
C360   C889    1.422   .     S
C361   C365    1.488   .     S
C361   C882    1.423   1_554 S
C361   C881    1.398   1_554 S
C362   H378    1.110   .     S
C362   H377    1.111   .     S
C363   O406    1.222   .     D
C363   N506    1.413   1_455 S
C363   O510    1.397   1_455 S
C364   O395    1.223   .     D
C364   O512    1.399   1_455 S
C365   O398    1.399   .     S
C365   O397    1.223   .     D
C366   C370    1.414   .     A
C367   C371    1.402   .     A
C367   C368    1.416   .     A
C367   C882    1.422   1_554 S
C368   C891    1.395   1_554 S
C369   H383    1.084   .     S
C369   C370    1.393   .     A
C369   C890    1.395   .     S
C370   H387    1.081   .     S
C371   H385    1.081   .     S
C372   H375    1.082   .     S
Cu373  O404    1.905   .     S
Cu373  O400    1.921   .     S
Cu373  O402    1.948   .     S
Cu373  N391    2.029   .     S
Cu373  O393    1.951   .     S
Cu373  Cu374   2.700   .     S
Cu374  O403    1.951   .     S
Cu374  O405    1.921   .     S
Cu374  O399    1.948   .     S
Cu374  O401    1.905   .     S
Cu374  N390    2.029   .     S
H376   C14     1.110   1_565 S
H379   O394    1.013   .     S
H380   O396    1.014   .     S
H381   O398    1.013   .     S
H382   N449    1.029   .     S
H386   C417    1.085   .     S
H389   N392    1.032   .     S
N390   C421    1.413   .     S
N390   N449    1.285   .     S
N391   N506    1.285   1_455 S
N391   H498    1.029   1_455 S
N392   C14     1.447   1_565 S
N392   C5      1.443   1_565 S
O394   C421    1.397   .     S
O396   C422    1.399   .     S
C407   O457    1.295   .     A
C407   O451    1.290   .     A
C407   C409    1.431   .     S
C408   C410    1.480   .     S
C408   C424    1.421   .     A
C408   C416    1.423   .     A
C409   C63     1.344   1_565 S
C409   H98     1.088   1_565 S
C410   O459    1.303   .     A
C410   O458    1.304   .     A
C411   C412    1.447   .     S
C412   O461    1.298   .     A
C412   O460    1.293   .     A
C413   O462    1.297   .     A
C413   C415    1.464   .     S
C413   O463    1.305   .     A
C414   C426    1.405   .     A
C414   C430    1.397   .     A
C414   H442    1.084   .     S
C415   C430    1.400   .     A
C415   C429    1.395   .     A
C416   C422    1.486   .     S
C416   C417    1.396   .     A
C417   C941    1.398   .     S
C418   C424    1.416   .     A
C418   C941    1.423   .     S
C418   C947    1.422   .     S
C419   C423    1.488   .     S
C419   C940    1.423   1_554 S
C419   C939    1.398   1_554 S
C420   H436    1.110   .     S
C420   H435    1.111   .     S
C421   O464    1.222   .     D
C422   O453    1.223   .     D
C423   O456    1.399   .     S
C423   O455    1.223   .     D
C424   C428    1.414   .     A
C425   C429    1.402   .     A
C425   C426    1.416   .     A
C425   C940    1.422   1_554 S
C426   C949    1.395   1_554 S
C427   H441    1.084   .     S
C427   C428    1.393   .     A
C427   C948    1.395   .     S
C428   H445    1.081   .     S
C429   H443    1.081   .     S
C430   H433    1.082   .     S
Cu431  O462    1.905   .     S
Cu431  O458    1.921   .     S
Cu431  O460    1.948   .     S
Cu431  N449    2.029   .     S
Cu431  O451    1.951   .     S
Cu431  Cu432   2.700   .     S
Cu432  O461    1.951   .     S
Cu432  O463    1.921   .     S
Cu432  O457    1.948   .     S
Cu432  O459    1.905   .     S
Cu432  N448    2.029   .     S
H434   C72     1.110   1_565 S
H437   O452    1.013   .     S
H438   O454    1.014   .     S
H439   O456    1.013   .     S
H440   N507    1.029   .     S
H444   C475    1.085   .     S
H447   N450    1.032   .     S
N448   C479    1.413   .     S
N448   N507    1.285   .     S
N450   C72     1.447   1_565 S
N450   C63     1.443   1_565 S
O452   C479    1.397   .     S
O454   C480    1.399   .     S
C465   O515    1.295   .     A
C465   O509    1.290   .     A
C465   C467    1.431   .     S
C466   C468    1.480   .     S
C466   C482    1.421   .     A
C466   C474    1.423   .     A
C467   C121    1.344   1_565 S
C467   H156    1.088   1_565 S
C468   O517    1.303   .     A
C468   O516    1.304   .     A
C469   C470    1.447   .     S
C470   O519    1.298   .     A
C470   O518    1.293   .     A
C471   O520    1.297   .     A
C471   C473    1.464   .     S
C471   O521    1.305   .     A
C472   C484    1.405   .     A
C472   C488    1.397   .     A
C472   H500    1.084   .     S
C473   C488    1.400   .     A
C473   C487    1.395   .     A
C474   C480    1.486   .     S
C474   C475    1.396   .     A
C475   C999    1.398   .     S
C476   C482    1.416   .     A
C476   C999    1.423   .     S
C476   C1005   1.422   .     S
C477   C481    1.488   .     S
C477   C998    1.423   1_554 S
C477   C997    1.398   1_554 S
C478   H494    1.110   .     S
C478   H493    1.111   .     S
C479   O522    1.222   .     D
C480   O511    1.223   .     D
C481   O514    1.399   .     S
C481   O513    1.223   .     D
C482   C486    1.414   .     A
C483   C487    1.402   .     A
C483   C484    1.416   .     A
C483   C998    1.422   1_554 S
C484   C1007   1.395   1_554 S
C485   H499    1.084   .     S
C485   C486    1.393   .     A
C485   C1006   1.395   .     S
C486   H503    1.081   .     S
C487   H501    1.081   .     S
C488   H491    1.082   .     S
Cu489  O520    1.905   .     S
Cu489  O516    1.921   .     S
Cu489  O518    1.948   .     S
Cu489  N507    2.029   .     S
Cu489  O509    1.951   .     S
Cu489  Cu490   2.700   .     S
Cu490  O519    1.951   .     S
Cu490  O521    1.921   .     S
Cu490  O515    1.948   .     S
Cu490  O517    1.905   .     S
Cu490  N506    2.029   .     S
H492   C130    1.110   1_565 S
H495   O510    1.013   .     S
H496   O512    1.014   .     S
H497   O514    1.013   .     S
H498   N391    1.029   1_655 S
H502   C359    1.085   1_655 S
H505   N508    1.032   .     S
N506   C363    1.413   1_655 S
N506   N391    1.285   1_655 S
N508   C130    1.447   1_565 S
N508   C121    1.443   1_565 S
O510   C363    1.397   1_655 S
O512   C364    1.399   1_655 S
C523   O573    1.295   .     A
C523   O567    1.290   .     A
C523   C525    1.431   .     S
C524   C526    1.480   .     S
C524   C540    1.421   .     A
C524   C532    1.423   .     A
C525   C701    1.344   .     S
C525   H736    1.088   .     S
C526   O575    1.303   .     A
C526   O574    1.304   .     A
C527   C528    1.447   .     S
C527   C873    1.344   1_545 S
C527   N914    1.443   1_545 S
C528   O577    1.298   .     A
C528   O576    1.293   .     A
C529   O578    1.297   .     A
C529   C531    1.464   .     S
C529   O579    1.305   .     A
C530   C542    1.405   .     A
C530   C546    1.397   .     A
C530   H558    1.084   .     S
C531   C546    1.400   .     A
C531   C545    1.395   .     A
C532   C538    1.486   .     S
C532   C533    1.396   .     A
C533   C13     1.398   1_556 S
C533   H676    1.085   1_455 S
C534   C540    1.416   .     A
C534   C13     1.423   1_556 S
C534   C19     1.422   1_556 S
C535   C539    1.488   .     S
C536   H552    1.110   .     S
C536   H551    1.111   .     S
C536   H898    1.110   1_545 S
C536   N914    1.447   1_545 S
C537   O580    1.222   .     D
C537   N680    1.413   1_455 S
C537   O684    1.397   1_455 S
C538   O569    1.223   .     D
C538   O686    1.399   1_455 S
C539   O572    1.399   .     S
C539   O571    1.223   .     D
C540   C544    1.414   .     A
C541   C545    1.402   .     A
C541   C542    1.416   .     A
C543   H557    1.084   .     S
C543   C544    1.393   .     A
C543   C20     1.395   1_556 S
C544   H561    1.081   .     S
C545   H559    1.081   .     S
C546   H549    1.082   .     S
Cu547  O578    1.905   .     S
Cu547  O574    1.921   .     S
Cu547  O576    1.948   .     S
Cu547  N565    2.029   .     S
Cu547  O567    1.951   .     S
Cu547  Cu548   2.700   .     S
Cu548  O577    1.951   .     S
Cu548  O579    1.921   .     S
Cu548  O573    1.948   .     S
Cu548  O575    1.905   .     S
Cu548  N564    2.029   .     S
H550   C710    1.110   .     S
H553   O568    1.013   .     S
H554   O570    1.014   .     S
H555   O572    1.013   .     S
H556   N623    1.029   .     S
H560   C591    1.085   .     S
H562   C873    1.088   1_545 S
H563   N566    1.032   .     S
N564   C595    1.413   .     S
N564   N623    1.285   .     S
N565   N680    1.285   1_455 S
N565   H672    1.029   1_455 S
N566   C710    1.447   .     S
N566   C701    1.443   .     S
O568   C595    1.397   .     S
O570   C596    1.399   .     S
C581   O631    1.295   .     A
C581   O625    1.290   .     A
C581   C583    1.431   .     S
C582   C584    1.480   .     S
C582   C598    1.421   .     A
C582   C590    1.423   .     A
C583   C759    1.344   .     S
C583   H794    1.088   .     S
C584   O633    1.303   .     A
C584   O632    1.304   .     A
C585   C586    1.447   .     S
C585   C931    1.344   1_545 S
C585   N972    1.443   1_545 S
C586   O635    1.298   .     A
C586   O634    1.293   .     A
C587   O636    1.297   .     A
C587   C589    1.464   .     S
C587   O637    1.305   .     A
C588   C600    1.405   .     A
C588   C604    1.397   .     A
C588   H616    1.084   .     S
C589   C604    1.400   .     A
C589   C603    1.395   .     A
C590   C596    1.486   .     S
C590   C591    1.396   .     A
C591   C71     1.398   1_556 S
C592   C598    1.416   .     A
C592   C71     1.423   1_556 S
C592   C77     1.422   1_556 S
C593   C597    1.488   .     S
C594   H610    1.110   .     S
C594   H609    1.111   .     S
C594   H956    1.110   1_545 S
C594   N972    1.447   1_545 S
C595   O638    1.222   .     D
C596   O627    1.223   .     D
C597   O630    1.399   .     S
C597   O629    1.223   .     D
C598   C602    1.414   .     A
C599   C603    1.402   .     A
C599   C600    1.416   .     A
C601   H615    1.084   .     S
C601   C602    1.393   .     A
C601   C78     1.395   1_556 S
C602   H619    1.081   .     S
C603   H617    1.081   .     S
C604   H607    1.082   .     S
Cu605  O636    1.905   .     S
Cu605  O632    1.921   .     S
Cu605  O634    1.948   .     S
Cu605  N623    2.029   .     S
Cu605  O625    1.951   .     S
Cu605  Cu606   2.700   .     S
Cu606  O635    1.951   .     S
Cu606  O637    1.921   .     S
Cu606  O631    1.948   .     S
Cu606  O633    1.905   .     S
Cu606  N622    2.029   .     S
H608   C768    1.110   .     S
H611   O626    1.013   .     S
H612   O628    1.014   .     S
H613   O630    1.013   .     S
H614   N681    1.029   .     S
H618   C649    1.085   .     S
H620   C931    1.088   1_545 S
H621   N624    1.032   .     S
N622   C653    1.413   .     S
N622   N681    1.285   .     S
N624   C768    1.447   .     S
N624   C759    1.443   .     S
O626   C653    1.397   .     S
O628   C654    1.399   .     S
C639   O689    1.295   .     A
C639   O683    1.290   .     A
C639   C641    1.431   .     S
C640   C642    1.480   .     S
C640   C656    1.421   .     A
C640   C648    1.423   .     A
C641   C817    1.344   .     S
C641   H852    1.088   .     S
C642   O691    1.303   .     A
C642   O690    1.304   .     A
C643   C644    1.447   .     S
C643   C989    1.344   1_545 S
C643   N1030   1.443   1_545 S
C644   O693    1.298   .     A
C644   O692    1.293   .     A
C645   O694    1.297   .     A
C645   C647    1.464   .     S
C645   O695    1.305   .     A
C646   C658    1.405   .     A
C646   C662    1.397   .     A
C646   H674    1.084   .     S
C647   C662    1.400   .     A
C647   C661    1.395   .     A
C648   C654    1.486   .     S
C648   C649    1.396   .     A
C649   C129    1.398   1_556 S
C650   C656    1.416   .     A
C650   C129    1.423   1_556 S
C650   C135    1.422   1_556 S
C651   C655    1.488   .     S
C652   H668    1.110   .     S
C652   H667    1.111   .     S
C652   H1014   1.110   1_545 S
C652   N1030   1.447   1_545 S
C653   O696    1.222   .     D
C654   O685    1.223   .     D
C655   O688    1.399   .     S
C655   O687    1.223   .     D
C656   C660    1.414   .     A
C657   C661    1.402   .     A
C657   C658    1.416   .     A
C659   H673    1.084   .     S
C659   C660    1.393   .     A
C659   C136    1.395   1_556 S
C660   H677    1.081   .     S
C661   H675    1.081   .     S
C662   H665    1.082   .     S
Cu663  O694    1.905   .     S
Cu663  O690    1.921   .     S
Cu663  O692    1.948   .     S
Cu663  N681    2.029   .     S
Cu663  O683    1.951   .     S
Cu663  Cu664   2.700   .     S
Cu664  O693    1.951   .     S
Cu664  O695    1.921   .     S
Cu664  O689    1.948   .     S
Cu664  O691    1.905   .     S
Cu664  N680    2.029   .     S
H666   C826    1.110   .     S
H669   O684    1.013   .     S
H670   O686    1.014   .     S
H671   O688    1.013   .     S
H672   N565    1.029   1_655 S
H676   C533    1.085   1_655 S
H678   C989    1.088   1_545 S
H679   N682    1.032   .     S
N680   C537    1.413   1_655 S
N680   N565    1.285   1_655 S
N682   C826    1.447   .     S
N682   C817    1.443   .     S
O684   C537    1.397   1_655 S
O686   C538    1.399   1_655 S
C697   O747    1.295   .     A
C697   O741    1.290   .     A
C697   C699    1.431   .     S
C698   C700    1.480   .     S
C698   C714    1.421   .     A
C698   C706    1.423   .     A
C699   C875    1.344   .     S
C699   H910    1.088   .     S
C700   O749    1.303   .     A
C700   O748    1.304   .     A
C701   C702    1.447   .     S
C702   O751    1.298   .     A
C702   O750    1.293   .     A
C703   O752    1.297   .     A
C703   C705    1.464   .     S
C703   O753    1.305   .     A
C704   C716    1.405   .     A
C704   C720    1.397   .     A
C704   H732    1.084   .     S
C705   C720    1.400   .     A
C705   C719    1.395   .     A
C706   C712    1.486   .     S
C706   C707    1.396   .     A
C707   C187    1.398   1_556 S
C707   H850    1.085   1_455 S
C708   C714    1.416   .     A
C708   C187    1.423   1_556 S
C708   C193    1.422   1_556 S
C709   C713    1.488   .     S
C710   H726    1.110   .     S
C710   H725    1.111   .     S
C711   O754    1.222   .     D
C711   N854    1.413   1_455 S
C711   O858    1.397   1_455 S
C712   O743    1.223   .     D
C712   O860    1.399   1_455 S
C713   O746    1.399   .     S
C713   O745    1.223   .     D
C714   C718    1.414   .     A
C715   C719    1.402   .     A
C715   C716    1.416   .     A
C717   H731    1.084   .     S
C717   C718    1.393   .     A
C717   C194    1.395   1_556 S
C718   H735    1.081   .     S
C719   H733    1.081   .     S
C720   H723    1.082   .     S
Cu721  O752    1.905   .     S
Cu721  O748    1.921   .     S
Cu721  O750    1.948   .     S
Cu721  N739    2.029   .     S
Cu721  O741    1.951   .     S
Cu721  Cu722   2.700   .     S
Cu722  O751    1.951   .     S
Cu722  O753    1.921   .     S
Cu722  O747    1.948   .     S
Cu722  O749    1.905   .     S
Cu722  N738    2.029   .     S
H724   C884    1.110   .     S
H727   O742    1.013   .     S
H728   O744    1.014   .     S
H729   O746    1.013   .     S
H730   N797    1.029   .     S
H734   C765    1.085   .     S
H737   N740    1.032   .     S
N738   C769    1.413   .     S
N738   N797    1.285   .     S
N739   N854    1.285   1_455 S
N739   H846    1.029   1_455 S
N740   C884    1.447   .     S
N740   C875    1.443   .     S
O742   C769    1.397   .     S
O744   C770    1.399   .     S
C755   O805    1.295   .     A
C755   O799    1.290   .     A
C755   C757    1.431   .     S
C756   C758    1.480   .     S
C756   C772    1.421   .     A
C756   C764    1.423   .     A
C757   C933    1.344   .     S
C757   H968    1.088   .     S
C758   O807    1.303   .     A
C758   O806    1.304   .     A
C759   C760    1.447   .     S
C760   O809    1.298   .     A
C760   O808    1.293   .     A
C761   O810    1.297   .     A
C761   C763    1.464   .     S
C761   O811    1.305   .     A
C762   C774    1.405   .     A
C762   C778    1.397   .     A
C762   H790    1.084   .     S
C763   C778    1.400   .     A
C763   C777    1.395   .     A
C764   C770    1.486   .     S
C764   C765    1.396   .     A
C765   C245    1.398   1_556 S
C766   C772    1.416   .     A
C766   C245    1.423   1_556 S
C766   C251    1.422   1_556 S
C767   C771    1.488   .     S
C768   H784    1.110   .     S
C768   H783    1.111   .     S
C769   O812    1.222   .     D
C770   O801    1.223   .     D
C771   O804    1.399   .     S
C771   O803    1.223   .     D
C772   C776    1.414   .     A
C773   C777    1.402   .     A
C773   C774    1.416   .     A
C775   H789    1.084   .     S
C775   C776    1.393   .     A
C775   C252    1.395   1_556 S
C776   H793    1.081   .     S
C777   H791    1.081   .     S
C778   H781    1.082   .     S
Cu779  O810    1.905   .     S
Cu779  O806    1.921   .     S
Cu779  O808    1.948   .     S
Cu779  N797    2.029   .     S
Cu779  O799    1.951   .     S
Cu779  Cu780   2.700   .     S
Cu780  O809    1.951   .     S
Cu780  O811    1.921   .     S
Cu780  O805    1.948   .     S
Cu780  O807    1.905   .     S
Cu780  N796    2.029   .     S
H782   C942    1.110   .     S
H785   O800    1.013   .     S
H786   O802    1.014   .     S
H787   O804    1.013   .     S
H788   N855    1.029   .     S
H792   C823    1.085   .     S
H795   N798    1.032   .     S
N796   C827    1.413   .     S
N796   N855    1.285   .     S
N798   C942    1.447   .     S
N798   C933    1.443   .     S
O800   C827    1.397   .     S
O802   C828    1.399   .     S
C813   O863    1.295   .     A
C813   O857    1.290   .     A
C813   C815    1.431   .     S
C814   C816    1.480   .     S
C814   C830    1.421   .     A
C814   C822    1.423   .     A
C815   C991    1.344   .     S
C815   H1026   1.088   .     S
C816   O865    1.303   .     A
C816   O864    1.304   .     A
C817   C818    1.447   .     S
C818   O867    1.298   .     A
C818   O866    1.293   .     A
C819   O868    1.297   .     A
C819   C821    1.464   .     S
C819   O869    1.305   .     A
C820   C832    1.405   .     A
C820   C836    1.397   .     A
C820   H848    1.084   .     S
C821   C836    1.400   .     A
C821   C835    1.395   .     A
C822   C828    1.486   .     S
C822   C823    1.396   .     A
C823   C303    1.398   1_556 S
C824   C830    1.416   .     A
C824   C303    1.423   1_556 S
C824   C309    1.422   1_556 S
C825   C829    1.488   .     S
C826   H842    1.110   .     S
C826   H841    1.111   .     S
C827   O870    1.222   .     D
C828   O859    1.223   .     D
C829   O862    1.399   .     S
C829   O861    1.223   .     D
C830   C834    1.414   .     A
C831   C835    1.402   .     A
C831   C832    1.416   .     A
C833   H847    1.084   .     S
C833   C834    1.393   .     A
C833   C310    1.395   1_556 S
C834   H851    1.081   .     S
C835   H849    1.081   .     S
C836   H839    1.082   .     S
Cu837  O868    1.905   .     S
Cu837  O864    1.921   .     S
Cu837  O866    1.948   .     S
Cu837  N855    2.029   .     S
Cu837  O857    1.951   .     S
Cu837  Cu838   2.700   .     S
Cu838  O867    1.951   .     S
Cu838  O869    1.921   .     S
Cu838  O863    1.948   .     S
Cu838  O865    1.905   .     S
Cu838  N854    2.029   .     S
H840   C1000   1.110   .     S
H843   O858    1.013   .     S
H844   O860    1.014   .     S
H845   O862    1.013   .     S
H846   N739    1.029   1_655 S
H850   C707    1.085   1_655 S
H853   N856    1.032   .     S
N854   C711    1.413   1_655 S
N854   N739    1.285   1_655 S
N856   C1000   1.447   .     S
N856   C991    1.443   .     S
O858   C711    1.397   1_655 S
O860   C712    1.399   1_655 S
C871   O921    1.295   .     A
C871   O915    1.290   .     A
C871   C873    1.431   .     S
C872   C874    1.480   .     S
C872   C888    1.421   .     A
C872   C880    1.423   .     A
C873   C527    1.344   1_565 S
C873   H562    1.088   1_565 S
C874   O923    1.303   .     A
C874   O922    1.304   .     A
C875   C876    1.447   .     S
C876   O925    1.298   .     A
C876   O924    1.293   .     A
C877   O926    1.297   .     A
C877   C879    1.464   .     S
C877   O927    1.305   .     A
C878   C890    1.405   .     A
C878   C894    1.397   .     A
C878   H906    1.084   .     S
C879   C894    1.400   .     A
C879   C893    1.395   .     A
C880   C886    1.486   .     S
C880   C881    1.396   .     A
C881   C361    1.398   1_556 S
C881   H1024   1.085   1_455 S
C882   C888    1.416   .     A
C882   C361    1.423   1_556 S
C882   C367    1.422   1_556 S
C883   C887    1.488   .     S
C884   H900    1.110   .     S
C884   H899    1.111   .     S
C885   O928    1.222   .     D
C885   N1028   1.413   1_455 S
C885   O1032   1.397   1_455 S
C886   O917    1.223   .     D
C886   O1034   1.399   1_455 S
C887   O920    1.399   .     S
C887   O919    1.223   .     D
C888   C892    1.414   .     A
C889   C893    1.402   .     A
C889   C890    1.416   .     A
C891   H905    1.084   .     S
C891   C892    1.393   .     A
C891   C368    1.395   1_556 S
C892   H909    1.081   .     S
C893   H907    1.081   .     S
C894   H897    1.082   .     S
Cu895  O926    1.905   .     S
Cu895  O922    1.921   .     S
Cu895  O924    1.948   .     S
Cu895  N913    2.029   .     S
Cu895  O915    1.951   .     S
Cu895  Cu896   2.700   .     S
Cu896  O925    1.951   .     S
Cu896  O927    1.921   .     S
Cu896  O921    1.948   .     S
Cu896  O923    1.905   .     S
Cu896  N912    2.029   .     S
H898   C536    1.110   1_565 S
H901   O916    1.013   .     S
H902   O918    1.014   .     S
H903   O920    1.013   .     S
H904   N971    1.029   .     S
H908   C939    1.085   .     S
H911   N914    1.032   .     S
N912   C943    1.413   .     S
N912   N971    1.285   .     S
N913   N1028   1.285   1_455 S
N913   H1020   1.029   1_455 S
N914   C536    1.447   1_565 S
N914   C527    1.443   1_565 S
O916   C943    1.397   .     S
O918   C944    1.399   .     S
C929   O979    1.295   .     A
C929   O973    1.290   .     A
C929   C931    1.431   .     S
C930   C932    1.480   .     S
C930   C946    1.421   .     A
C930   C938    1.423   .     A
C931   C585    1.344   1_565 S
C931   H620    1.088   1_565 S
C932   O981    1.303   .     A
C932   O980    1.304   .     A
C933   C934    1.447   .     S
C934   O983    1.298   .     A
C934   O982    1.293   .     A
C935   O984    1.297   .     A
C935   C937    1.464   .     S
C935   O985    1.305   .     A
C936   C948    1.405   .     A
C936   C952    1.397   .     A
C936   H964    1.084   .     S
C937   C952    1.400   .     A
C937   C951    1.395   .     A
C938   C944    1.486   .     S
C938   C939    1.396   .     A
C939   C419    1.398   1_556 S
C940   C946    1.416   .     A
C940   C419    1.423   1_556 S
C940   C425    1.422   1_556 S
C941   C945    1.488   .     S
C942   H958    1.110   .     S
C942   H957    1.111   .     S
C943   O986    1.222   .     D
C944   O975    1.223   .     D
C945   O978    1.399   .     S
C945   O977    1.223   .     D
C946   C950    1.414   .     A
C947   C951    1.402   .     A
C947   C948    1.416   .     A
C949   H963    1.084   .     S
C949   C950    1.393   .     A
C949   C426    1.395   1_556 S
C950   H967    1.081   .     S
C951   H965    1.081   .     S
C952   H955    1.082   .     S
Cu953  O984    1.905   .     S
Cu953  O980    1.921   .     S
Cu953  O982    1.948   .     S
Cu953  N971    2.029   .     S
Cu953  O973    1.951   .     S
Cu953  Cu954   2.700   .     S
Cu954  O983    1.951   .     S
Cu954  O985    1.921   .     S
Cu954  O979    1.948   .     S
Cu954  O981    1.905   .     S
Cu954  N970    2.029   .     S
H956   C594    1.110   1_565 S
H959   O974    1.013   .     S
H960   O976    1.014   .     S
H961   O978    1.013   .     S
H962   N1029   1.029   .     S
H966   C997    1.085   .     S
H969   N972    1.032   .     S
N970   C1001   1.413   .     S
N970   N1029   1.285   .     S
N972   C594    1.447   1_565 S
N972   C585    1.443   1_565 S
O974   C1001   1.397   .     S
O976   C1002   1.399   .     S
C987   O1037   1.295   .     A
C987   O1031   1.290   .     A
C987   C989    1.431   .     S
C988   C990    1.480   .     S
C988   C1004   1.421   .     A
C988   C996    1.423   .     A
C989   C643    1.344   1_565 S
C989   H678    1.088   1_565 S
C990   O1039   1.303   .     A
C990   O1038   1.304   .     A
C991   C992    1.447   .     S
C992   O1041   1.298   .     A
C992   O1040   1.293   .     A
C993   O1042   1.297   .     A
C993   C995    1.464   .     S
C993   O1043   1.305   .     A
C994   C1006   1.405   .     A
C994   C1010   1.397   .     A
C994   H1022   1.084   .     S
C995   C1010   1.400   .     A
C995   C1009   1.395   .     A
C996   C1002   1.486   .     S
C996   C997    1.396   .     A
C997   C477    1.398   1_556 S
C998   C1004   1.416   .     A
C998   C477    1.423   1_556 S
C998   C483    1.422   1_556 S
C999   C1003   1.488   .     S
C1000  H1016   1.110   .     S
C1000  H1015   1.111   .     S
C1001  O1044   1.222   .     D
C1002  O1033   1.223   .     D
C1003  O1036   1.399   .     S
C1003  O1035   1.223   .     D
C1004  C1008   1.414   .     A
C1005  C1009   1.402   .     A
C1005  C1006   1.416   .     A
C1007  H1021   1.084   .     S
C1007  C1008   1.393   .     A
C1007  C484    1.395   1_556 S
C1008  H1025   1.081   .     S
C1009  H1023   1.081   .     S
C1010  H1013   1.082   .     S
Cu1011 O1042   1.905   .     S
Cu1011 O1038   1.921   .     S
Cu1011 O1040   1.948   .     S
Cu1011 N1029   2.029   .     S
Cu1011 O1031   1.951   .     S
Cu1011 Cu1012  2.700   .     S
Cu1012 O1041   1.951   .     S
Cu1012 O1043   1.921   .     S
Cu1012 O1037   1.948   .     S
Cu1012 O1039   1.905   .     S
Cu1012 N1028   2.029   .     S
H1014  C652    1.110   1_565 S
H1017  O1032   1.013   .     S
H1018  O1034   1.014   .     S
H1019  O1036   1.013   .     S
H1020  N913    1.029   1_655 S
H1024  C881    1.085   1_655 S
H1027  N1030   1.032   .     S
N1028  C885    1.413   1_655 S
N1028  N913    1.285   1_655 S
N1030  C652    1.447   1_565 S
N1030  C643    1.443   1_565 S
O1032  C885    1.397   1_655 S
O1034  C886    1.399   1_655 S
