data_str_m2_o1_o17_pcu_sym.158
_audit_creation_date              2020-01-03
_audit_creation_method            'Materials Studio'
_symmetry_space_group_name_H-M    'P1'
_symmetry_Int_Tables_number       1
_symmetry_cell_setting            triclinic
loop_
_symmetry_equiv_pos_as_xyz
  x,y,z
_cell_length_a                    32.4880
_cell_length_b                    28.5233
_cell_length_c                    30.1702
_cell_angle_alpha                 89.8361
_cell_angle_beta                  90.4148
_cell_angle_gamma                 89.9416
loop_
_atom_site_label
_atom_site_type_symbol
_atom_site_fract_x
_atom_site_fract_y
_atom_site_fract_z
_atom_site_U_iso_or_equiv
_atom_site_adp_type
_atom_site_occupancy
C1     C     0.08735   0.16668   0.25001   0.00000  Uiso   1.00
C2     C     0.24599   0.16665   0.24998   0.00000  Uiso   1.00
C3     C     0.13312   0.09017   0.02408   0.00000  Uiso   1.00
C4     C     0.19721   0.24472   0.47594   0.00000  Uiso   1.00
C5     C     0.02136   0.12424   0.25382   0.00000  Uiso   1.00
C6     C     0.31197   0.20909   0.24613   0.00000  Uiso   1.00
C7     C     0.31211   0.12422   0.25375   0.00000  Uiso   1.00
C8     C     0.02122   0.20911   0.24620   0.00000  Uiso   1.00
C9     C     0.29060   0.16665   0.24993   0.00000  Uiso   1.00
C10    C     0.04274   0.16668   0.25003   0.00000  Uiso   1.00
C11    C     0.14150   0.02493   0.22184   0.00000  Uiso   1.00
C12    C     0.19182   0.30840   0.27817   0.00000  Uiso   1.00
C13    C     0.19181   0.02471   0.27818   0.00000  Uiso   1.00
C14    C     0.14151   0.30863   0.22184   0.00000  Uiso   1.00
C15    C     0.16730   0.16676   0.16435   0.00000  Uiso   1.00
C16    C     0.16600   0.16658   0.33565   0.00000  Uiso   1.00
C17    C     0.18054   0.20503   0.40685   0.00000  Uiso   1.00
C18    C     0.15179   0.12875   0.09316   0.00000  Uiso   1.00
C19    C     0.16444   0.16653   0.38400   0.00000  Uiso   1.00
C20    C     0.16849   0.16692   0.11600   0.00000  Uiso   1.00
C21    C     0.14683   0.12870   0.40730   0.00000  Uiso   1.00
C22    C     0.18590   0.20484   0.09265   0.00000  Uiso   1.00
C23    C     0.14799   0.12855   0.45383   0.00000  Uiso   1.00
C24    C     0.18381   0.20553   0.04616   0.00000  Uiso   1.00
C25    C     0.16496   0.16726   0.47671   0.00000  Uiso   1.00
C26    C     0.16633   0.16710   0.02330   0.00000  Uiso   1.00
C27    C     0.18091   0.20593   0.45304   0.00000  Uiso   1.00
C28    C     0.15054   0.12833   0.04696   0.00000  Uiso   1.00
C29    C     0.13253   0.09029   0.47778   0.00000  Uiso   1.00
C30    C     0.19911   0.24391   0.02221   0.00000  Uiso   1.00
Cu31   Cu    0.16667   0.21355   0.25000   0.00000  Uiso   1.00
Cu32   Cu    0.16667   0.11978   0.25000   0.00000  Uiso   1.00
H33    H     0.19349   0.23406   0.38837   0.00000  Uiso   1.00
H34    H     0.13886   0.09972   0.11168   0.00000  Uiso   1.00
H35    H     0.12000   0.06005   0.46079   0.00000  Uiso   1.00
H36    H     0.21280   0.27353   0.03916   0.00000  Uiso   1.00
H37    H     0.03745   0.09110   0.25697   0.00000  Uiso   1.00
H38    H     0.29588   0.24223   0.24298   0.00000  Uiso   1.00
H39    H     0.29614   0.09107   0.25685   0.00000  Uiso   1.00
H40    H     0.03720   0.24226   0.24310   0.00000  Uiso   1.00
H41    H     0.12135   0.04376   0.19930   0.00000  Uiso   1.00
H42    H     0.21196   0.28958   0.30072   0.00000  Uiso   1.00
H43    H     0.21195   0.04335   0.30073   0.00000  Uiso   1.00
H44    H     0.12136   0.28998   0.19930   0.00000  Uiso   1.00
N45    N     0.16667   0.28402   0.25000   0.00000  Uiso   1.00
N46    N     0.16667   0.04931   0.25000   0.00000  Uiso   1.00
O47    O     0.10655   0.20625   0.24999   0.00000  Uiso   1.00
O48    O     0.22679   0.12709   0.25001   0.00000  Uiso   1.00
O49    O     0.22679   0.20625   0.25000   0.00000  Uiso   1.00
O50    O     0.10655   0.12709   0.24999   0.00000  Uiso   1.00
O51    O     0.16666   0.20627   0.18513   0.00000  Uiso   1.00
O52    O     0.16668   0.12707   0.31487   0.00000  Uiso   1.00
O53    O     0.16668   0.20627   0.31487   0.00000  Uiso   1.00
O54    O     0.16666   0.12707   0.18513   0.00000  Uiso   1.00
O55    O     0.12993   0.09107   0.38468   0.00000  Uiso   1.00
C56    C     0.08824   0.10118   0.37534   0.00000  Uiso   1.00
H57    H     0.07468   0.07105   0.35725   0.00000  Uiso   1.00
H58    H     0.08497   0.13262   0.35366   0.00000  Uiso   1.00
H59    H     0.07035   0.10601   0.40633   0.00000  Uiso   1.00
O60    O     0.20348   0.24209   0.11524   0.00000  Uiso   1.00
C61    C     0.24514   0.23127   0.12409   0.00000  Uiso   1.00
H62    H     0.24822   0.19973   0.14567   0.00000  Uiso   1.00
H63    H     0.25926   0.26113   0.14209   0.00000  Uiso   1.00
H64    H     0.26265   0.22620   0.09290   0.00000  Uiso   1.00
O65    O     0.11930   0.05116   0.04689   0.00000  Uiso   1.00
C66    C     0.07591   0.05220   0.04759   0.00000  Uiso   1.00
H67    H     0.06266   0.04803   0.01372   0.00000  Uiso   1.00
H68    H     0.06430   0.08500   0.06311   0.00000  Uiso   1.00
H69    H     0.06496   0.02233   0.06795   0.00000  Uiso   1.00
O70    O     0.21408   0.28205   0.45304   0.00000  Uiso   1.00
C71    C     0.18604   0.31977   0.45390   0.00000  Uiso   1.00
H72    H     0.18202   0.33325   0.48816   0.00000  Uiso   1.00
H73    H     0.15573   0.30976   0.43927   0.00000  Uiso   1.00
H74    H     0.19855   0.01550   0.43354   0.00000  Uiso   1.00
C75    C     0.42068   0.16668   0.25001   0.00000  Uiso   1.00
C76    C     0.57932   0.16665   0.24998   0.00000  Uiso   1.00
C77    C     0.46645   0.09017   0.02408   0.00000  Uiso   1.00
C78    C     0.53054   0.24472   0.47594   0.00000  Uiso   1.00
C79    C     0.35470   0.12424   0.25382   0.00000  Uiso   1.00
C80    C     0.64531   0.20909   0.24613   0.00000  Uiso   1.00
C81    C     0.64545   0.12422   0.25375   0.00000  Uiso   1.00
C82    C     0.35455   0.20911   0.24620   0.00000  Uiso   1.00
C83    C     0.62393   0.16665   0.24993   0.00000  Uiso   1.00
C84    C     0.37607   0.16668   0.25003   0.00000  Uiso   1.00
C85    C     0.47483   0.02493   0.22184   0.00000  Uiso   1.00
C86    C     0.52515   0.30840   0.27817   0.00000  Uiso   1.00
C87    C     0.52515   0.02471   0.27818   0.00000  Uiso   1.00
C88    C     0.47484   0.30863   0.22184   0.00000  Uiso   1.00
C89    C     0.50064   0.16676   0.16435   0.00000  Uiso   1.00
C90    C     0.49933   0.16658   0.33565   0.00000  Uiso   1.00
C91    C     0.51387   0.20503   0.40685   0.00000  Uiso   1.00
C92    C     0.48512   0.12875   0.09316   0.00000  Uiso   1.00
C93    C     0.49777   0.16653   0.38400   0.00000  Uiso   1.00
C94    C     0.50182   0.16692   0.11600   0.00000  Uiso   1.00
C95    C     0.48017   0.12870   0.40730   0.00000  Uiso   1.00
C96    C     0.51924   0.20484   0.09265   0.00000  Uiso   1.00
C97    C     0.48132   0.12855   0.45383   0.00000  Uiso   1.00
C98    C     0.51715   0.20553   0.04616   0.00000  Uiso   1.00
C99    C     0.49830   0.16726   0.47671   0.00000  Uiso   1.00
C100   C     0.49966   0.16710   0.02330   0.00000  Uiso   1.00
C101   C     0.51424   0.20593   0.45304   0.00000  Uiso   1.00
C102   C     0.48387   0.12833   0.04696   0.00000  Uiso   1.00
C103   C     0.46586   0.09029   0.47778   0.00000  Uiso   1.00
C104   C     0.53244   0.24391   0.02221   0.00000  Uiso   1.00
Cu105  Cu    0.50000   0.21355   0.25000   0.00000  Uiso   1.00
Cu106  Cu    0.50000   0.11978   0.25000   0.00000  Uiso   1.00
H107   H     0.52682   0.23406   0.38837   0.00000  Uiso   1.00
H108   H     0.47220   0.09972   0.11168   0.00000  Uiso   1.00
H109   H     0.45333   0.06005   0.46079   0.00000  Uiso   1.00
H110   H     0.54614   0.27353   0.03916   0.00000  Uiso   1.00
H111   H     0.37078   0.09110   0.25697   0.00000  Uiso   1.00
H112   H     0.62922   0.24223   0.24298   0.00000  Uiso   1.00
H113   H     0.62947   0.09107   0.25685   0.00000  Uiso   1.00
H114   H     0.37053   0.24226   0.24310   0.00000  Uiso   1.00
H115   H     0.45468   0.04376   0.19930   0.00000  Uiso   1.00
H116   H     0.54530   0.28958   0.30072   0.00000  Uiso   1.00
H117   H     0.54528   0.04335   0.30073   0.00000  Uiso   1.00
H118   H     0.45469   0.28998   0.19930   0.00000  Uiso   1.00
N119   N     0.50000   0.28402   0.25000   0.00000  Uiso   1.00
N120   N     0.50000   0.04931   0.25000   0.00000  Uiso   1.00
O121   O     0.43988   0.20625   0.24999   0.00000  Uiso   1.00
O122   O     0.56012   0.12709   0.25001   0.00000  Uiso   1.00
O123   O     0.56012   0.20625   0.25000   0.00000  Uiso   1.00
O124   O     0.43988   0.12709   0.24999   0.00000  Uiso   1.00
O125   O     0.49999   0.20627   0.18513   0.00000  Uiso   1.00
O126   O     0.50001   0.12707   0.31487   0.00000  Uiso   1.00
O127   O     0.50001   0.20627   0.31487   0.00000  Uiso   1.00
O128   O     0.49999   0.12707   0.18513   0.00000  Uiso   1.00
O129   O     0.46327   0.09107   0.38468   0.00000  Uiso   1.00
C130   C     0.42157   0.10118   0.37534   0.00000  Uiso   1.00
H131   H     0.40801   0.07105   0.35725   0.00000  Uiso   1.00
H132   H     0.41830   0.13262   0.35366   0.00000  Uiso   1.00
H133   H     0.40368   0.10601   0.40633   0.00000  Uiso   1.00
O134   O     0.53682   0.24209   0.11524   0.00000  Uiso   1.00
C135   C     0.57847   0.23127   0.12409   0.00000  Uiso   1.00
H136   H     0.58155   0.19973   0.14567   0.00000  Uiso   1.00
H137   H     0.59259   0.26113   0.14209   0.00000  Uiso   1.00
H138   H     0.59599   0.22620   0.09290   0.00000  Uiso   1.00
O139   O     0.45263   0.05116   0.04689   0.00000  Uiso   1.00
C140   C     0.40925   0.05220   0.04759   0.00000  Uiso   1.00
H141   H     0.39599   0.04803   0.01372   0.00000  Uiso   1.00
H142   H     0.39764   0.08500   0.06311   0.00000  Uiso   1.00
H143   H     0.39829   0.02233   0.06795   0.00000  Uiso   1.00
O144   O     0.54742   0.28205   0.45304   0.00000  Uiso   1.00
C145   C     0.51937   0.31977   0.45390   0.00000  Uiso   1.00
H146   H     0.51535   0.33325   0.48816   0.00000  Uiso   1.00
H147   H     0.48906   0.30976   0.43927   0.00000  Uiso   1.00
H148   H     0.53189   0.01550   0.43354   0.00000  Uiso   1.00
C149   C     0.75401   0.16668   0.25001   0.00000  Uiso   1.00
C150   C     0.91266   0.16665   0.24998   0.00000  Uiso   1.00
C151   C     0.79979   0.09017   0.02408   0.00000  Uiso   1.00
C152   C     0.86387   0.24472   0.47594   0.00000  Uiso   1.00
C153   C     0.68803   0.12424   0.25382   0.00000  Uiso   1.00
C154   C     0.97864   0.20909   0.24613   0.00000  Uiso   1.00
C155   C     0.97878   0.12422   0.25375   0.00000  Uiso   1.00
C156   C     0.68789   0.20911   0.24620   0.00000  Uiso   1.00
C157   C     0.95726   0.16665   0.24993   0.00000  Uiso   1.00
C158   C     0.70941   0.16668   0.25003   0.00000  Uiso   1.00
C159   C     0.80817   0.02493   0.22184   0.00000  Uiso   1.00
C160   C     0.85849   0.30840   0.27817   0.00000  Uiso   1.00
C161   C     0.85848   0.02471   0.27818   0.00000  Uiso   1.00
C162   C     0.80817   0.30863   0.22184   0.00000  Uiso   1.00
C163   C     0.83397   0.16676   0.16435   0.00000  Uiso   1.00
C164   C     0.83266   0.16658   0.33565   0.00000  Uiso   1.00
C165   C     0.84720   0.20503   0.40685   0.00000  Uiso   1.00
C166   C     0.81845   0.12875   0.09316   0.00000  Uiso   1.00
C167   C     0.83110   0.16653   0.38400   0.00000  Uiso   1.00
C168   C     0.83515   0.16692   0.11600   0.00000  Uiso   1.00
C169   C     0.81350   0.12870   0.40730   0.00000  Uiso   1.00
C170   C     0.85257   0.20484   0.09265   0.00000  Uiso   1.00
C171   C     0.81466   0.12855   0.45383   0.00000  Uiso   1.00
C172   C     0.85048   0.20553   0.04616   0.00000  Uiso   1.00
C173   C     0.83163   0.16726   0.47671   0.00000  Uiso   1.00
C174   C     0.83300   0.16710   0.02330   0.00000  Uiso   1.00
C175   C     0.84757   0.20593   0.45304   0.00000  Uiso   1.00
C176   C     0.81721   0.12833   0.04696   0.00000  Uiso   1.00
C177   C     0.79919   0.09029   0.47778   0.00000  Uiso   1.00
C178   C     0.86577   0.24391   0.02221   0.00000  Uiso   1.00
Cu179  Cu    0.83333   0.21355   0.25000   0.00000  Uiso   1.00
Cu180  Cu    0.83333   0.11978   0.25000   0.00000  Uiso   1.00
H181   H     0.86015   0.23406   0.38837   0.00000  Uiso   1.00
H182   H     0.80553   0.09972   0.11168   0.00000  Uiso   1.00
H183   H     0.78666   0.06005   0.46079   0.00000  Uiso   1.00
H184   H     0.87947   0.27353   0.03916   0.00000  Uiso   1.00
H185   H     0.70412   0.09110   0.25697   0.00000  Uiso   1.00
H186   H     0.96255   0.24223   0.24298   0.00000  Uiso   1.00
H187   H     0.96281   0.09107   0.25685   0.00000  Uiso   1.00
H188   H     0.70386   0.24226   0.24310   0.00000  Uiso   1.00
H189   H     0.78801   0.04376   0.19930   0.00000  Uiso   1.00
H190   H     0.87863   0.28958   0.30072   0.00000  Uiso   1.00
H191   H     0.87862   0.04335   0.30073   0.00000  Uiso   1.00
H192   H     0.78802   0.28998   0.19930   0.00000  Uiso   1.00
N193   N     0.83333   0.28402   0.25000   0.00000  Uiso   1.00
N194   N     0.83333   0.04931   0.25000   0.00000  Uiso   1.00
O195   O     0.77321   0.20625   0.24999   0.00000  Uiso   1.00
O196   O     0.89345   0.12709   0.25001   0.00000  Uiso   1.00
O197   O     0.89345   0.20625   0.25000   0.00000  Uiso   1.00
O198   O     0.77321   0.12709   0.24999   0.00000  Uiso   1.00
O199   O     0.83332   0.20627   0.18513   0.00000  Uiso   1.00
O200   O     0.83334   0.12707   0.31487   0.00000  Uiso   1.00
O201   O     0.83334   0.20627   0.31487   0.00000  Uiso   1.00
O202   O     0.83332   0.12707   0.18513   0.00000  Uiso   1.00
O203   O     0.79660   0.09107   0.38468   0.00000  Uiso   1.00
C204   C     0.75490   0.10118   0.37534   0.00000  Uiso   1.00
H205   H     0.74135   0.07105   0.35725   0.00000  Uiso   1.00
H206   H     0.75163   0.13262   0.35366   0.00000  Uiso   1.00
H207   H     0.73701   0.10601   0.40633   0.00000  Uiso   1.00
O208   O     0.87015   0.24209   0.11524   0.00000  Uiso   1.00
C209   C     0.91180   0.23127   0.12409   0.00000  Uiso   1.00
H210   H     0.91488   0.19973   0.14567   0.00000  Uiso   1.00
H211   H     0.92592   0.26113   0.14209   0.00000  Uiso   1.00
H212   H     0.92932   0.22620   0.09290   0.00000  Uiso   1.00
O213   O     0.78596   0.05116   0.04689   0.00000  Uiso   1.00
C214   C     0.74258   0.05220   0.04759   0.00000  Uiso   1.00
H215   H     0.72932   0.04803   0.01372   0.00000  Uiso   1.00
H216   H     0.73097   0.08500   0.06311   0.00000  Uiso   1.00
H217   H     0.73163   0.02233   0.06795   0.00000  Uiso   1.00
O218   O     0.88075   0.28205   0.45304   0.00000  Uiso   1.00
C219   C     0.85271   0.31977   0.45390   0.00000  Uiso   1.00
H220   H     0.84869   0.33325   0.48816   0.00000  Uiso   1.00
H221   H     0.82240   0.30976   0.43927   0.00000  Uiso   1.00
H222   H     0.86522   0.01550   0.43354   0.00000  Uiso   1.00
C223   C     0.08735   0.50001   0.25001   0.00000  Uiso   1.00
C224   C     0.24599   0.49999   0.24998   0.00000  Uiso   1.00
C225   C     0.13312   0.42350   0.02408   0.00000  Uiso   1.00
C226   C     0.19721   0.57805   0.47594   0.00000  Uiso   1.00
C227   C     0.02136   0.45758   0.25382   0.00000  Uiso   1.00
C228   C     0.31197   0.54242   0.24613   0.00000  Uiso   1.00
C229   C     0.31211   0.45756   0.25375   0.00000  Uiso   1.00
C230   C     0.02122   0.54244   0.24620   0.00000  Uiso   1.00
C231   C     0.29060   0.49998   0.24993   0.00000  Uiso   1.00
C232   C     0.04274   0.50002   0.25003   0.00000  Uiso   1.00
C233   C     0.14150   0.35827   0.22184   0.00000  Uiso   1.00
C234   C     0.19182   0.64173   0.27817   0.00000  Uiso   1.00
C235   C     0.19181   0.35804   0.27818   0.00000  Uiso   1.00
C236   C     0.14151   0.64196   0.22184   0.00000  Uiso   1.00
C237   C     0.16730   0.50009   0.16435   0.00000  Uiso   1.00
C238   C     0.16600   0.49992   0.33565   0.00000  Uiso   1.00
C239   C     0.18054   0.53836   0.40685   0.00000  Uiso   1.00
C240   C     0.15179   0.46208   0.09316   0.00000  Uiso   1.00
C241   C     0.16444   0.49986   0.38400   0.00000  Uiso   1.00
C242   C     0.16849   0.50025   0.11600   0.00000  Uiso   1.00
C243   C     0.14683   0.46203   0.40730   0.00000  Uiso   1.00
C244   C     0.18590   0.53817   0.09265   0.00000  Uiso   1.00
C245   C     0.14799   0.46188   0.45383   0.00000  Uiso   1.00
C246   C     0.18381   0.53887   0.04616   0.00000  Uiso   1.00
C247   C     0.16496   0.50059   0.47671   0.00000  Uiso   1.00
C248   C     0.16633   0.50043   0.02330   0.00000  Uiso   1.00
C249   C     0.18091   0.53927   0.45304   0.00000  Uiso   1.00
C250   C     0.15054   0.46166   0.04696   0.00000  Uiso   1.00
C251   C     0.13253   0.42362   0.47778   0.00000  Uiso   1.00
C252   C     0.19911   0.57724   0.02221   0.00000  Uiso   1.00
Cu253  Cu    0.16667   0.54689   0.25000   0.00000  Uiso   1.00
Cu254  Cu    0.16667   0.45311   0.25000   0.00000  Uiso   1.00
H255   H     0.19349   0.56739   0.38837   0.00000  Uiso   1.00
H256   H     0.13886   0.43305   0.11168   0.00000  Uiso   1.00
H257   H     0.12000   0.39338   0.46079   0.00000  Uiso   1.00
H258   H     0.21280   0.60687   0.03916   0.00000  Uiso   1.00
H259   H     0.03745   0.42443   0.25697   0.00000  Uiso   1.00
H260   H     0.29588   0.57556   0.24298   0.00000  Uiso   1.00
H261   H     0.29614   0.42440   0.25685   0.00000  Uiso   1.00
H262   H     0.03720   0.57560   0.24310   0.00000  Uiso   1.00
H263   H     0.12135   0.37709   0.19930   0.00000  Uiso   1.00
H264   H     0.21196   0.62291   0.30072   0.00000  Uiso   1.00
H265   H     0.21195   0.37669   0.30073   0.00000  Uiso   1.00
H266   H     0.12136   0.62331   0.19930   0.00000  Uiso   1.00
N267   N     0.16667   0.61736   0.25000   0.00000  Uiso   1.00
N268   N     0.16667   0.38264   0.25000   0.00000  Uiso   1.00
O269   O     0.10655   0.53958   0.24999   0.00000  Uiso   1.00
O270   O     0.22679   0.46042   0.25001   0.00000  Uiso   1.00
O271   O     0.22679   0.53958   0.25000   0.00000  Uiso   1.00
O272   O     0.10655   0.46042   0.24999   0.00000  Uiso   1.00
O273   O     0.16666   0.53960   0.18513   0.00000  Uiso   1.00
O274   O     0.16668   0.46040   0.31487   0.00000  Uiso   1.00
O275   O     0.16668   0.53960   0.31487   0.00000  Uiso   1.00
O276   O     0.16666   0.46040   0.18513   0.00000  Uiso   1.00
O277   O     0.12993   0.42440   0.38468   0.00000  Uiso   1.00
C278   C     0.08824   0.43451   0.37534   0.00000  Uiso   1.00
H279   H     0.07468   0.40438   0.35725   0.00000  Uiso   1.00
H280   H     0.08497   0.46595   0.35366   0.00000  Uiso   1.00
H281   H     0.07035   0.43935   0.40633   0.00000  Uiso   1.00
O282   O     0.20348   0.57543   0.11524   0.00000  Uiso   1.00
C283   C     0.24514   0.56460   0.12409   0.00000  Uiso   1.00
H284   H     0.24822   0.53306   0.14567   0.00000  Uiso   1.00
H285   H     0.25926   0.59446   0.14209   0.00000  Uiso   1.00
H286   H     0.26265   0.55953   0.09290   0.00000  Uiso   1.00
O287   O     0.11930   0.38449   0.04689   0.00000  Uiso   1.00
C288   C     0.07591   0.38553   0.04759   0.00000  Uiso   1.00
H289   H     0.06266   0.38136   0.01372   0.00000  Uiso   1.00
H290   H     0.06430   0.41834   0.06311   0.00000  Uiso   1.00
H291   H     0.06496   0.35567   0.06795   0.00000  Uiso   1.00
O292   O     0.21408   0.61538   0.45304   0.00000  Uiso   1.00
C293   C     0.18604   0.65311   0.45390   0.00000  Uiso   1.00
H294   H     0.18202   0.66658   0.48816   0.00000  Uiso   1.00
H295   H     0.15573   0.64310   0.43927   0.00000  Uiso   1.00
H296   H     0.19855   0.34883   0.43354   0.00000  Uiso   1.00
C297   C     0.42068   0.50001   0.25001   0.00000  Uiso   1.00
C298   C     0.57932   0.49999   0.24998   0.00000  Uiso   1.00
C299   C     0.46645   0.42350   0.02408   0.00000  Uiso   1.00
C300   C     0.53054   0.57805   0.47594   0.00000  Uiso   1.00
C301   C     0.35470   0.45758   0.25382   0.00000  Uiso   1.00
C302   C     0.64531   0.54242   0.24613   0.00000  Uiso   1.00
C303   C     0.64545   0.45756   0.25375   0.00000  Uiso   1.00
C304   C     0.35455   0.54244   0.24620   0.00000  Uiso   1.00
C305   C     0.62393   0.49998   0.24993   0.00000  Uiso   1.00
C306   C     0.37607   0.50002   0.25003   0.00000  Uiso   1.00
C307   C     0.47483   0.35827   0.22184   0.00000  Uiso   1.00
C308   C     0.52515   0.64173   0.27817   0.00000  Uiso   1.00
C309   C     0.52515   0.35804   0.27818   0.00000  Uiso   1.00
C310   C     0.47484   0.64196   0.22184   0.00000  Uiso   1.00
C311   C     0.50064   0.50009   0.16435   0.00000  Uiso   1.00
C312   C     0.49933   0.49992   0.33565   0.00000  Uiso   1.00
C313   C     0.51387   0.53836   0.40685   0.00000  Uiso   1.00
C314   C     0.48512   0.46208   0.09316   0.00000  Uiso   1.00
C315   C     0.49777   0.49986   0.38400   0.00000  Uiso   1.00
C316   C     0.50182   0.50025   0.11600   0.00000  Uiso   1.00
C317   C     0.48017   0.46203   0.40730   0.00000  Uiso   1.00
C318   C     0.51924   0.53817   0.09265   0.00000  Uiso   1.00
C319   C     0.48132   0.46188   0.45383   0.00000  Uiso   1.00
C320   C     0.51715   0.53887   0.04616   0.00000  Uiso   1.00
C321   C     0.49830   0.50059   0.47671   0.00000  Uiso   1.00
C322   C     0.49966   0.50043   0.02330   0.00000  Uiso   1.00
C323   C     0.51424   0.53927   0.45304   0.00000  Uiso   1.00
C324   C     0.48387   0.46166   0.04696   0.00000  Uiso   1.00
C325   C     0.46586   0.42362   0.47778   0.00000  Uiso   1.00
C326   C     0.53244   0.57724   0.02221   0.00000  Uiso   1.00
Cu327  Cu    0.50000   0.54689   0.25000   0.00000  Uiso   1.00
Cu328  Cu    0.50000   0.45311   0.25000   0.00000  Uiso   1.00
H329   H     0.52682   0.56739   0.38837   0.00000  Uiso   1.00
H330   H     0.47220   0.43305   0.11168   0.00000  Uiso   1.00
H331   H     0.45333   0.39338   0.46079   0.00000  Uiso   1.00
H332   H     0.54614   0.60687   0.03916   0.00000  Uiso   1.00
H333   H     0.37078   0.42443   0.25697   0.00000  Uiso   1.00
H334   H     0.62922   0.57556   0.24298   0.00000  Uiso   1.00
H335   H     0.62947   0.42440   0.25685   0.00000  Uiso   1.00
H336   H     0.37053   0.57560   0.24310   0.00000  Uiso   1.00
H337   H     0.45468   0.37709   0.19930   0.00000  Uiso   1.00
H338   H     0.54530   0.62291   0.30072   0.00000  Uiso   1.00
H339   H     0.54528   0.37669   0.30073   0.00000  Uiso   1.00
H340   H     0.45469   0.62331   0.19930   0.00000  Uiso   1.00
N341   N     0.50000   0.61736   0.25000   0.00000  Uiso   1.00
N342   N     0.50000   0.38264   0.25000   0.00000  Uiso   1.00
O343   O     0.43988   0.53958   0.24999   0.00000  Uiso   1.00
O344   O     0.56012   0.46042   0.25001   0.00000  Uiso   1.00
O345   O     0.56012   0.53958   0.25000   0.00000  Uiso   1.00
O346   O     0.43988   0.46042   0.24999   0.00000  Uiso   1.00
O347   O     0.49999   0.53960   0.18513   0.00000  Uiso   1.00
O348   O     0.50001   0.46040   0.31487   0.00000  Uiso   1.00
O349   O     0.50001   0.53960   0.31487   0.00000  Uiso   1.00
O350   O     0.49999   0.46040   0.18513   0.00000  Uiso   1.00
O351   O     0.46327   0.42440   0.38468   0.00000  Uiso   1.00
C352   C     0.42157   0.43451   0.37534   0.00000  Uiso   1.00
H353   H     0.40801   0.40438   0.35725   0.00000  Uiso   1.00
H354   H     0.41830   0.46595   0.35366   0.00000  Uiso   1.00
H355   H     0.40368   0.43935   0.40633   0.00000  Uiso   1.00
O356   O     0.53682   0.57543   0.11524   0.00000  Uiso   1.00
C357   C     0.57847   0.56460   0.12409   0.00000  Uiso   1.00
H358   H     0.58155   0.53306   0.14567   0.00000  Uiso   1.00
H359   H     0.59259   0.59446   0.14209   0.00000  Uiso   1.00
H360   H     0.59599   0.55953   0.09290   0.00000  Uiso   1.00
O361   O     0.45263   0.38449   0.04689   0.00000  Uiso   1.00
C362   C     0.40925   0.38553   0.04759   0.00000  Uiso   1.00
H363   H     0.39599   0.38136   0.01372   0.00000  Uiso   1.00
H364   H     0.39764   0.41834   0.06311   0.00000  Uiso   1.00
H365   H     0.39829   0.35567   0.06795   0.00000  Uiso   1.00
O366   O     0.54742   0.61538   0.45304   0.00000  Uiso   1.00
C367   C     0.51937   0.65311   0.45390   0.00000  Uiso   1.00
H368   H     0.51535   0.66658   0.48816   0.00000  Uiso   1.00
H369   H     0.48906   0.64310   0.43927   0.00000  Uiso   1.00
H370   H     0.53189   0.34883   0.43354   0.00000  Uiso   1.00
C371   C     0.75401   0.50001   0.25001   0.00000  Uiso   1.00
C372   C     0.91266   0.49999   0.24998   0.00000  Uiso   1.00
C373   C     0.79979   0.42350   0.02408   0.00000  Uiso   1.00
C374   C     0.86387   0.57805   0.47594   0.00000  Uiso   1.00
C375   C     0.68803   0.45758   0.25382   0.00000  Uiso   1.00
C376   C     0.97864   0.54242   0.24613   0.00000  Uiso   1.00
C377   C     0.97878   0.45756   0.25375   0.00000  Uiso   1.00
C378   C     0.68789   0.54244   0.24620   0.00000  Uiso   1.00
C379   C     0.95726   0.49998   0.24993   0.00000  Uiso   1.00
C380   C     0.70941   0.50002   0.25003   0.00000  Uiso   1.00
C381   C     0.80817   0.35827   0.22184   0.00000  Uiso   1.00
C382   C     0.85849   0.64173   0.27817   0.00000  Uiso   1.00
C383   C     0.85848   0.35804   0.27818   0.00000  Uiso   1.00
C384   C     0.80817   0.64196   0.22184   0.00000  Uiso   1.00
C385   C     0.83397   0.50009   0.16435   0.00000  Uiso   1.00
C386   C     0.83266   0.49992   0.33565   0.00000  Uiso   1.00
C387   C     0.84720   0.53836   0.40685   0.00000  Uiso   1.00
C388   C     0.81845   0.46208   0.09316   0.00000  Uiso   1.00
C389   C     0.83110   0.49986   0.38400   0.00000  Uiso   1.00
C390   C     0.83515   0.50025   0.11600   0.00000  Uiso   1.00
C391   C     0.81350   0.46203   0.40730   0.00000  Uiso   1.00
C392   C     0.85257   0.53817   0.09265   0.00000  Uiso   1.00
C393   C     0.81466   0.46188   0.45383   0.00000  Uiso   1.00
C394   C     0.85048   0.53887   0.04616   0.00000  Uiso   1.00
C395   C     0.83163   0.50059   0.47671   0.00000  Uiso   1.00
C396   C     0.83300   0.50043   0.02330   0.00000  Uiso   1.00
C397   C     0.84757   0.53927   0.45304   0.00000  Uiso   1.00
C398   C     0.81721   0.46166   0.04696   0.00000  Uiso   1.00
C399   C     0.79919   0.42362   0.47778   0.00000  Uiso   1.00
C400   C     0.86577   0.57724   0.02221   0.00000  Uiso   1.00
Cu401  Cu    0.83333   0.54689   0.25000   0.00000  Uiso   1.00
Cu402  Cu    0.83333   0.45311   0.25000   0.00000  Uiso   1.00
H403   H     0.86015   0.56739   0.38837   0.00000  Uiso   1.00
H404   H     0.80553   0.43305   0.11168   0.00000  Uiso   1.00
H405   H     0.78666   0.39338   0.46079   0.00000  Uiso   1.00
H406   H     0.87947   0.60687   0.03916   0.00000  Uiso   1.00
H407   H     0.70412   0.42443   0.25697   0.00000  Uiso   1.00
H408   H     0.96255   0.57556   0.24298   0.00000  Uiso   1.00
H409   H     0.96281   0.42440   0.25685   0.00000  Uiso   1.00
H410   H     0.70386   0.57560   0.24310   0.00000  Uiso   1.00
H411   H     0.78801   0.37709   0.19930   0.00000  Uiso   1.00
H412   H     0.87863   0.62291   0.30072   0.00000  Uiso   1.00
H413   H     0.87862   0.37669   0.30073   0.00000  Uiso   1.00
H414   H     0.78802   0.62331   0.19930   0.00000  Uiso   1.00
N415   N     0.83333   0.61736   0.25000   0.00000  Uiso   1.00
N416   N     0.83333   0.38264   0.25000   0.00000  Uiso   1.00
O417   O     0.77321   0.53958   0.24999   0.00000  Uiso   1.00
O418   O     0.89345   0.46042   0.25001   0.00000  Uiso   1.00
O419   O     0.89345   0.53958   0.25000   0.00000  Uiso   1.00
O420   O     0.77321   0.46042   0.24999   0.00000  Uiso   1.00
O421   O     0.83332   0.53960   0.18513   0.00000  Uiso   1.00
O422   O     0.83334   0.46040   0.31487   0.00000  Uiso   1.00
O423   O     0.83334   0.53960   0.31487   0.00000  Uiso   1.00
O424   O     0.83332   0.46040   0.18513   0.00000  Uiso   1.00
O425   O     0.79660   0.42440   0.38468   0.00000  Uiso   1.00
C426   C     0.75490   0.43451   0.37534   0.00000  Uiso   1.00
H427   H     0.74135   0.40438   0.35725   0.00000  Uiso   1.00
H428   H     0.75163   0.46595   0.35366   0.00000  Uiso   1.00
H429   H     0.73701   0.43935   0.40633   0.00000  Uiso   1.00
O430   O     0.87015   0.57543   0.11524   0.00000  Uiso   1.00
C431   C     0.91180   0.56460   0.12409   0.00000  Uiso   1.00
H432   H     0.91488   0.53306   0.14567   0.00000  Uiso   1.00
H433   H     0.92592   0.59446   0.14209   0.00000  Uiso   1.00
H434   H     0.92932   0.55953   0.09290   0.00000  Uiso   1.00
O435   O     0.78596   0.38449   0.04689   0.00000  Uiso   1.00
C436   C     0.74258   0.38553   0.04759   0.00000  Uiso   1.00
H437   H     0.72932   0.38136   0.01372   0.00000  Uiso   1.00
H438   H     0.73097   0.41834   0.06311   0.00000  Uiso   1.00
H439   H     0.73163   0.35567   0.06795   0.00000  Uiso   1.00
O440   O     0.88075   0.61538   0.45304   0.00000  Uiso   1.00
C441   C     0.85271   0.65311   0.45390   0.00000  Uiso   1.00
H442   H     0.84869   0.66658   0.48816   0.00000  Uiso   1.00
H443   H     0.82240   0.64310   0.43927   0.00000  Uiso   1.00
H444   H     0.86522   0.34883   0.43354   0.00000  Uiso   1.00
C445   C     0.08735   0.83335   0.25001   0.00000  Uiso   1.00
C446   C     0.24599   0.83332   0.24998   0.00000  Uiso   1.00
C447   C     0.13312   0.75683   0.02408   0.00000  Uiso   1.00
C448   C     0.19721   0.91138   0.47594   0.00000  Uiso   1.00
C449   C     0.02136   0.79091   0.25382   0.00000  Uiso   1.00
C450   C     0.31197   0.87575   0.24613   0.00000  Uiso   1.00
C451   C     0.31211   0.79089   0.25375   0.00000  Uiso   1.00
C452   C     0.02122   0.87577   0.24620   0.00000  Uiso   1.00
C453   C     0.29060   0.83331   0.24993   0.00000  Uiso   1.00
C454   C     0.04274   0.83335   0.25003   0.00000  Uiso   1.00
C455   C     0.14150   0.69160   0.22184   0.00000  Uiso   1.00
C456   C     0.19182   0.97507   0.27817   0.00000  Uiso   1.00
C457   C     0.19181   0.69137   0.27818   0.00000  Uiso   1.00
C458   C     0.14151   0.97529   0.22184   0.00000  Uiso   1.00
C459   C     0.16730   0.83342   0.16435   0.00000  Uiso   1.00
C460   C     0.16600   0.83325   0.33565   0.00000  Uiso   1.00
C461   C     0.18054   0.87169   0.40685   0.00000  Uiso   1.00
C462   C     0.15179   0.79542   0.09316   0.00000  Uiso   1.00
C463   C     0.16444   0.83320   0.38400   0.00000  Uiso   1.00
C464   C     0.16849   0.83359   0.11600   0.00000  Uiso   1.00
C465   C     0.14683   0.79537   0.40730   0.00000  Uiso   1.00
C466   C     0.18590   0.87151   0.09265   0.00000  Uiso   1.00
C467   C     0.14799   0.79521   0.45383   0.00000  Uiso   1.00
C468   C     0.18381   0.87220   0.04616   0.00000  Uiso   1.00
C469   C     0.16496   0.83392   0.47671   0.00000  Uiso   1.00
C470   C     0.16633   0.83376   0.02330   0.00000  Uiso   1.00
C471   C     0.18091   0.87260   0.45304   0.00000  Uiso   1.00
C472   C     0.15054   0.79499   0.04696   0.00000  Uiso   1.00
C473   C     0.13253   0.75696   0.47778   0.00000  Uiso   1.00
C474   C     0.19911   0.91058   0.02221   0.00000  Uiso   1.00
Cu475  Cu    0.16667   0.88022   0.25000   0.00000  Uiso   1.00
Cu476  Cu    0.16667   0.78645   0.25000   0.00000  Uiso   1.00
H477   H     0.19349   0.90073   0.38837   0.00000  Uiso   1.00
H478   H     0.13886   0.76639   0.11168   0.00000  Uiso   1.00
H479   H     0.12000   0.72672   0.46079   0.00000  Uiso   1.00
H480   H     0.21280   0.94020   0.03916   0.00000  Uiso   1.00
H481   H     0.03745   0.75776   0.25697   0.00000  Uiso   1.00
H482   H     0.29588   0.90890   0.24298   0.00000  Uiso   1.00
H483   H     0.29614   0.75773   0.25685   0.00000  Uiso   1.00
H484   H     0.03720   0.90893   0.24310   0.00000  Uiso   1.00
H485   H     0.12135   0.71043   0.19930   0.00000  Uiso   1.00
H486   H     0.21196   0.95624   0.30072   0.00000  Uiso   1.00
H487   H     0.21195   0.71002   0.30073   0.00000  Uiso   1.00
H488   H     0.12136   0.95665   0.19930   0.00000  Uiso   1.00
N489   N     0.16667   0.95069   0.25000   0.00000  Uiso   1.00
N490   N     0.16667   0.71598   0.25000   0.00000  Uiso   1.00
O491   O     0.10655   0.87291   0.24999   0.00000  Uiso   1.00
O492   O     0.22679   0.79375   0.25001   0.00000  Uiso   1.00
O493   O     0.22679   0.87291   0.25000   0.00000  Uiso   1.00
O494   O     0.10655   0.79375   0.24999   0.00000  Uiso   1.00
O495   O     0.16666   0.87293   0.18513   0.00000  Uiso   1.00
O496   O     0.16668   0.79373   0.31487   0.00000  Uiso   1.00
O497   O     0.16668   0.87293   0.31487   0.00000  Uiso   1.00
O498   O     0.16666   0.79373   0.18513   0.00000  Uiso   1.00
O499   O     0.12993   0.75773   0.38468   0.00000  Uiso   1.00
C500   C     0.08824   0.76784   0.37534   0.00000  Uiso   1.00
H501   H     0.07468   0.73772   0.35725   0.00000  Uiso   1.00
H502   H     0.08497   0.79929   0.35366   0.00000  Uiso   1.00
H503   H     0.07035   0.77268   0.40633   0.00000  Uiso   1.00
O504   O     0.20348   0.90876   0.11524   0.00000  Uiso   1.00
C505   C     0.24514   0.89793   0.12409   0.00000  Uiso   1.00
H506   H     0.24822   0.86640   0.14567   0.00000  Uiso   1.00
H507   H     0.25926   0.92779   0.14209   0.00000  Uiso   1.00
H508   H     0.26265   0.89287   0.09290   0.00000  Uiso   1.00
O509   O     0.11930   0.71783   0.04689   0.00000  Uiso   1.00
C510   C     0.07591   0.71887   0.04759   0.00000  Uiso   1.00
H511   H     0.06266   0.71470   0.01372   0.00000  Uiso   1.00
H512   H     0.06430   0.75167   0.06311   0.00000  Uiso   1.00
H513   H     0.06496   0.68900   0.06795   0.00000  Uiso   1.00
O514   O     0.21408   0.94871   0.45304   0.00000  Uiso   1.00
C515   C     0.18604   0.98644   0.45390   0.00000  Uiso   1.00
H516   H     0.18202   0.99991   0.48816   0.00000  Uiso   1.00
H517   H     0.15573   0.97643   0.43927   0.00000  Uiso   1.00
H518   H     0.19855   0.68217   0.43354   0.00000  Uiso   1.00
C519   C     0.42068   0.83335   0.25001   0.00000  Uiso   1.00
C520   C     0.57932   0.83332   0.24998   0.00000  Uiso   1.00
C521   C     0.46645   0.75683   0.02408   0.00000  Uiso   1.00
C522   C     0.53054   0.91138   0.47594   0.00000  Uiso   1.00
C523   C     0.35470   0.79091   0.25382   0.00000  Uiso   1.00
C524   C     0.64531   0.87575   0.24613   0.00000  Uiso   1.00
C525   C     0.64545   0.79089   0.25375   0.00000  Uiso   1.00
C526   C     0.35455   0.87577   0.24620   0.00000  Uiso   1.00
C527   C     0.62393   0.83331   0.24993   0.00000  Uiso   1.00
C528   C     0.37607   0.83335   0.25003   0.00000  Uiso   1.00
C529   C     0.47483   0.69160   0.22184   0.00000  Uiso   1.00
C530   C     0.52515   0.97507   0.27817   0.00000  Uiso   1.00
C531   C     0.52515   0.69137   0.27818   0.00000  Uiso   1.00
C532   C     0.47484   0.97529   0.22184   0.00000  Uiso   1.00
C533   C     0.50064   0.83342   0.16435   0.00000  Uiso   1.00
C534   C     0.49933   0.83325   0.33565   0.00000  Uiso   1.00
C535   C     0.51387   0.87169   0.40685   0.00000  Uiso   1.00
C536   C     0.48512   0.79542   0.09316   0.00000  Uiso   1.00
C537   C     0.49777   0.83320   0.38400   0.00000  Uiso   1.00
C538   C     0.50182   0.83359   0.11600   0.00000  Uiso   1.00
C539   C     0.48017   0.79537   0.40730   0.00000  Uiso   1.00
C540   C     0.51924   0.87151   0.09265   0.00000  Uiso   1.00
C541   C     0.48132   0.79521   0.45383   0.00000  Uiso   1.00
C542   C     0.51715   0.87220   0.04616   0.00000  Uiso   1.00
C543   C     0.49830   0.83392   0.47671   0.00000  Uiso   1.00
C544   C     0.49966   0.83376   0.02330   0.00000  Uiso   1.00
C545   C     0.51424   0.87260   0.45304   0.00000  Uiso   1.00
C546   C     0.48387   0.79499   0.04696   0.00000  Uiso   1.00
C547   C     0.46586   0.75696   0.47778   0.00000  Uiso   1.00
C548   C     0.53244   0.91058   0.02221   0.00000  Uiso   1.00
Cu549  Cu    0.50000   0.88022   0.25000   0.00000  Uiso   1.00
Cu550  Cu    0.50000   0.78645   0.25000   0.00000  Uiso   1.00
H551   H     0.52682   0.90073   0.38837   0.00000  Uiso   1.00
H552   H     0.47220   0.76639   0.11168   0.00000  Uiso   1.00
H553   H     0.45333   0.72672   0.46079   0.00000  Uiso   1.00
H554   H     0.54614   0.94020   0.03916   0.00000  Uiso   1.00
H555   H     0.37078   0.75776   0.25697   0.00000  Uiso   1.00
H556   H     0.62922   0.90890   0.24298   0.00000  Uiso   1.00
H557   H     0.62947   0.75773   0.25685   0.00000  Uiso   1.00
H558   H     0.37053   0.90893   0.24310   0.00000  Uiso   1.00
H559   H     0.45468   0.71043   0.19930   0.00000  Uiso   1.00
H560   H     0.54530   0.95624   0.30072   0.00000  Uiso   1.00
H561   H     0.54528   0.71002   0.30073   0.00000  Uiso   1.00
H562   H     0.45469   0.95665   0.19930   0.00000  Uiso   1.00
N563   N     0.50000   0.95069   0.25000   0.00000  Uiso   1.00
N564   N     0.50000   0.71598   0.25000   0.00000  Uiso   1.00
O565   O     0.43988   0.87291   0.24999   0.00000  Uiso   1.00
O566   O     0.56012   0.79375   0.25001   0.00000  Uiso   1.00
O567   O     0.56012   0.87291   0.25000   0.00000  Uiso   1.00
O568   O     0.43988   0.79375   0.24999   0.00000  Uiso   1.00
O569   O     0.49999   0.87293   0.18513   0.00000  Uiso   1.00
O570   O     0.50001   0.79373   0.31487   0.00000  Uiso   1.00
O571   O     0.50001   0.87293   0.31487   0.00000  Uiso   1.00
O572   O     0.49999   0.79373   0.18513   0.00000  Uiso   1.00
O573   O     0.46327   0.75773   0.38468   0.00000  Uiso   1.00
C574   C     0.42157   0.76784   0.37534   0.00000  Uiso   1.00
H575   H     0.40801   0.73772   0.35725   0.00000  Uiso   1.00
H576   H     0.41830   0.79929   0.35366   0.00000  Uiso   1.00
H577   H     0.40368   0.77268   0.40633   0.00000  Uiso   1.00
O578   O     0.53682   0.90876   0.11524   0.00000  Uiso   1.00
C579   C     0.57847   0.89793   0.12409   0.00000  Uiso   1.00
H580   H     0.58155   0.86640   0.14567   0.00000  Uiso   1.00
H581   H     0.59259   0.92779   0.14209   0.00000  Uiso   1.00
H582   H     0.59599   0.89287   0.09290   0.00000  Uiso   1.00
O583   O     0.45263   0.71783   0.04689   0.00000  Uiso   1.00
C584   C     0.40925   0.71887   0.04759   0.00000  Uiso   1.00
H585   H     0.39599   0.71470   0.01372   0.00000  Uiso   1.00
H586   H     0.39764   0.75167   0.06311   0.00000  Uiso   1.00
H587   H     0.39829   0.68900   0.06795   0.00000  Uiso   1.00
O588   O     0.54742   0.94871   0.45304   0.00000  Uiso   1.00
C589   C     0.51937   0.98644   0.45390   0.00000  Uiso   1.00
H590   H     0.51535   0.99991   0.48816   0.00000  Uiso   1.00
H591   H     0.48906   0.97643   0.43927   0.00000  Uiso   1.00
H592   H     0.53189   0.68217   0.43354   0.00000  Uiso   1.00
C593   C     0.75401   0.83335   0.25001   0.00000  Uiso   1.00
C594   C     0.91266   0.83332   0.24998   0.00000  Uiso   1.00
C595   C     0.79979   0.75683   0.02408   0.00000  Uiso   1.00
C596   C     0.86387   0.91138   0.47594   0.00000  Uiso   1.00
C597   C     0.68803   0.79091   0.25382   0.00000  Uiso   1.00
C598   C     0.97864   0.87575   0.24613   0.00000  Uiso   1.00
C599   C     0.97878   0.79089   0.25375   0.00000  Uiso   1.00
C600   C     0.68789   0.87577   0.24620   0.00000  Uiso   1.00
C601   C     0.95726   0.83331   0.24993   0.00000  Uiso   1.00
C602   C     0.70941   0.83335   0.25003   0.00000  Uiso   1.00
C603   C     0.80817   0.69160   0.22184   0.00000  Uiso   1.00
C604   C     0.85849   0.97507   0.27817   0.00000  Uiso   1.00
C605   C     0.85848   0.69137   0.27818   0.00000  Uiso   1.00
C606   C     0.80817   0.97529   0.22184   0.00000  Uiso   1.00
C607   C     0.83397   0.83342   0.16435   0.00000  Uiso   1.00
C608   C     0.83266   0.83325   0.33565   0.00000  Uiso   1.00
C609   C     0.84720   0.87169   0.40685   0.00000  Uiso   1.00
C610   C     0.81845   0.79542   0.09316   0.00000  Uiso   1.00
C611   C     0.83110   0.83320   0.38400   0.00000  Uiso   1.00
C612   C     0.83515   0.83359   0.11600   0.00000  Uiso   1.00
C613   C     0.81350   0.79537   0.40730   0.00000  Uiso   1.00
C614   C     0.85257   0.87151   0.09265   0.00000  Uiso   1.00
C615   C     0.81466   0.79521   0.45383   0.00000  Uiso   1.00
C616   C     0.85048   0.87220   0.04616   0.00000  Uiso   1.00
C617   C     0.83163   0.83392   0.47671   0.00000  Uiso   1.00
C618   C     0.83300   0.83376   0.02330   0.00000  Uiso   1.00
C619   C     0.84757   0.87260   0.45304   0.00000  Uiso   1.00
C620   C     0.81721   0.79499   0.04696   0.00000  Uiso   1.00
C621   C     0.79919   0.75696   0.47778   0.00000  Uiso   1.00
C622   C     0.86577   0.91058   0.02221   0.00000  Uiso   1.00
Cu623  Cu    0.83333   0.88022   0.25000   0.00000  Uiso   1.00
Cu624  Cu    0.83333   0.78645   0.25000   0.00000  Uiso   1.00
H625   H     0.86015   0.90073   0.38837   0.00000  Uiso   1.00
H626   H     0.80553   0.76639   0.11168   0.00000  Uiso   1.00
H627   H     0.78666   0.72672   0.46079   0.00000  Uiso   1.00
H628   H     0.87947   0.94020   0.03916   0.00000  Uiso   1.00
H629   H     0.70412   0.75776   0.25697   0.00000  Uiso   1.00
H630   H     0.96255   0.90890   0.24298   0.00000  Uiso   1.00
H631   H     0.96281   0.75773   0.25685   0.00000  Uiso   1.00
H632   H     0.70386   0.90893   0.24310   0.00000  Uiso   1.00
H633   H     0.78801   0.71043   0.19930   0.00000  Uiso   1.00
H634   H     0.87863   0.95624   0.30072   0.00000  Uiso   1.00
H635   H     0.87862   0.71002   0.30073   0.00000  Uiso   1.00
H636   H     0.78802   0.95665   0.19930   0.00000  Uiso   1.00
N637   N     0.83333   0.95069   0.25000   0.00000  Uiso   1.00
N638   N     0.83333   0.71598   0.25000   0.00000  Uiso   1.00
O639   O     0.77321   0.87291   0.24999   0.00000  Uiso   1.00
O640   O     0.89345   0.79375   0.25001   0.00000  Uiso   1.00
O641   O     0.89345   0.87291   0.25000   0.00000  Uiso   1.00
O642   O     0.77321   0.79375   0.24999   0.00000  Uiso   1.00
O643   O     0.83332   0.87293   0.18513   0.00000  Uiso   1.00
O644   O     0.83334   0.79373   0.31487   0.00000  Uiso   1.00
O645   O     0.83334   0.87293   0.31487   0.00000  Uiso   1.00
O646   O     0.83332   0.79373   0.18513   0.00000  Uiso   1.00
O647   O     0.79660   0.75773   0.38468   0.00000  Uiso   1.00
C648   C     0.75490   0.76784   0.37534   0.00000  Uiso   1.00
H649   H     0.74135   0.73772   0.35725   0.00000  Uiso   1.00
H650   H     0.75163   0.79929   0.35366   0.00000  Uiso   1.00
H651   H     0.73701   0.77268   0.40633   0.00000  Uiso   1.00
O652   O     0.87015   0.90876   0.11524   0.00000  Uiso   1.00
C653   C     0.91180   0.89793   0.12409   0.00000  Uiso   1.00
H654   H     0.91488   0.86640   0.14567   0.00000  Uiso   1.00
H655   H     0.92592   0.92779   0.14209   0.00000  Uiso   1.00
H656   H     0.92932   0.89287   0.09290   0.00000  Uiso   1.00
O657   O     0.78596   0.71783   0.04689   0.00000  Uiso   1.00
C658   C     0.74258   0.71887   0.04759   0.00000  Uiso   1.00
H659   H     0.72932   0.71470   0.01372   0.00000  Uiso   1.00
H660   H     0.73097   0.75167   0.06311   0.00000  Uiso   1.00
H661   H     0.73163   0.68900   0.06795   0.00000  Uiso   1.00
O662   O     0.88075   0.94871   0.45304   0.00000  Uiso   1.00
C663   C     0.85271   0.98644   0.45390   0.00000  Uiso   1.00
H664   H     0.84869   0.99991   0.48816   0.00000  Uiso   1.00
H665   H     0.82240   0.97643   0.43927   0.00000  Uiso   1.00
H666   H     0.86522   0.68217   0.43354   0.00000  Uiso   1.00
C667   C     0.08735   0.16668   0.75001   0.00000  Uiso   1.00
C668   C     0.24599   0.16665   0.74998   0.00000  Uiso   1.00
C669   C     0.13312   0.09017   0.52408   0.00000  Uiso   1.00
C670   C     0.19721   0.24472   0.97594   0.00000  Uiso   1.00
C671   C     0.02136   0.12424   0.75382   0.00000  Uiso   1.00
C672   C     0.31197   0.20909   0.74613   0.00000  Uiso   1.00
C673   C     0.31211   0.12422   0.75375   0.00000  Uiso   1.00
C674   C     0.02122   0.20911   0.74620   0.00000  Uiso   1.00
C675   C     0.29060   0.16665   0.74993   0.00000  Uiso   1.00
C676   C     0.04274   0.16668   0.75003   0.00000  Uiso   1.00
C677   C     0.14150   0.02493   0.72184   0.00000  Uiso   1.00
C678   C     0.19182   0.30840   0.77817   0.00000  Uiso   1.00
C679   C     0.19181   0.02471   0.77818   0.00000  Uiso   1.00
C680   C     0.14151   0.30863   0.72184   0.00000  Uiso   1.00
C681   C     0.16730   0.16676   0.66435   0.00000  Uiso   1.00
C682   C     0.16600   0.16658   0.83565   0.00000  Uiso   1.00
C683   C     0.18054   0.20503   0.90685   0.00000  Uiso   1.00
C684   C     0.15179   0.12875   0.59316   0.00000  Uiso   1.00
C685   C     0.16444   0.16653   0.88400   0.00000  Uiso   1.00
C686   C     0.16849   0.16692   0.61600   0.00000  Uiso   1.00
C687   C     0.14683   0.12870   0.90730   0.00000  Uiso   1.00
C688   C     0.18590   0.20484   0.59265   0.00000  Uiso   1.00
C689   C     0.14799   0.12855   0.95383   0.00000  Uiso   1.00
C690   C     0.18381   0.20553   0.54616   0.00000  Uiso   1.00
C691   C     0.16496   0.16726   0.97671   0.00000  Uiso   1.00
C692   C     0.16633   0.16710   0.52330   0.00000  Uiso   1.00
C693   C     0.18091   0.20593   0.95304   0.00000  Uiso   1.00
C694   C     0.15054   0.12833   0.54696   0.00000  Uiso   1.00
C695   C     0.13253   0.09029   0.97778   0.00000  Uiso   1.00
C696   C     0.19911   0.24391   0.52221   0.00000  Uiso   1.00
Cu697  Cu    0.16667   0.21355   0.75000   0.00000  Uiso   1.00
Cu698  Cu    0.16667   0.11978   0.75000   0.00000  Uiso   1.00
H699   H     0.19349   0.23406   0.88837   0.00000  Uiso   1.00
H700   H     0.13886   0.09972   0.61168   0.00000  Uiso   1.00
H701   H     0.12000   0.06005   0.96079   0.00000  Uiso   1.00
H702   H     0.21280   0.27353   0.53916   0.00000  Uiso   1.00
H703   H     0.03745   0.09110   0.75697   0.00000  Uiso   1.00
H704   H     0.29588   0.24223   0.74298   0.00000  Uiso   1.00
H705   H     0.29614   0.09107   0.75685   0.00000  Uiso   1.00
H706   H     0.03720   0.24226   0.74310   0.00000  Uiso   1.00
H707   H     0.12135   0.04376   0.69930   0.00000  Uiso   1.00
H708   H     0.21196   0.28958   0.80072   0.00000  Uiso   1.00
H709   H     0.21195   0.04335   0.80073   0.00000  Uiso   1.00
H710   H     0.12136   0.28998   0.69930   0.00000  Uiso   1.00
N711   N     0.16667   0.28402   0.75000   0.00000  Uiso   1.00
N712   N     0.16667   0.04931   0.75000   0.00000  Uiso   1.00
O713   O     0.10655   0.20625   0.74999   0.00000  Uiso   1.00
O714   O     0.22679   0.12709   0.75001   0.00000  Uiso   1.00
O715   O     0.22679   0.20625   0.75000   0.00000  Uiso   1.00
O716   O     0.10655   0.12709   0.74999   0.00000  Uiso   1.00
O717   O     0.16666   0.20627   0.68513   0.00000  Uiso   1.00
O718   O     0.16668   0.12707   0.81487   0.00000  Uiso   1.00
O719   O     0.16668   0.20627   0.81487   0.00000  Uiso   1.00
O720   O     0.16666   0.12707   0.68513   0.00000  Uiso   1.00
O721   O     0.12993   0.09107   0.88468   0.00000  Uiso   1.00
C722   C     0.08824   0.10118   0.87534   0.00000  Uiso   1.00
H723   H     0.07468   0.07105   0.85725   0.00000  Uiso   1.00
H724   H     0.08497   0.13262   0.85366   0.00000  Uiso   1.00
H725   H     0.07035   0.10601   0.90633   0.00000  Uiso   1.00
O726   O     0.20348   0.24209   0.61524   0.00000  Uiso   1.00
C727   C     0.24514   0.23127   0.62409   0.00000  Uiso   1.00
H728   H     0.24822   0.19973   0.64567   0.00000  Uiso   1.00
H729   H     0.25926   0.26113   0.64209   0.00000  Uiso   1.00
H730   H     0.26265   0.22620   0.59290   0.00000  Uiso   1.00
O731   O     0.11930   0.05116   0.54689   0.00000  Uiso   1.00
C732   C     0.07591   0.05220   0.54759   0.00000  Uiso   1.00
H733   H     0.06266   0.04803   0.51372   0.00000  Uiso   1.00
H734   H     0.06430   0.08500   0.56311   0.00000  Uiso   1.00
H735   H     0.06496   0.02233   0.56795   0.00000  Uiso   1.00
O736   O     0.21408   0.28205   0.95304   0.00000  Uiso   1.00
C737   C     0.18604   0.31977   0.95390   0.00000  Uiso   1.00
H738   H     0.18202   0.33325   0.98816   0.00000  Uiso   1.00
H739   H     0.15573   0.30976   0.93927   0.00000  Uiso   1.00
H740   H     0.19855   0.01550   0.93354   0.00000  Uiso   1.00
C741   C     0.42068   0.16668   0.75001   0.00000  Uiso   1.00
C742   C     0.57932   0.16665   0.74998   0.00000  Uiso   1.00
C743   C     0.46645   0.09017   0.52408   0.00000  Uiso   1.00
C744   C     0.53054   0.24472   0.97594   0.00000  Uiso   1.00
C745   C     0.35470   0.12424   0.75382   0.00000  Uiso   1.00
C746   C     0.64531   0.20909   0.74613   0.00000  Uiso   1.00
C747   C     0.64545   0.12422   0.75375   0.00000  Uiso   1.00
C748   C     0.35455   0.20911   0.74620   0.00000  Uiso   1.00
C749   C     0.62393   0.16665   0.74993   0.00000  Uiso   1.00
C750   C     0.37607   0.16668   0.75003   0.00000  Uiso   1.00
C751   C     0.47483   0.02493   0.72184   0.00000  Uiso   1.00
C752   C     0.52515   0.30840   0.77817   0.00000  Uiso   1.00
C753   C     0.52515   0.02471   0.77818   0.00000  Uiso   1.00
C754   C     0.47484   0.30863   0.72184   0.00000  Uiso   1.00
C755   C     0.50064   0.16676   0.66435   0.00000  Uiso   1.00
C756   C     0.49933   0.16658   0.83565   0.00000  Uiso   1.00
C757   C     0.51387   0.20503   0.90685   0.00000  Uiso   1.00
C758   C     0.48512   0.12875   0.59316   0.00000  Uiso   1.00
C759   C     0.49777   0.16653   0.88400   0.00000  Uiso   1.00
C760   C     0.50182   0.16692   0.61600   0.00000  Uiso   1.00
C761   C     0.48017   0.12870   0.90730   0.00000  Uiso   1.00
C762   C     0.51924   0.20484   0.59265   0.00000  Uiso   1.00
C763   C     0.48132   0.12855   0.95383   0.00000  Uiso   1.00
C764   C     0.51715   0.20553   0.54616   0.00000  Uiso   1.00
C765   C     0.49830   0.16726   0.97671   0.00000  Uiso   1.00
C766   C     0.49966   0.16710   0.52330   0.00000  Uiso   1.00
C767   C     0.51424   0.20593   0.95304   0.00000  Uiso   1.00
C768   C     0.48387   0.12833   0.54696   0.00000  Uiso   1.00
C769   C     0.46586   0.09029   0.97778   0.00000  Uiso   1.00
C770   C     0.53244   0.24391   0.52221   0.00000  Uiso   1.00
Cu771  Cu    0.50000   0.21355   0.75000   0.00000  Uiso   1.00
Cu772  Cu    0.50000   0.11978   0.75000   0.00000  Uiso   1.00
H773   H     0.52682   0.23406   0.88837   0.00000  Uiso   1.00
H774   H     0.47220   0.09972   0.61168   0.00000  Uiso   1.00
H775   H     0.45333   0.06005   0.96079   0.00000  Uiso   1.00
H776   H     0.54614   0.27353   0.53916   0.00000  Uiso   1.00
H777   H     0.37078   0.09110   0.75697   0.00000  Uiso   1.00
H778   H     0.62922   0.24223   0.74298   0.00000  Uiso   1.00
H779   H     0.62947   0.09107   0.75685   0.00000  Uiso   1.00
H780   H     0.37053   0.24226   0.74310   0.00000  Uiso   1.00
H781   H     0.45468   0.04376   0.69930   0.00000  Uiso   1.00
H782   H     0.54530   0.28958   0.80072   0.00000  Uiso   1.00
H783   H     0.54528   0.04335   0.80073   0.00000  Uiso   1.00
H784   H     0.45469   0.28998   0.69930   0.00000  Uiso   1.00
N785   N     0.50000   0.28402   0.75000   0.00000  Uiso   1.00
N786   N     0.50000   0.04931   0.75000   0.00000  Uiso   1.00
O787   O     0.43988   0.20625   0.74999   0.00000  Uiso   1.00
O788   O     0.56012   0.12709   0.75001   0.00000  Uiso   1.00
O789   O     0.56012   0.20625   0.75000   0.00000  Uiso   1.00
O790   O     0.43988   0.12709   0.74999   0.00000  Uiso   1.00
O791   O     0.49999   0.20627   0.68513   0.00000  Uiso   1.00
O792   O     0.50001   0.12707   0.81487   0.00000  Uiso   1.00
O793   O     0.50001   0.20627   0.81487   0.00000  Uiso   1.00
O794   O     0.49999   0.12707   0.68513   0.00000  Uiso   1.00
O795   O     0.46327   0.09107   0.88468   0.00000  Uiso   1.00
C796   C     0.42157   0.10118   0.87534   0.00000  Uiso   1.00
H797   H     0.40801   0.07105   0.85725   0.00000  Uiso   1.00
H798   H     0.41830   0.13262   0.85366   0.00000  Uiso   1.00
H799   H     0.40368   0.10601   0.90633   0.00000  Uiso   1.00
O800   O     0.53682   0.24209   0.61524   0.00000  Uiso   1.00
C801   C     0.57847   0.23127   0.62409   0.00000  Uiso   1.00
H802   H     0.58155   0.19973   0.64567   0.00000  Uiso   1.00
H803   H     0.59259   0.26113   0.64209   0.00000  Uiso   1.00
H804   H     0.59599   0.22620   0.59290   0.00000  Uiso   1.00
O805   O     0.45263   0.05116   0.54689   0.00000  Uiso   1.00
C806   C     0.40925   0.05220   0.54759   0.00000  Uiso   1.00
H807   H     0.39599   0.04803   0.51372   0.00000  Uiso   1.00
H808   H     0.39764   0.08500   0.56311   0.00000  Uiso   1.00
H809   H     0.39829   0.02233   0.56795   0.00000  Uiso   1.00
O810   O     0.54742   0.28205   0.95304   0.00000  Uiso   1.00
C811   C     0.51937   0.31977   0.95390   0.00000  Uiso   1.00
H812   H     0.51535   0.33325   0.98816   0.00000  Uiso   1.00
H813   H     0.48906   0.30976   0.93927   0.00000  Uiso   1.00
H814   H     0.53189   0.01550   0.93354   0.00000  Uiso   1.00
C815   C     0.75401   0.16668   0.75001   0.00000  Uiso   1.00
C816   C     0.91266   0.16665   0.74998   0.00000  Uiso   1.00
C817   C     0.79979   0.09017   0.52408   0.00000  Uiso   1.00
C818   C     0.86387   0.24472   0.97594   0.00000  Uiso   1.00
C819   C     0.68803   0.12424   0.75382   0.00000  Uiso   1.00
C820   C     0.97864   0.20909   0.74613   0.00000  Uiso   1.00
C821   C     0.97878   0.12422   0.75375   0.00000  Uiso   1.00
C822   C     0.68789   0.20911   0.74620   0.00000  Uiso   1.00
C823   C     0.95726   0.16665   0.74993   0.00000  Uiso   1.00
C824   C     0.70941   0.16668   0.75003   0.00000  Uiso   1.00
C825   C     0.80817   0.02493   0.72184   0.00000  Uiso   1.00
C826   C     0.85849   0.30840   0.77817   0.00000  Uiso   1.00
C827   C     0.85848   0.02471   0.77818   0.00000  Uiso   1.00
C828   C     0.80817   0.30863   0.72184   0.00000  Uiso   1.00
C829   C     0.83397   0.16676   0.66435   0.00000  Uiso   1.00
C830   C     0.83266   0.16658   0.83565   0.00000  Uiso   1.00
C831   C     0.84720   0.20503   0.90685   0.00000  Uiso   1.00
C832   C     0.81845   0.12875   0.59316   0.00000  Uiso   1.00
C833   C     0.83110   0.16653   0.88400   0.00000  Uiso   1.00
C834   C     0.83515   0.16692   0.61600   0.00000  Uiso   1.00
C835   C     0.81350   0.12870   0.90730   0.00000  Uiso   1.00
C836   C     0.85257   0.20484   0.59265   0.00000  Uiso   1.00
C837   C     0.81466   0.12855   0.95383   0.00000  Uiso   1.00
C838   C     0.85048   0.20553   0.54616   0.00000  Uiso   1.00
C839   C     0.83163   0.16726   0.97671   0.00000  Uiso   1.00
C840   C     0.83300   0.16710   0.52330   0.00000  Uiso   1.00
C841   C     0.84757   0.20593   0.95304   0.00000  Uiso   1.00
C842   C     0.81721   0.12833   0.54696   0.00000  Uiso   1.00
C843   C     0.79919   0.09029   0.97778   0.00000  Uiso   1.00
C844   C     0.86577   0.24391   0.52221   0.00000  Uiso   1.00
Cu845  Cu    0.83333   0.21355   0.75000   0.00000  Uiso   1.00
Cu846  Cu    0.83333   0.11978   0.75000   0.00000  Uiso   1.00
H847   H     0.86015   0.23406   0.88837   0.00000  Uiso   1.00
H848   H     0.80553   0.09972   0.61168   0.00000  Uiso   1.00
H849   H     0.78666   0.06005   0.96079   0.00000  Uiso   1.00
H850   H     0.87947   0.27353   0.53916   0.00000  Uiso   1.00
H851   H     0.70412   0.09110   0.75697   0.00000  Uiso   1.00
H852   H     0.96255   0.24223   0.74298   0.00000  Uiso   1.00
H853   H     0.96281   0.09107   0.75685   0.00000  Uiso   1.00
H854   H     0.70386   0.24226   0.74310   0.00000  Uiso   1.00
H855   H     0.78801   0.04376   0.69930   0.00000  Uiso   1.00
H856   H     0.87863   0.28958   0.80072   0.00000  Uiso   1.00
H857   H     0.87862   0.04335   0.80073   0.00000  Uiso   1.00
H858   H     0.78802   0.28998   0.69930   0.00000  Uiso   1.00
N859   N     0.83333   0.28402   0.75000   0.00000  Uiso   1.00
N860   N     0.83333   0.04931   0.75000   0.00000  Uiso   1.00
O861   O     0.77321   0.20625   0.74999   0.00000  Uiso   1.00
O862   O     0.89345   0.12709   0.75001   0.00000  Uiso   1.00
O863   O     0.89345   0.20625   0.75000   0.00000  Uiso   1.00
O864   O     0.77321   0.12709   0.74999   0.00000  Uiso   1.00
O865   O     0.83332   0.20627   0.68513   0.00000  Uiso   1.00
O866   O     0.83334   0.12707   0.81487   0.00000  Uiso   1.00
O867   O     0.83334   0.20627   0.81487   0.00000  Uiso   1.00
O868   O     0.83332   0.12707   0.68513   0.00000  Uiso   1.00
O869   O     0.79660   0.09107   0.88468   0.00000  Uiso   1.00
C870   C     0.75490   0.10118   0.87534   0.00000  Uiso   1.00
H871   H     0.74135   0.07105   0.85725   0.00000  Uiso   1.00
H872   H     0.75163   0.13262   0.85366   0.00000  Uiso   1.00
H873   H     0.73701   0.10601   0.90633   0.00000  Uiso   1.00
O874   O     0.87015   0.24209   0.61524   0.00000  Uiso   1.00
C875   C     0.91180   0.23127   0.62409   0.00000  Uiso   1.00
H876   H     0.91488   0.19973   0.64567   0.00000  Uiso   1.00
H877   H     0.92592   0.26113   0.64209   0.00000  Uiso   1.00
H878   H     0.92932   0.22620   0.59290   0.00000  Uiso   1.00
O879   O     0.78596   0.05116   0.54689   0.00000  Uiso   1.00
C880   C     0.74258   0.05220   0.54759   0.00000  Uiso   1.00
H881   H     0.72932   0.04803   0.51372   0.00000  Uiso   1.00
H882   H     0.73097   0.08500   0.56311   0.00000  Uiso   1.00
H883   H     0.73163   0.02233   0.56795   0.00000  Uiso   1.00
O884   O     0.88075   0.28205   0.95304   0.00000  Uiso   1.00
C885   C     0.85271   0.31977   0.95390   0.00000  Uiso   1.00
H886   H     0.84869   0.33325   0.98816   0.00000  Uiso   1.00
H887   H     0.82240   0.30976   0.93927   0.00000  Uiso   1.00
H888   H     0.86522   0.01550   0.93354   0.00000  Uiso   1.00
C889   C     0.08735   0.50001   0.75001   0.00000  Uiso   1.00
C890   C     0.24599   0.49999   0.74998   0.00000  Uiso   1.00
C891   C     0.13312   0.42350   0.52408   0.00000  Uiso   1.00
C892   C     0.19721   0.57805   0.97594   0.00000  Uiso   1.00
C893   C     0.02136   0.45758   0.75382   0.00000  Uiso   1.00
C894   C     0.31197   0.54242   0.74613   0.00000  Uiso   1.00
C895   C     0.31211   0.45756   0.75375   0.00000  Uiso   1.00
C896   C     0.02122   0.54244   0.74620   0.00000  Uiso   1.00
C897   C     0.29060   0.49998   0.74993   0.00000  Uiso   1.00
C898   C     0.04274   0.50002   0.75003   0.00000  Uiso   1.00
C899   C     0.14150   0.35827   0.72184   0.00000  Uiso   1.00
C900   C     0.19182   0.64173   0.77817   0.00000  Uiso   1.00
C901   C     0.19181   0.35804   0.77818   0.00000  Uiso   1.00
C902   C     0.14151   0.64196   0.72184   0.00000  Uiso   1.00
C903   C     0.16730   0.50009   0.66435   0.00000  Uiso   1.00
C904   C     0.16600   0.49992   0.83565   0.00000  Uiso   1.00
C905   C     0.18054   0.53836   0.90685   0.00000  Uiso   1.00
C906   C     0.15179   0.46208   0.59316   0.00000  Uiso   1.00
C907   C     0.16444   0.49986   0.88400   0.00000  Uiso   1.00
C908   C     0.16849   0.50025   0.61600   0.00000  Uiso   1.00
C909   C     0.14683   0.46203   0.90730   0.00000  Uiso   1.00
C910   C     0.18590   0.53817   0.59265   0.00000  Uiso   1.00
C911   C     0.14799   0.46188   0.95383   0.00000  Uiso   1.00
C912   C     0.18381   0.53887   0.54616   0.00000  Uiso   1.00
C913   C     0.16496   0.50059   0.97671   0.00000  Uiso   1.00
C914   C     0.16633   0.50043   0.52330   0.00000  Uiso   1.00
C915   C     0.18091   0.53927   0.95304   0.00000  Uiso   1.00
C916   C     0.15054   0.46166   0.54696   0.00000  Uiso   1.00
C917   C     0.13253   0.42362   0.97778   0.00000  Uiso   1.00
C918   C     0.19911   0.57724   0.52221   0.00000  Uiso   1.00
Cu919  Cu    0.16667   0.54689   0.75000   0.00000  Uiso   1.00
Cu920  Cu    0.16667   0.45311   0.75000   0.00000  Uiso   1.00
H921   H     0.19349   0.56739   0.88837   0.00000  Uiso   1.00
H922   H     0.13886   0.43305   0.61168   0.00000  Uiso   1.00
H923   H     0.12000   0.39338   0.96079   0.00000  Uiso   1.00
H924   H     0.21280   0.60687   0.53916   0.00000  Uiso   1.00
H925   H     0.03745   0.42443   0.75697   0.00000  Uiso   1.00
H926   H     0.29588   0.57556   0.74298   0.00000  Uiso   1.00
H927   H     0.29614   0.42440   0.75685   0.00000  Uiso   1.00
H928   H     0.03720   0.57560   0.74310   0.00000  Uiso   1.00
H929   H     0.12135   0.37709   0.69930   0.00000  Uiso   1.00
H930   H     0.21196   0.62291   0.80072   0.00000  Uiso   1.00
H931   H     0.21195   0.37669   0.80073   0.00000  Uiso   1.00
H932   H     0.12136   0.62331   0.69930   0.00000  Uiso   1.00
N933   N     0.16667   0.61736   0.75000   0.00000  Uiso   1.00
N934   N     0.16667   0.38264   0.75000   0.00000  Uiso   1.00
O935   O     0.10655   0.53958   0.74999   0.00000  Uiso   1.00
O936   O     0.22679   0.46042   0.75001   0.00000  Uiso   1.00
O937   O     0.22679   0.53958   0.75000   0.00000  Uiso   1.00
O938   O     0.10655   0.46042   0.74999   0.00000  Uiso   1.00
O939   O     0.16666   0.53960   0.68513   0.00000  Uiso   1.00
O940   O     0.16668   0.46040   0.81487   0.00000  Uiso   1.00
O941   O     0.16668   0.53960   0.81487   0.00000  Uiso   1.00
O942   O     0.16666   0.46040   0.68513   0.00000  Uiso   1.00
O943   O     0.12993   0.42440   0.88468   0.00000  Uiso   1.00
C944   C     0.08824   0.43451   0.87534   0.00000  Uiso   1.00
H945   H     0.07468   0.40438   0.85725   0.00000  Uiso   1.00
H946   H     0.08497   0.46595   0.85366   0.00000  Uiso   1.00
H947   H     0.07035   0.43935   0.90633   0.00000  Uiso   1.00
O948   O     0.20348   0.57543   0.61524   0.00000  Uiso   1.00
C949   C     0.24514   0.56460   0.62409   0.00000  Uiso   1.00
H950   H     0.24822   0.53306   0.64567   0.00000  Uiso   1.00
H951   H     0.25926   0.59446   0.64209   0.00000  Uiso   1.00
H952   H     0.26265   0.55953   0.59290   0.00000  Uiso   1.00
O953   O     0.11930   0.38449   0.54689   0.00000  Uiso   1.00
C954   C     0.07591   0.38553   0.54759   0.00000  Uiso   1.00
H955   H     0.06266   0.38136   0.51372   0.00000  Uiso   1.00
H956   H     0.06430   0.41834   0.56311   0.00000  Uiso   1.00
H957   H     0.06496   0.35567   0.56795   0.00000  Uiso   1.00
O958   O     0.21408   0.61538   0.95304   0.00000  Uiso   1.00
C959   C     0.18604   0.65311   0.95390   0.00000  Uiso   1.00
H960   H     0.18202   0.66658   0.98816   0.00000  Uiso   1.00
H961   H     0.15573   0.64310   0.93927   0.00000  Uiso   1.00
H962   H     0.19855   0.34883   0.93354   0.00000  Uiso   1.00
C963   C     0.42068   0.50001   0.75001   0.00000  Uiso   1.00
C964   C     0.57932   0.49999   0.74998   0.00000  Uiso   1.00
C965   C     0.46645   0.42350   0.52408   0.00000  Uiso   1.00
C966   C     0.53054   0.57805   0.97594   0.00000  Uiso   1.00
C967   C     0.35470   0.45758   0.75382   0.00000  Uiso   1.00
C968   C     0.64531   0.54242   0.74613   0.00000  Uiso   1.00
C969   C     0.64545   0.45756   0.75375   0.00000  Uiso   1.00
C970   C     0.35455   0.54244   0.74620   0.00000  Uiso   1.00
C971   C     0.62393   0.49998   0.74993   0.00000  Uiso   1.00
C972   C     0.37607   0.50002   0.75003   0.00000  Uiso   1.00
C973   C     0.47483   0.35827   0.72184   0.00000  Uiso   1.00
C974   C     0.52515   0.64173   0.77817   0.00000  Uiso   1.00
C975   C     0.52515   0.35804   0.77818   0.00000  Uiso   1.00
C976   C     0.47484   0.64196   0.72184   0.00000  Uiso   1.00
C977   C     0.50064   0.50009   0.66435   0.00000  Uiso   1.00
C978   C     0.49933   0.49992   0.83565   0.00000  Uiso   1.00
C979   C     0.51387   0.53836   0.90685   0.00000  Uiso   1.00
C980   C     0.48512   0.46208   0.59316   0.00000  Uiso   1.00
C981   C     0.49777   0.49986   0.88400   0.00000  Uiso   1.00
C982   C     0.50182   0.50025   0.61600   0.00000  Uiso   1.00
C983   C     0.48017   0.46203   0.90730   0.00000  Uiso   1.00
C984   C     0.51924   0.53817   0.59265   0.00000  Uiso   1.00
C985   C     0.48132   0.46188   0.95383   0.00000  Uiso   1.00
C986   C     0.51715   0.53887   0.54616   0.00000  Uiso   1.00
C987   C     0.49830   0.50059   0.97671   0.00000  Uiso   1.00
C988   C     0.49966   0.50043   0.52330   0.00000  Uiso   1.00
C989   C     0.51424   0.53927   0.95304   0.00000  Uiso   1.00
C990   C     0.48387   0.46166   0.54696   0.00000  Uiso   1.00
C991   C     0.46586   0.42362   0.97778   0.00000  Uiso   1.00
C992   C     0.53244   0.57724   0.52221   0.00000  Uiso   1.00
Cu993  Cu    0.50000   0.54689   0.75000   0.00000  Uiso   1.00
Cu994  Cu    0.50000   0.45311   0.75000   0.00000  Uiso   1.00
H995   H     0.52682   0.56739   0.88837   0.00000  Uiso   1.00
H996   H     0.47220   0.43305   0.61168   0.00000  Uiso   1.00
H997   H     0.45333   0.39338   0.96079   0.00000  Uiso   1.00
H998   H     0.54614   0.60687   0.53916   0.00000  Uiso   1.00
H999   H     0.37078   0.42443   0.75697   0.00000  Uiso   1.00
H1000  H     0.62922   0.57556   0.74298   0.00000  Uiso   1.00
H1001  H     0.62947   0.42440   0.75685   0.00000  Uiso   1.00
H1002  H     0.37053   0.57560   0.74310   0.00000  Uiso   1.00
H1003  H     0.45468   0.37709   0.69930   0.00000  Uiso   1.00
H1004  H     0.54530   0.62291   0.80072   0.00000  Uiso   1.00
H1005  H     0.54528   0.37669   0.80073   0.00000  Uiso   1.00
H1006  H     0.45469   0.62331   0.69930   0.00000  Uiso   1.00
N1007  N     0.50000   0.61736   0.75000   0.00000  Uiso   1.00
N1008  N     0.50000   0.38264   0.75000   0.00000  Uiso   1.00
O1009  O     0.43988   0.53958   0.74999   0.00000  Uiso   1.00
O1010  O     0.56012   0.46042   0.75001   0.00000  Uiso   1.00
O1011  O     0.56012   0.53958   0.75000   0.00000  Uiso   1.00
O1012  O     0.43988   0.46042   0.74999   0.00000  Uiso   1.00
O1013  O     0.49999   0.53960   0.68513   0.00000  Uiso   1.00
O1014  O     0.50001   0.46040   0.81487   0.00000  Uiso   1.00
O1015  O     0.50001   0.53960   0.81487   0.00000  Uiso   1.00
O1016  O     0.49999   0.46040   0.68513   0.00000  Uiso   1.00
O1017  O     0.46327   0.42440   0.88468   0.00000  Uiso   1.00
C1018  C     0.42157   0.43451   0.87534   0.00000  Uiso   1.00
H1019  H     0.40801   0.40438   0.85725   0.00000  Uiso   1.00
H1020  H     0.41830   0.46595   0.85366   0.00000  Uiso   1.00
H1021  H     0.40368   0.43935   0.90633   0.00000  Uiso   1.00
O1022  O     0.53682   0.57543   0.61524   0.00000  Uiso   1.00
C1023  C     0.57847   0.56460   0.62409   0.00000  Uiso   1.00
H1024  H     0.58155   0.53306   0.64567   0.00000  Uiso   1.00
H1025  H     0.59259   0.59446   0.64209   0.00000  Uiso   1.00
H1026  H     0.59599   0.55953   0.59290   0.00000  Uiso   1.00
O1027  O     0.45263   0.38449   0.54689   0.00000  Uiso   1.00
C1028  C     0.40925   0.38553   0.54759   0.00000  Uiso   1.00
H1029  H     0.39599   0.38136   0.51372   0.00000  Uiso   1.00
H1030  H     0.39764   0.41834   0.56311   0.00000  Uiso   1.00
H1031  H     0.39829   0.35567   0.56795   0.00000  Uiso   1.00
O1032  O     0.54742   0.61538   0.95304   0.00000  Uiso   1.00
C1033  C     0.51937   0.65311   0.95390   0.00000  Uiso   1.00
H1034  H     0.51535   0.66658   0.98816   0.00000  Uiso   1.00
H1035  H     0.48906   0.64310   0.93927   0.00000  Uiso   1.00
H1036  H     0.53189   0.34883   0.93354   0.00000  Uiso   1.00
C1037  C     0.75401   0.50001   0.75001   0.00000  Uiso   1.00
C1038  C     0.91266   0.49999   0.74998   0.00000  Uiso   1.00
C1039  C     0.79979   0.42350   0.52408   0.00000  Uiso   1.00
C1040  C     0.86387   0.57805   0.97594   0.00000  Uiso   1.00
C1041  C     0.68803   0.45758   0.75382   0.00000  Uiso   1.00
C1042  C     0.97864   0.54242   0.74613   0.00000  Uiso   1.00
C1043  C     0.97878   0.45756   0.75375   0.00000  Uiso   1.00
C1044  C     0.68789   0.54244   0.74620   0.00000  Uiso   1.00
C1045  C     0.95726   0.49998   0.74993   0.00000  Uiso   1.00
C1046  C     0.70941   0.50002   0.75003   0.00000  Uiso   1.00
C1047  C     0.80817   0.35827   0.72184   0.00000  Uiso   1.00
C1048  C     0.85849   0.64173   0.77817   0.00000  Uiso   1.00
C1049  C     0.85848   0.35804   0.77818   0.00000  Uiso   1.00
C1050  C     0.80817   0.64196   0.72184   0.00000  Uiso   1.00
C1051  C     0.83397   0.50009   0.66435   0.00000  Uiso   1.00
C1052  C     0.83266   0.49992   0.83565   0.00000  Uiso   1.00
C1053  C     0.84720   0.53836   0.90685   0.00000  Uiso   1.00
C1054  C     0.81845   0.46208   0.59316   0.00000  Uiso   1.00
C1055  C     0.83110   0.49986   0.88400   0.00000  Uiso   1.00
C1056  C     0.83515   0.50025   0.61600   0.00000  Uiso   1.00
C1057  C     0.81350   0.46203   0.90730   0.00000  Uiso   1.00
C1058  C     0.85257   0.53817   0.59265   0.00000  Uiso   1.00
C1059  C     0.81466   0.46188   0.95383   0.00000  Uiso   1.00
C1060  C     0.85048   0.53887   0.54616   0.00000  Uiso   1.00
C1061  C     0.83163   0.50059   0.97671   0.00000  Uiso   1.00
C1062  C     0.83300   0.50043   0.52330   0.00000  Uiso   1.00
C1063  C     0.84757   0.53927   0.95304   0.00000  Uiso   1.00
C1064  C     0.81721   0.46166   0.54696   0.00000  Uiso   1.00
C1065  C     0.79919   0.42362   0.97778   0.00000  Uiso   1.00
C1066  C     0.86577   0.57724   0.52221   0.00000  Uiso   1.00
Cu1067 Cu    0.83333   0.54689   0.75000   0.00000  Uiso   1.00
Cu1068 Cu    0.83333   0.45311   0.75000   0.00000  Uiso   1.00
H1069  H     0.86015   0.56739   0.88837   0.00000  Uiso   1.00
H1070  H     0.80553   0.43305   0.61168   0.00000  Uiso   1.00
H1071  H     0.78666   0.39338   0.96079   0.00000  Uiso   1.00
H1072  H     0.87947   0.60687   0.53916   0.00000  Uiso   1.00
H1073  H     0.70412   0.42443   0.75697   0.00000  Uiso   1.00
H1074  H     0.96255   0.57556   0.74298   0.00000  Uiso   1.00
H1075  H     0.96281   0.42440   0.75685   0.00000  Uiso   1.00
H1076  H     0.70386   0.57560   0.74310   0.00000  Uiso   1.00
H1077  H     0.78801   0.37709   0.69930   0.00000  Uiso   1.00
H1078  H     0.87863   0.62291   0.80072   0.00000  Uiso   1.00
H1079  H     0.87862   0.37669   0.80073   0.00000  Uiso   1.00
H1080  H     0.78802   0.62331   0.69930   0.00000  Uiso   1.00
N1081  N     0.83333   0.61736   0.75000   0.00000  Uiso   1.00
N1082  N     0.83333   0.38264   0.75000   0.00000  Uiso   1.00
O1083  O     0.77321   0.53958   0.74999   0.00000  Uiso   1.00
O1084  O     0.89345   0.46042   0.75001   0.00000  Uiso   1.00
O1085  O     0.89345   0.53958   0.75000   0.00000  Uiso   1.00
O1086  O     0.77321   0.46042   0.74999   0.00000  Uiso   1.00
O1087  O     0.83332   0.53960   0.68513   0.00000  Uiso   1.00
O1088  O     0.83334   0.46040   0.81487   0.00000  Uiso   1.00
O1089  O     0.83334   0.53960   0.81487   0.00000  Uiso   1.00
O1090  O     0.83332   0.46040   0.68513   0.00000  Uiso   1.00
O1091  O     0.79660   0.42440   0.88468   0.00000  Uiso   1.00
C1092  C     0.75490   0.43451   0.87534   0.00000  Uiso   1.00
H1093  H     0.74135   0.40438   0.85725   0.00000  Uiso   1.00
H1094  H     0.75163   0.46595   0.85366   0.00000  Uiso   1.00
H1095  H     0.73701   0.43935   0.90633   0.00000  Uiso   1.00
O1096  O     0.87015   0.57543   0.61524   0.00000  Uiso   1.00
C1097  C     0.91180   0.56460   0.62409   0.00000  Uiso   1.00
H1098  H     0.91488   0.53306   0.64567   0.00000  Uiso   1.00
H1099  H     0.92592   0.59446   0.64209   0.00000  Uiso   1.00
H1100  H     0.92932   0.55953   0.59290   0.00000  Uiso   1.00
O1101  O     0.78596   0.38449   0.54689   0.00000  Uiso   1.00
C1102  C     0.74258   0.38553   0.54759   0.00000  Uiso   1.00
H1103  H     0.72932   0.38136   0.51372   0.00000  Uiso   1.00
H1104  H     0.73097   0.41834   0.56311   0.00000  Uiso   1.00
H1105  H     0.73163   0.35567   0.56795   0.00000  Uiso   1.00
O1106  O     0.88075   0.61538   0.95304   0.00000  Uiso   1.00
C1107  C     0.85271   0.65311   0.95390   0.00000  Uiso   1.00
H1108  H     0.84869   0.66658   0.98816   0.00000  Uiso   1.00
H1109  H     0.82240   0.64310   0.93927   0.00000  Uiso   1.00
H1110  H     0.86522   0.34883   0.93354   0.00000  Uiso   1.00
C1111  C     0.08735   0.83335   0.75001   0.00000  Uiso   1.00
C1112  C     0.24599   0.83332   0.74998   0.00000  Uiso   1.00
C1113  C     0.13312   0.75683   0.52408   0.00000  Uiso   1.00
C1114  C     0.19721   0.91138   0.97594   0.00000  Uiso   1.00
C1115  C     0.02136   0.79091   0.75382   0.00000  Uiso   1.00
C1116  C     0.31197   0.87575   0.74613   0.00000  Uiso   1.00
C1117  C     0.31211   0.79089   0.75375   0.00000  Uiso   1.00
C1118  C     0.02122   0.87577   0.74620   0.00000  Uiso   1.00
C1119  C     0.29060   0.83331   0.74993   0.00000  Uiso   1.00
C1120  C     0.04274   0.83335   0.75003   0.00000  Uiso   1.00
C1121  C     0.14150   0.69160   0.72184   0.00000  Uiso   1.00
C1122  C     0.19182   0.97507   0.77817   0.00000  Uiso   1.00
C1123  C     0.19181   0.69137   0.77818   0.00000  Uiso   1.00
C1124  C     0.14151   0.97529   0.72184   0.00000  Uiso   1.00
C1125  C     0.16730   0.83342   0.66435   0.00000  Uiso   1.00
C1126  C     0.16600   0.83325   0.83565   0.00000  Uiso   1.00
C1127  C     0.18054   0.87169   0.90685   0.00000  Uiso   1.00
C1128  C     0.15179   0.79542   0.59316   0.00000  Uiso   1.00
C1129  C     0.16444   0.83320   0.88400   0.00000  Uiso   1.00
C1130  C     0.16849   0.83359   0.61600   0.00000  Uiso   1.00
C1131  C     0.14683   0.79537   0.90730   0.00000  Uiso   1.00
C1132  C     0.18590   0.87151   0.59265   0.00000  Uiso   1.00
C1133  C     0.14799   0.79521   0.95383   0.00000  Uiso   1.00
C1134  C     0.18381   0.87220   0.54616   0.00000  Uiso   1.00
C1135  C     0.16496   0.83392   0.97671   0.00000  Uiso   1.00
C1136  C     0.16633   0.83376   0.52330   0.00000  Uiso   1.00
C1137  C     0.18091   0.87260   0.95304   0.00000  Uiso   1.00
C1138  C     0.15054   0.79499   0.54696   0.00000  Uiso   1.00
C1139  C     0.13253   0.75696   0.97778   0.00000  Uiso   1.00
C1140  C     0.19911   0.91058   0.52221   0.00000  Uiso   1.00
Cu1141 Cu    0.16667   0.88022   0.75000   0.00000  Uiso   1.00
Cu1142 Cu    0.16667   0.78645   0.75000   0.00000  Uiso   1.00
H1143  H     0.19349   0.90073   0.88837   0.00000  Uiso   1.00
H1144  H     0.13886   0.76639   0.61168   0.00000  Uiso   1.00
H1145  H     0.12000   0.72672   0.96079   0.00000  Uiso   1.00
H1146  H     0.21280   0.94020   0.53916   0.00000  Uiso   1.00
H1147  H     0.03745   0.75776   0.75697   0.00000  Uiso   1.00
H1148  H     0.29588   0.90890   0.74298   0.00000  Uiso   1.00
H1149  H     0.29614   0.75773   0.75685   0.00000  Uiso   1.00
H1150  H     0.03720   0.90893   0.74310   0.00000  Uiso   1.00
H1151  H     0.12135   0.71043   0.69930   0.00000  Uiso   1.00
H1152  H     0.21196   0.95624   0.80072   0.00000  Uiso   1.00
H1153  H     0.21195   0.71002   0.80073   0.00000  Uiso   1.00
H1154  H     0.12136   0.95665   0.69930   0.00000  Uiso   1.00
N1155  N     0.16667   0.95069   0.75000   0.00000  Uiso   1.00
N1156  N     0.16667   0.71598   0.75000   0.00000  Uiso   1.00
O1157  O     0.10655   0.87291   0.74999   0.00000  Uiso   1.00
O1158  O     0.22679   0.79375   0.75001   0.00000  Uiso   1.00
O1159  O     0.22679   0.87291   0.75000   0.00000  Uiso   1.00
O1160  O     0.10655   0.79375   0.74999   0.00000  Uiso   1.00
O1161  O     0.16666   0.87293   0.68513   0.00000  Uiso   1.00
O1162  O     0.16668   0.79373   0.81487   0.00000  Uiso   1.00
O1163  O     0.16668   0.87293   0.81487   0.00000  Uiso   1.00
O1164  O     0.16666   0.79373   0.68513   0.00000  Uiso   1.00
O1165  O     0.12993   0.75773   0.88468   0.00000  Uiso   1.00
C1166  C     0.08824   0.76784   0.87534   0.00000  Uiso   1.00
H1167  H     0.07468   0.73772   0.85725   0.00000  Uiso   1.00
H1168  H     0.08497   0.79929   0.85366   0.00000  Uiso   1.00
H1169  H     0.07035   0.77268   0.90633   0.00000  Uiso   1.00
O1170  O     0.20348   0.90876   0.61524   0.00000  Uiso   1.00
C1171  C     0.24514   0.89793   0.62409   0.00000  Uiso   1.00
H1172  H     0.24822   0.86640   0.64567   0.00000  Uiso   1.00
H1173  H     0.25926   0.92779   0.64209   0.00000  Uiso   1.00
H1174  H     0.26265   0.89287   0.59290   0.00000  Uiso   1.00
O1175  O     0.11930   0.71783   0.54689   0.00000  Uiso   1.00
C1176  C     0.07591   0.71887   0.54759   0.00000  Uiso   1.00
H1177  H     0.06266   0.71470   0.51372   0.00000  Uiso   1.00
H1178  H     0.06430   0.75167   0.56311   0.00000  Uiso   1.00
H1179  H     0.06496   0.68900   0.56795   0.00000  Uiso   1.00
O1180  O     0.21408   0.94871   0.95304   0.00000  Uiso   1.00
C1181  C     0.18604   0.98644   0.95390   0.00000  Uiso   1.00
H1182  H     0.18202   0.99991   0.98816   0.00000  Uiso   1.00
H1183  H     0.15573   0.97643   0.93927   0.00000  Uiso   1.00
H1184  H     0.19855   0.68217   0.93354   0.00000  Uiso   1.00
C1185  C     0.42068   0.83335   0.75001   0.00000  Uiso   1.00
C1186  C     0.57932   0.83332   0.74998   0.00000  Uiso   1.00
C1187  C     0.46645   0.75683   0.52408   0.00000  Uiso   1.00
C1188  C     0.53054   0.91138   0.97594   0.00000  Uiso   1.00
C1189  C     0.35470   0.79091   0.75382   0.00000  Uiso   1.00
C1190  C     0.64531   0.87575   0.74613   0.00000  Uiso   1.00
C1191  C     0.64545   0.79089   0.75375   0.00000  Uiso   1.00
C1192  C     0.35455   0.87577   0.74620   0.00000  Uiso   1.00
C1193  C     0.62393   0.83331   0.74993   0.00000  Uiso   1.00
C1194  C     0.37607   0.83335   0.75003   0.00000  Uiso   1.00
C1195  C     0.47483   0.69160   0.72184   0.00000  Uiso   1.00
C1196  C     0.52515   0.97507   0.77817   0.00000  Uiso   1.00
C1197  C     0.52515   0.69137   0.77818   0.00000  Uiso   1.00
C1198  C     0.47484   0.97529   0.72184   0.00000  Uiso   1.00
C1199  C     0.50064   0.83342   0.66435   0.00000  Uiso   1.00
C1200  C     0.49933   0.83325   0.83565   0.00000  Uiso   1.00
C1201  C     0.51387   0.87169   0.90685   0.00000  Uiso   1.00
C1202  C     0.48512   0.79542   0.59316   0.00000  Uiso   1.00
C1203  C     0.49777   0.83320   0.88400   0.00000  Uiso   1.00
C1204  C     0.50182   0.83359   0.61600   0.00000  Uiso   1.00
C1205  C     0.48017   0.79537   0.90730   0.00000  Uiso   1.00
C1206  C     0.51924   0.87151   0.59265   0.00000  Uiso   1.00
C1207  C     0.48132   0.79521   0.95383   0.00000  Uiso   1.00
C1208  C     0.51715   0.87220   0.54616   0.00000  Uiso   1.00
C1209  C     0.49830   0.83392   0.97671   0.00000  Uiso   1.00
C1210  C     0.49966   0.83376   0.52330   0.00000  Uiso   1.00
C1211  C     0.51424   0.87260   0.95304   0.00000  Uiso   1.00
C1212  C     0.48387   0.79499   0.54696   0.00000  Uiso   1.00
C1213  C     0.46586   0.75696   0.97778   0.00000  Uiso   1.00
C1214  C     0.53244   0.91058   0.52221   0.00000  Uiso   1.00
Cu1215 Cu    0.50000   0.88022   0.75000   0.00000  Uiso   1.00
Cu1216 Cu    0.50000   0.78645   0.75000   0.00000  Uiso   1.00
H1217  H     0.52682   0.90073   0.88837   0.00000  Uiso   1.00
H1218  H     0.47220   0.76639   0.61168   0.00000  Uiso   1.00
H1219  H     0.45333   0.72672   0.96079   0.00000  Uiso   1.00
H1220  H     0.54614   0.94020   0.53916   0.00000  Uiso   1.00
H1221  H     0.37078   0.75776   0.75697   0.00000  Uiso   1.00
H1222  H     0.62922   0.90890   0.74298   0.00000  Uiso   1.00
H1223  H     0.62947   0.75773   0.75685   0.00000  Uiso   1.00
H1224  H     0.37053   0.90893   0.74310   0.00000  Uiso   1.00
H1225  H     0.45468   0.71043   0.69930   0.00000  Uiso   1.00
H1226  H     0.54530   0.95624   0.80072   0.00000  Uiso   1.00
H1227  H     0.54528   0.71002   0.80073   0.00000  Uiso   1.00
H1228  H     0.45469   0.95665   0.69930   0.00000  Uiso   1.00
N1229  N     0.50000   0.95069   0.75000   0.00000  Uiso   1.00
N1230  N     0.50000   0.71598   0.75000   0.00000  Uiso   1.00
O1231  O     0.43988   0.87291   0.74999   0.00000  Uiso   1.00
O1232  O     0.56012   0.79375   0.75001   0.00000  Uiso   1.00
O1233  O     0.56012   0.87291   0.75000   0.00000  Uiso   1.00
O1234  O     0.43988   0.79375   0.74999   0.00000  Uiso   1.00
O1235  O     0.49999   0.87293   0.68513   0.00000  Uiso   1.00
O1236  O     0.50001   0.79373   0.81487   0.00000  Uiso   1.00
O1237  O     0.50001   0.87293   0.81487   0.00000  Uiso   1.00
O1238  O     0.49999   0.79373   0.68513   0.00000  Uiso   1.00
O1239  O     0.46327   0.75773   0.88468   0.00000  Uiso   1.00
C1240  C     0.42157   0.76784   0.87534   0.00000  Uiso   1.00
H1241  H     0.40801   0.73772   0.85725   0.00000  Uiso   1.00
H1242  H     0.41830   0.79929   0.85366   0.00000  Uiso   1.00
H1243  H     0.40368   0.77268   0.90633   0.00000  Uiso   1.00
O1244  O     0.53682   0.90876   0.61524   0.00000  Uiso   1.00
C1245  C     0.57847   0.89793   0.62409   0.00000  Uiso   1.00
H1246  H     0.58155   0.86640   0.64567   0.00000  Uiso   1.00
H1247  H     0.59259   0.92779   0.64209   0.00000  Uiso   1.00
H1248  H     0.59599   0.89287   0.59290   0.00000  Uiso   1.00
O1249  O     0.45263   0.71783   0.54689   0.00000  Uiso   1.00
C1250  C     0.40925   0.71887   0.54759   0.00000  Uiso   1.00
H1251  H     0.39599   0.71470   0.51372   0.00000  Uiso   1.00
H1252  H     0.39764   0.75167   0.56311   0.00000  Uiso   1.00
H1253  H     0.39829   0.68900   0.56795   0.00000  Uiso   1.00
O1254  O     0.54742   0.94871   0.95304   0.00000  Uiso   1.00
C1255  C     0.51937   0.98644   0.95390   0.00000  Uiso   1.00
H1256  H     0.51535   0.99991   0.98816   0.00000  Uiso   1.00
H1257  H     0.48906   0.97643   0.93927   0.00000  Uiso   1.00
H1258  H     0.53189   0.68217   0.93354   0.00000  Uiso   1.00
C1259  C     0.75401   0.83335   0.75001   0.00000  Uiso   1.00
C1260  C     0.91266   0.83332   0.74998   0.00000  Uiso   1.00
C1261  C     0.79979   0.75683   0.52408   0.00000  Uiso   1.00
C1262  C     0.86387   0.91138   0.97594   0.00000  Uiso   1.00
C1263  C     0.68803   0.79091   0.75382   0.00000  Uiso   1.00
C1264  C     0.97864   0.87575   0.74613   0.00000  Uiso   1.00
C1265  C     0.97878   0.79089   0.75375   0.00000  Uiso   1.00
C1266  C     0.68789   0.87577   0.74620   0.00000  Uiso   1.00
C1267  C     0.95726   0.83331   0.74993   0.00000  Uiso   1.00
C1268  C     0.70941   0.83335   0.75003   0.00000  Uiso   1.00
C1269  C     0.80817   0.69160   0.72184   0.00000  Uiso   1.00
C1270  C     0.85849   0.97507   0.77817   0.00000  Uiso   1.00
C1271  C     0.85848   0.69137   0.77818   0.00000  Uiso   1.00
C1272  C     0.80817   0.97529   0.72184   0.00000  Uiso   1.00
C1273  C     0.83397   0.83342   0.66435   0.00000  Uiso   1.00
C1274  C     0.83266   0.83325   0.83565   0.00000  Uiso   1.00
C1275  C     0.84720   0.87169   0.90685   0.00000  Uiso   1.00
C1276  C     0.81845   0.79542   0.59316   0.00000  Uiso   1.00
C1277  C     0.83110   0.83320   0.88400   0.00000  Uiso   1.00
C1278  C     0.83515   0.83359   0.61600   0.00000  Uiso   1.00
C1279  C     0.81350   0.79537   0.90730   0.00000  Uiso   1.00
C1280  C     0.85257   0.87151   0.59265   0.00000  Uiso   1.00
C1281  C     0.81466   0.79521   0.95383   0.00000  Uiso   1.00
C1282  C     0.85048   0.87220   0.54616   0.00000  Uiso   1.00
C1283  C     0.83163   0.83392   0.97671   0.00000  Uiso   1.00
C1284  C     0.83300   0.83376   0.52330   0.00000  Uiso   1.00
C1285  C     0.84757   0.87260   0.95304   0.00000  Uiso   1.00
C1286  C     0.81721   0.79499   0.54696   0.00000  Uiso   1.00
C1287  C     0.79919   0.75696   0.97778   0.00000  Uiso   1.00
C1288  C     0.86577   0.91058   0.52221   0.00000  Uiso   1.00
Cu1289 Cu    0.83333   0.88022   0.75000   0.00000  Uiso   1.00
Cu1290 Cu    0.83333   0.78645   0.75000   0.00000  Uiso   1.00
H1291  H     0.86015   0.90073   0.88837   0.00000  Uiso   1.00
H1292  H     0.80553   0.76639   0.61168   0.00000  Uiso   1.00
H1293  H     0.78666   0.72672   0.96079   0.00000  Uiso   1.00
H1294  H     0.87947   0.94020   0.53916   0.00000  Uiso   1.00
H1295  H     0.70412   0.75776   0.75697   0.00000  Uiso   1.00
H1296  H     0.96255   0.90890   0.74298   0.00000  Uiso   1.00
H1297  H     0.96281   0.75773   0.75685   0.00000  Uiso   1.00
H1298  H     0.70386   0.90893   0.74310   0.00000  Uiso   1.00
H1299  H     0.78801   0.71043   0.69930   0.00000  Uiso   1.00
H1300  H     0.87863   0.95624   0.80072   0.00000  Uiso   1.00
H1301  H     0.87862   0.71002   0.80073   0.00000  Uiso   1.00
H1302  H     0.78802   0.95665   0.69930   0.00000  Uiso   1.00
N1303  N     0.83333   0.95069   0.75000   0.00000  Uiso   1.00
N1304  N     0.83333   0.71598   0.75000   0.00000  Uiso   1.00
O1305  O     0.77321   0.87291   0.74999   0.00000  Uiso   1.00
O1306  O     0.89345   0.79375   0.75001   0.00000  Uiso   1.00
O1307  O     0.89345   0.87291   0.75000   0.00000  Uiso   1.00
O1308  O     0.77321   0.79375   0.74999   0.00000  Uiso   1.00
O1309  O     0.83332   0.87293   0.68513   0.00000  Uiso   1.00
O1310  O     0.83334   0.79373   0.81487   0.00000  Uiso   1.00
O1311  O     0.83334   0.87293   0.81487   0.00000  Uiso   1.00
O1312  O     0.83332   0.79373   0.68513   0.00000  Uiso   1.00
O1313  O     0.79660   0.75773   0.88468   0.00000  Uiso   1.00
C1314  C     0.75490   0.76784   0.87534   0.00000  Uiso   1.00
H1315  H     0.74135   0.73772   0.85725   0.00000  Uiso   1.00
H1316  H     0.75163   0.79929   0.85366   0.00000  Uiso   1.00
H1317  H     0.73701   0.77268   0.90633   0.00000  Uiso   1.00
O1318  O     0.87015   0.90876   0.61524   0.00000  Uiso   1.00
C1319  C     0.91180   0.89793   0.62409   0.00000  Uiso   1.00
H1320  H     0.91488   0.86640   0.64567   0.00000  Uiso   1.00
H1321  H     0.92592   0.92779   0.64209   0.00000  Uiso   1.00
H1322  H     0.92932   0.89287   0.59290   0.00000  Uiso   1.00
O1323  O     0.78596   0.71783   0.54689   0.00000  Uiso   1.00
C1324  C     0.74258   0.71887   0.54759   0.00000  Uiso   1.00
H1325  H     0.72932   0.71470   0.51372   0.00000  Uiso   1.00
H1326  H     0.73097   0.75167   0.56311   0.00000  Uiso   1.00
H1327  H     0.73163   0.68900   0.56795   0.00000  Uiso   1.00
O1328  O     0.88075   0.94871   0.95304   0.00000  Uiso   1.00
C1329  C     0.85271   0.98644   0.95390   0.00000  Uiso   1.00
H1330  H     0.84869   0.99991   0.98816   0.00000  Uiso   1.00
H1331  H     0.82240   0.97643   0.93927   0.00000  Uiso   1.00
H1332  H     0.86522   0.68217   0.93354   0.00000  Uiso   1.00
loop_
_geom_bond_atom_site_label_1
_geom_bond_atom_site_label_2
_geom_bond_distance
_geom_bond_site_symmetry_2
_ccdc_geom_bond_type
C1     O50     1.290   .     A
C1     O47     1.290   .     A
C1     C10     1.449   .     S
C2     O48     1.290   .     A
C2     O49     1.290   .     A
C2     C9      1.449   .     S
C3     C28     1.408   .     A
C3     O65     1.384   .     S
C3     C695    1.397   1_554 S
C4     O70     1.384   .     S
C4     C27     1.408   .     A
C4     C696    1.397   .     S
C5     H37     1.083   .     S
C5     C10     1.401   .     A
C5     C155    1.383   1_455 S
C6     C9      1.401   .     A
C6     H38     1.083   .     S
C6     C82     1.383   .     S
C7     C9      1.401   .     A
C7     H39     1.083   .     S
C7     C79     1.383   .     S
C8     C10     1.401   .     A
C8     H40     1.083   .     S
C8     C154    1.383   1_455 S
C11    H41     1.082   .     S
C11    N46     1.367   .     A
C11    C458    1.416   1_545 S
C12    H42     1.082   .     S
C12    N45     1.367   .     A
C12    C235    1.416   .     S
C13    N46     1.367   .     A
C13    H43     1.082   .     S
C13    C456    1.416   1_545 S
C14    N45     1.367   .     A
C14    H44     1.082   .     S
C14    C233    1.416   .     S
C15    O51     1.291   .     A
C15    C20     1.460   .     S
C15    O54     1.293   .     A
C16    O53     1.293   .     A
C16    O52     1.292   .     A
C16    C19     1.460   .     S
C17    H33     1.084   .     S
C17    C27     1.394   .     A
C17    C19     1.398   .     A
C18    C28     1.394   .     A
C18    H34     1.084   .     S
C18    C20     1.398   .     A
C19    C21     1.410   .     A
C20    C22     1.410   .     A
C21    O55     1.385   .     S
C21    C23     1.404   .     A
C22    O60     1.385   .     S
C22    C24     1.404   .     A
C23    C29     1.403   .     A
C23    C25     1.414   .     A
C24    C26     1.414   .     A
C24    C30     1.403   .     A
C25    C27     1.413   .     A
C25    C692    1.406   .     S
C26    C28     1.413   .     A
C26    C691    1.406   1_554 S
C29    H35     1.083   .     S
C29    C669    1.397   .     S
C30    H36     1.083   .     S
C30    C670    1.397   1_554 S
Cu31   O47     1.964   .     S
Cu31   O49     1.964   .     S
Cu31   Cu32    2.675   .     S
Cu31   O53     1.968   .     S
Cu31   O51     1.969   .     S
Cu31   N45     2.010   .     S
Cu32   O52     1.969   .     S
Cu32   O48     1.964   .     S
Cu32   O54     1.968   .     S
Cu32   O50     1.964   .     S
Cu32   N46     2.010   .     S
O55    C56     1.411   .     S
C56    H57     1.109   .     S
C56    H59     1.113   .     S
C56    H58     1.113   .     S
O60    C61     1.411   .     S
C61    H63     1.109   .     S
C61    H64     1.113   .     S
C61    H62     1.113   .     S
O65    C66     1.410   .     S
C66    H68     1.114   .     S
C66    H69     1.109   .     S
C66    H67     1.113   .     S
O70    C71     1.410   .     S
C71    H72     1.112   .     S
C71    H73     1.114   .     S
C71    H296    1.109   .     S
H74    C515    1.109   1_545 S
C75    O124    1.290   .     A
C75    O121    1.290   .     A
C75    C84     1.449   .     S
C76    O122    1.290   .     A
C76    O123    1.290   .     A
C76    C83     1.449   .     S
C77    C102    1.408   .     A
C77    O139    1.384   .     S
C77    C769    1.397   1_554 S
C78    O144    1.384   .     S
C78    C101    1.408   .     A
C78    C770    1.397   .     S
C79    H111    1.083   .     S
C79    C84     1.401   .     A
C80    C83     1.401   .     A
C80    H112    1.083   .     S
C80    C156    1.383   .     S
C81    C83     1.401   .     A
C81    H113    1.083   .     S
C81    C153    1.383   .     S
C82    C84     1.401   .     A
C82    H114    1.083   .     S
C85    H115    1.082   .     S
C85    N120    1.367   .     A
C85    C532    1.416   1_545 S
C86    H116    1.082   .     S
C86    N119    1.367   .     A
C86    C309    1.416   .     S
C87    N120    1.367   .     A
C87    H117    1.082   .     S
C87    C530    1.416   1_545 S
C88    N119    1.367   .     A
C88    H118    1.082   .     S
C88    C307    1.416   .     S
C89    O125    1.291   .     A
C89    C94     1.460   .     S
C89    O128    1.293   .     A
C90    O127    1.293   .     A
C90    O126    1.292   .     A
C90    C93     1.460   .     S
C91    H107    1.084   .     S
C91    C101    1.394   .     A
C91    C93     1.398   .     A
C92    C102    1.394   .     A
C92    H108    1.084   .     S
C92    C94     1.398   .     A
C93    C95     1.410   .     A
C94    C96     1.410   .     A
C95    O129    1.385   .     S
C95    C97     1.404   .     A
C96    O134    1.385   .     S
C96    C98     1.404   .     A
C97    C103    1.403   .     A
C97    C99     1.414   .     A
C98    C100    1.414   .     A
C98    C104    1.403   .     A
C99    C101    1.413   .     A
C99    C766    1.406   .     S
C100   C102    1.413   .     A
C100   C765    1.406   1_554 S
C103   H109    1.083   .     S
C103   C743    1.397   .     S
C104   H110    1.083   .     S
C104   C744    1.397   1_554 S
Cu105  O121    1.964   .     S
Cu105  O123    1.964   .     S
Cu105  Cu106   2.675   .     S
Cu105  O127    1.968   .     S
Cu105  O125    1.969   .     S
Cu105  N119    2.010   .     S
Cu106  O126    1.969   .     S
Cu106  O122    1.964   .     S
Cu106  O128    1.968   .     S
Cu106  O124    1.964   .     S
Cu106  N120    2.010   .     S
O129   C130    1.411   .     S
C130   H131    1.109   .     S
C130   H133    1.113   .     S
C130   H132    1.113   .     S
O134   C135    1.411   .     S
C135   H137    1.109   .     S
C135   H138    1.113   .     S
C135   H136    1.113   .     S
O139   C140    1.410   .     S
C140   H142    1.114   .     S
C140   H143    1.109   .     S
C140   H141    1.113   .     S
O144   C145    1.410   .     S
C145   H146    1.112   .     S
C145   H147    1.114   .     S
C145   H370    1.109   .     S
H148   C589    1.109   1_545 S
C149   O198    1.290   .     A
C149   O195    1.290   .     A
C149   C158    1.449   .     S
C150   O196    1.290   .     A
C150   O197    1.290   .     A
C150   C157    1.449   .     S
C151   C176    1.408   .     A
C151   O213    1.384   .     S
C151   C843    1.397   1_554 S
C152   O218    1.384   .     S
C152   C175    1.408   .     A
C152   C844    1.397   .     S
C153   H185    1.083   .     S
C153   C158    1.401   .     A
C154   C157    1.401   .     A
C154   H186    1.083   .     S
C154   C8      1.383   1_655 S
C155   C157    1.401   .     A
C155   H187    1.083   .     S
C155   C5      1.383   1_655 S
C156   C158    1.401   .     A
C156   H188    1.083   .     S
C159   H189    1.082   .     S
C159   N194    1.367   .     A
C159   C606    1.416   1_545 S
C160   H190    1.082   .     S
C160   N193    1.367   .     A
C160   C383    1.416   .     S
C161   N194    1.367   .     A
C161   H191    1.082   .     S
C161   C604    1.416   1_545 S
C162   N193    1.367   .     A
C162   H192    1.082   .     S
C162   C381    1.416   .     S
C163   O199    1.291   .     A
C163   C168    1.460   .     S
C163   O202    1.293   .     A
C164   O201    1.293   .     A
C164   O200    1.292   .     A
C164   C167    1.460   .     S
C165   H181    1.084   .     S
C165   C175    1.394   .     A
C165   C167    1.398   .     A
C166   C176    1.394   .     A
C166   H182    1.084   .     S
C166   C168    1.398   .     A
C167   C169    1.410   .     A
C168   C170    1.410   .     A
C169   O203    1.385   .     S
C169   C171    1.404   .     A
C170   O208    1.385   .     S
C170   C172    1.404   .     A
C171   C177    1.403   .     A
C171   C173    1.414   .     A
C172   C174    1.414   .     A
C172   C178    1.403   .     A
C173   C175    1.413   .     A
C173   C840    1.406   .     S
C174   C176    1.413   .     A
C174   C839    1.406   1_554 S
C177   H183    1.083   .     S
C177   C817    1.397   .     S
C178   H184    1.083   .     S
C178   C818    1.397   1_554 S
Cu179  O195    1.964   .     S
Cu179  O197    1.964   .     S
Cu179  Cu180   2.675   .     S
Cu179  O201    1.968   .     S
Cu179  O199    1.969   .     S
Cu179  N193    2.010   .     S
Cu180  O200    1.969   .     S
Cu180  O196    1.964   .     S
Cu180  O202    1.968   .     S
Cu180  O198    1.964   .     S
Cu180  N194    2.010   .     S
O203   C204    1.411   .     S
C204   H205    1.109   .     S
C204   H207    1.113   .     S
C204   H206    1.113   .     S
O208   C209    1.411   .     S
C209   H211    1.109   .     S
C209   H212    1.113   .     S
C209   H210    1.113   .     S
O213   C214    1.410   .     S
C214   H216    1.114   .     S
C214   H217    1.109   .     S
C214   H215    1.113   .     S
O218   C219    1.410   .     S
C219   H220    1.112   .     S
C219   H221    1.114   .     S
C219   H444    1.109   .     S
H222   C663    1.109   1_545 S
C223   O272    1.290   .     A
C223   O269    1.290   .     A
C223   C232    1.449   .     S
C224   O270    1.290   .     A
C224   O271    1.290   .     A
C224   C231    1.449   .     S
C225   C250    1.408   .     A
C225   O287    1.384   .     S
C225   C917    1.397   1_554 S
C226   O292    1.384   .     S
C226   C249    1.408   .     A
C226   C918    1.397   .     S
C227   H259    1.083   .     S
C227   C232    1.401   .     A
C227   C377    1.383   1_455 S
C228   C231    1.401   .     A
C228   H260    1.083   .     S
C228   C304    1.383   .     S
C229   C231    1.401   .     A
C229   H261    1.083   .     S
C229   C301    1.383   .     S
C230   C232    1.401   .     A
C230   H262    1.083   .     S
C230   C376    1.383   1_455 S
C233   H263    1.082   .     S
C233   N268    1.367   .     A
C234   H264    1.082   .     S
C234   N267    1.367   .     A
C234   C457    1.416   .     S
C235   N268    1.367   .     A
C235   H265    1.082   .     S
C236   N267    1.367   .     A
C236   H266    1.082   .     S
C236   C455    1.416   .     S
C237   O273    1.291   .     A
C237   C242    1.460   .     S
C237   O276    1.293   .     A
C238   O275    1.293   .     A
C238   O274    1.292   .     A
C238   C241    1.460   .     S
C239   H255    1.084   .     S
C239   C249    1.394   .     A
C239   C241    1.398   .     A
C240   C250    1.394   .     A
C240   H256    1.084   .     S
C240   C242    1.398   .     A
C241   C243    1.410   .     A
C242   C244    1.410   .     A
C243   O277    1.385   .     S
C243   C245    1.404   .     A
C244   O282    1.385   .     S
C244   C246    1.404   .     A
C245   C251    1.403   .     A
C245   C247    1.414   .     A
C246   C248    1.414   .     A
C246   C252    1.403   .     A
C247   C249    1.413   .     A
C247   C914    1.406   .     S
C248   C250    1.413   .     A
C248   C913    1.406   1_554 S
C251   H257    1.083   .     S
C251   C891    1.397   .     S
C252   H258    1.083   .     S
C252   C892    1.397   1_554 S
Cu253  O269    1.964   .     S
Cu253  O271    1.964   .     S
Cu253  Cu254   2.675   .     S
Cu253  O275    1.968   .     S
Cu253  O273    1.969   .     S
Cu253  N267    2.010   .     S
Cu254  O274    1.969   .     S
Cu254  O270    1.964   .     S
Cu254  O276    1.968   .     S
Cu254  O272    1.964   .     S
Cu254  N268    2.010   .     S
O277   C278    1.411   .     S
C278   H279    1.109   .     S
C278   H281    1.113   .     S
C278   H280    1.113   .     S
O282   C283    1.411   .     S
C283   H285    1.109   .     S
C283   H286    1.113   .     S
C283   H284    1.113   .     S
O287   C288    1.410   .     S
C288   H290    1.114   .     S
C288   H291    1.109   .     S
C288   H289    1.113   .     S
O292   C293    1.410   .     S
C293   H294    1.112   .     S
C293   H295    1.114   .     S
C293   H518    1.109   .     S
C297   O346    1.290   .     A
C297   O343    1.290   .     A
C297   C306    1.449   .     S
C298   O344    1.290   .     A
C298   O345    1.290   .     A
C298   C305    1.449   .     S
C299   C324    1.408   .     A
C299   O361    1.384   .     S
C299   C991    1.397   1_554 S
C300   O366    1.384   .     S
C300   C323    1.408   .     A
C300   C992    1.397   .     S
C301   H333    1.083   .     S
C301   C306    1.401   .     A
C302   C305    1.401   .     A
C302   H334    1.083   .     S
C302   C378    1.383   .     S
C303   C305    1.401   .     A
C303   H335    1.083   .     S
C303   C375    1.383   .     S
C304   C306    1.401   .     A
C304   H336    1.083   .     S
C307   H337    1.082   .     S
C307   N342    1.367   .     A
C308   H338    1.082   .     S
C308   N341    1.367   .     A
C308   C531    1.416   .     S
C309   N342    1.367   .     A
C309   H339    1.082   .     S
C310   N341    1.367   .     A
C310   H340    1.082   .     S
C310   C529    1.416   .     S
C311   O347    1.291   .     A
C311   C316    1.460   .     S
C311   O350    1.293   .     A
C312   O349    1.293   .     A
C312   O348    1.292   .     A
C312   C315    1.460   .     S
C313   H329    1.084   .     S
C313   C323    1.394   .     A
C313   C315    1.398   .     A
C314   C324    1.394   .     A
C314   H330    1.084   .     S
C314   C316    1.398   .     A
C315   C317    1.410   .     A
C316   C318    1.410   .     A
C317   O351    1.385   .     S
C317   C319    1.404   .     A
C318   O356    1.385   .     S
C318   C320    1.404   .     A
C319   C325    1.403   .     A
C319   C321    1.414   .     A
C320   C322    1.414   .     A
C320   C326    1.403   .     A
C321   C323    1.413   .     A
C321   C988    1.406   .     S
C322   C324    1.413   .     A
C322   C987    1.406   1_554 S
C325   H331    1.083   .     S
C325   C965    1.397   .     S
C326   H332    1.083   .     S
C326   C966    1.397   1_554 S
Cu327  O343    1.964   .     S
Cu327  O345    1.964   .     S
Cu327  Cu328   2.675   .     S
Cu327  O349    1.968   .     S
Cu327  O347    1.969   .     S
Cu327  N341    2.010   .     S
Cu328  O348    1.969   .     S
Cu328  O344    1.964   .     S
Cu328  O350    1.968   .     S
Cu328  O346    1.964   .     S
Cu328  N342    2.010   .     S
O351   C352    1.411   .     S
C352   H353    1.109   .     S
C352   H355    1.113   .     S
C352   H354    1.113   .     S
O356   C357    1.411   .     S
C357   H359    1.109   .     S
C357   H360    1.113   .     S
C357   H358    1.113   .     S
O361   C362    1.410   .     S
C362   H364    1.114   .     S
C362   H365    1.109   .     S
C362   H363    1.113   .     S
O366   C367    1.410   .     S
C367   H368    1.112   .     S
C367   H369    1.114   .     S
C367   H592    1.109   .     S
C371   O420    1.290   .     A
C371   O417    1.290   .     A
C371   C380    1.449   .     S
C372   O418    1.290   .     A
C372   O419    1.290   .     A
C372   C379    1.449   .     S
C373   C398    1.408   .     A
C373   O435    1.384   .     S
C373   C1065   1.397   1_554 S
C374   O440    1.384   .     S
C374   C397    1.408   .     A
C374   C1066   1.397   .     S
C375   H407    1.083   .     S
C375   C380    1.401   .     A
C376   C379    1.401   .     A
C376   H408    1.083   .     S
C376   C230    1.383   1_655 S
C377   C379    1.401   .     A
C377   H409    1.083   .     S
C377   C227    1.383   1_655 S
C378   C380    1.401   .     A
C378   H410    1.083   .     S
C381   H411    1.082   .     S
C381   N416    1.367   .     A
C382   H412    1.082   .     S
C382   N415    1.367   .     A
C382   C605    1.416   .     S
C383   N416    1.367   .     A
C383   H413    1.082   .     S
C384   N415    1.367   .     A
C384   H414    1.082   .     S
C384   C603    1.416   .     S
C385   O421    1.291   .     A
C385   C390    1.460   .     S
C385   O424    1.293   .     A
C386   O423    1.293   .     A
C386   O422    1.292   .     A
C386   C389    1.460   .     S
C387   H403    1.084   .     S
C387   C397    1.394   .     A
C387   C389    1.398   .     A
C388   C398    1.394   .     A
C388   H404    1.084   .     S
C388   C390    1.398   .     A
C389   C391    1.410   .     A
C390   C392    1.410   .     A
C391   O425    1.385   .     S
C391   C393    1.404   .     A
C392   O430    1.385   .     S
C392   C394    1.404   .     A
C393   C399    1.403   .     A
C393   C395    1.414   .     A
C394   C396    1.414   .     A
C394   C400    1.403   .     A
C395   C397    1.413   .     A
C395   C1062   1.406   .     S
C396   C398    1.413   .     A
C396   C1061   1.406   1_554 S
C399   H405    1.083   .     S
C399   C1039   1.397   .     S
C400   H406    1.083   .     S
C400   C1040   1.397   1_554 S
Cu401  O417    1.964   .     S
Cu401  O419    1.964   .     S
Cu401  Cu402   2.675   .     S
Cu401  O423    1.968   .     S
Cu401  O421    1.969   .     S
Cu401  N415    2.010   .     S
Cu402  O422    1.969   .     S
Cu402  O418    1.964   .     S
Cu402  O424    1.968   .     S
Cu402  O420    1.964   .     S
Cu402  N416    2.010   .     S
O425   C426    1.411   .     S
C426   H427    1.109   .     S
C426   H429    1.113   .     S
C426   H428    1.113   .     S
O430   C431    1.411   .     S
C431   H433    1.109   .     S
C431   H434    1.113   .     S
C431   H432    1.113   .     S
O435   C436    1.410   .     S
C436   H438    1.114   .     S
C436   H439    1.109   .     S
C436   H437    1.113   .     S
O440   C441    1.410   .     S
C441   H442    1.112   .     S
C441   H443    1.114   .     S
C441   H666    1.109   .     S
C445   O494    1.290   .     A
C445   O491    1.290   .     A
C445   C454    1.449   .     S
C446   O492    1.290   .     A
C446   O493    1.290   .     A
C446   C453    1.449   .     S
C447   C472    1.408   .     A
C447   O509    1.384   .     S
C447   C1139   1.397   1_554 S
C448   O514    1.384   .     S
C448   C471    1.408   .     A
C448   C1140   1.397   .     S
C449   H481    1.083   .     S
C449   C454    1.401   .     A
C449   C599    1.383   1_455 S
C450   C453    1.401   .     A
C450   H482    1.083   .     S
C450   C526    1.383   .     S
C451   C453    1.401   .     A
C451   H483    1.083   .     S
C451   C523    1.383   .     S
C452   C454    1.401   .     A
C452   H484    1.083   .     S
C452   C598    1.383   1_455 S
C455   H485    1.082   .     S
C455   N490    1.367   .     A
C456   H486    1.082   .     S
C456   N489    1.367   .     A
C456   C13     1.416   1_565 S
C457   N490    1.367   .     A
C457   H487    1.082   .     S
C458   N489    1.367   .     A
C458   H488    1.082   .     S
C458   C11     1.416   1_565 S
C459   O495    1.291   .     A
C459   C464    1.460   .     S
C459   O498    1.293   .     A
C460   O497    1.293   .     A
C460   O496    1.292   .     A
C460   C463    1.460   .     S
C461   H477    1.084   .     S
C461   C471    1.394   .     A
C461   C463    1.398   .     A
C462   C472    1.394   .     A
C462   H478    1.084   .     S
C462   C464    1.398   .     A
C463   C465    1.410   .     A
C464   C466    1.410   .     A
C465   O499    1.385   .     S
C465   C467    1.404   .     A
C466   O504    1.385   .     S
C466   C468    1.404   .     A
C467   C473    1.403   .     A
C467   C469    1.414   .     A
C468   C470    1.414   .     A
C468   C474    1.403   .     A
C469   C471    1.413   .     A
C469   C1136   1.406   .     S
C470   C472    1.413   .     A
C470   C1135   1.406   1_554 S
C473   H479    1.083   .     S
C473   C1113   1.397   .     S
C474   H480    1.083   .     S
C474   C1114   1.397   1_554 S
Cu475  O491    1.964   .     S
Cu475  O493    1.964   .     S
Cu475  Cu476   2.675   .     S
Cu475  O497    1.968   .     S
Cu475  O495    1.969   .     S
Cu475  N489    2.010   .     S
Cu476  O496    1.969   .     S
Cu476  O492    1.964   .     S
Cu476  O498    1.968   .     S
Cu476  O494    1.964   .     S
Cu476  N490    2.010   .     S
O499   C500    1.411   .     S
C500   H501    1.109   .     S
C500   H503    1.113   .     S
C500   H502    1.113   .     S
O504   C505    1.411   .     S
C505   H507    1.109   .     S
C505   H508    1.113   .     S
C505   H506    1.113   .     S
O509   C510    1.410   .     S
C510   H512    1.114   .     S
C510   H513    1.109   .     S
C510   H511    1.113   .     S
O514   C515    1.410   .     S
C515   H516    1.112   .     S
C515   H517    1.114   .     S
C515   H74     1.109   1_565 S
C519   O568    1.290   .     A
C519   O565    1.290   .     A
C519   C528    1.449   .     S
C520   O566    1.290   .     A
C520   O567    1.290   .     A
C520   C527    1.449   .     S
C521   C546    1.408   .     A
C521   O583    1.384   .     S
C521   C1213   1.397   1_554 S
C522   O588    1.384   .     S
C522   C545    1.408   .     A
C522   C1214   1.397   .     S
C523   H555    1.083   .     S
C523   C528    1.401   .     A
C524   C527    1.401   .     A
C524   H556    1.083   .     S
C524   C600    1.383   .     S
C525   C527    1.401   .     A
C525   H557    1.083   .     S
C525   C597    1.383   .     S
C526   C528    1.401   .     A
C526   H558    1.083   .     S
C529   H559    1.082   .     S
C529   N564    1.367   .     A
C530   H560    1.082   .     S
C530   N563    1.367   .     A
C530   C87     1.416   1_565 S
C531   N564    1.367   .     A
C531   H561    1.082   .     S
C532   N563    1.367   .     A
C532   H562    1.082   .     S
C532   C85     1.416   1_565 S
C533   O569    1.291   .     A
C533   C538    1.460   .     S
C533   O572    1.293   .     A
C534   O571    1.293   .     A
C534   O570    1.292   .     A
C534   C537    1.460   .     S
C535   H551    1.084   .     S
C535   C545    1.394   .     A
C535   C537    1.398   .     A
C536   C546    1.394   .     A
C536   H552    1.084   .     S
C536   C538    1.398   .     A
C537   C539    1.410   .     A
C538   C540    1.410   .     A
C539   O573    1.385   .     S
C539   C541    1.404   .     A
C540   O578    1.385   .     S
C540   C542    1.404   .     A
C541   C547    1.403   .     A
C541   C543    1.414   .     A
C542   C544    1.414   .     A
C542   C548    1.403   .     A
C543   C545    1.413   .     A
C543   C1210   1.406   .     S
C544   C546    1.413   .     A
C544   C1209   1.406   1_554 S
C547   H553    1.083   .     S
C547   C1187   1.397   .     S
C548   H554    1.083   .     S
C548   C1188   1.397   1_554 S
Cu549  O565    1.964   .     S
Cu549  O567    1.964   .     S
Cu549  Cu550   2.675   .     S
Cu549  O571    1.968   .     S
Cu549  O569    1.969   .     S
Cu549  N563    2.010   .     S
Cu550  O570    1.969   .     S
Cu550  O566    1.964   .     S
Cu550  O572    1.968   .     S
Cu550  O568    1.964   .     S
Cu550  N564    2.010   .     S
O573   C574    1.411   .     S
C574   H575    1.109   .     S
C574   H577    1.113   .     S
C574   H576    1.113   .     S
O578   C579    1.411   .     S
C579   H581    1.109   .     S
C579   H582    1.113   .     S
C579   H580    1.113   .     S
O583   C584    1.410   .     S
C584   H586    1.114   .     S
C584   H587    1.109   .     S
C584   H585    1.113   .     S
O588   C589    1.410   .     S
C589   H590    1.112   .     S
C589   H591    1.114   .     S
C589   H148    1.109   1_565 S
C593   O642    1.290   .     A
C593   O639    1.290   .     A
C593   C602    1.449   .     S
C594   O640    1.290   .     A
C594   O641    1.290   .     A
C594   C601    1.449   .     S
C595   C620    1.408   .     A
C595   O657    1.384   .     S
C595   C1287   1.397   1_554 S
C596   O662    1.384   .     S
C596   C619    1.408   .     A
C596   C1288   1.397   .     S
C597   H629    1.083   .     S
C597   C602    1.401   .     A
C598   C601    1.401   .     A
C598   H630    1.083   .     S
C598   C452    1.383   1_655 S
C599   C601    1.401   .     A
C599   H631    1.083   .     S
C599   C449    1.383   1_655 S
C600   C602    1.401   .     A
C600   H632    1.083   .     S
C603   H633    1.082   .     S
C603   N638    1.367   .     A
C604   H634    1.082   .     S
C604   N637    1.367   .     A
C604   C161    1.416   1_565 S
C605   N638    1.367   .     A
C605   H635    1.082   .     S
C606   N637    1.367   .     A
C606   H636    1.082   .     S
C606   C159    1.416   1_565 S
C607   O643    1.291   .     A
C607   C612    1.460   .     S
C607   O646    1.293   .     A
C608   O645    1.293   .     A
C608   O644    1.292   .     A
C608   C611    1.460   .     S
C609   H625    1.084   .     S
C609   C619    1.394   .     A
C609   C611    1.398   .     A
C610   C620    1.394   .     A
C610   H626    1.084   .     S
C610   C612    1.398   .     A
C611   C613    1.410   .     A
C612   C614    1.410   .     A
C613   O647    1.385   .     S
C613   C615    1.404   .     A
C614   O652    1.385   .     S
C614   C616    1.404   .     A
C615   C621    1.403   .     A
C615   C617    1.414   .     A
C616   C618    1.414   .     A
C616   C622    1.403   .     A
C617   C619    1.413   .     A
C617   C1284   1.406   .     S
C618   C620    1.413   .     A
C618   C1283   1.406   1_554 S
C621   H627    1.083   .     S
C621   C1261   1.397   .     S
C622   H628    1.083   .     S
C622   C1262   1.397   1_554 S
Cu623  O639    1.964   .     S
Cu623  O641    1.964   .     S
Cu623  Cu624   2.675   .     S
Cu623  O645    1.968   .     S
Cu623  O643    1.969   .     S
Cu623  N637    2.010   .     S
Cu624  O644    1.969   .     S
Cu624  O640    1.964   .     S
Cu624  O646    1.968   .     S
Cu624  O642    1.964   .     S
Cu624  N638    2.010   .     S
O647   C648    1.411   .     S
C648   H649    1.109   .     S
C648   H651    1.113   .     S
C648   H650    1.113   .     S
O652   C653    1.411   .     S
C653   H655    1.109   .     S
C653   H656    1.113   .     S
C653   H654    1.113   .     S
O657   C658    1.410   .     S
C658   H660    1.114   .     S
C658   H661    1.109   .     S
C658   H659    1.113   .     S
O662   C663    1.410   .     S
C663   H664    1.112   .     S
C663   H665    1.114   .     S
C663   H222    1.109   1_565 S
C667   O716    1.290   .     A
C667   O713    1.290   .     A
C667   C676    1.449   .     S
C668   O714    1.290   .     A
C668   O715    1.290   .     A
C668   C675    1.449   .     S
C669   C694    1.408   .     A
C669   O731    1.384   .     S
C670   O736    1.384   .     S
C670   C693    1.408   .     A
C670   C30     1.397   1_556 S
C671   H703    1.083   .     S
C671   C676    1.401   .     A
C671   C821    1.383   1_455 S
C672   C675    1.401   .     A
C672   H704    1.083   .     S
C672   C748    1.383   .     S
C673   C675    1.401   .     A
C673   H705    1.083   .     S
C673   C745    1.383   .     S
C674   C676    1.401   .     A
C674   H706    1.083   .     S
C674   C820    1.383   1_455 S
C677   H707    1.082   .     S
C677   N712    1.367   .     A
C677   C1124   1.416   1_545 S
C678   H708    1.082   .     S
C678   N711    1.367   .     A
C678   C901    1.416   .     S
C679   N712    1.367   .     A
C679   H709    1.082   .     S
C679   C1122   1.416   1_545 S
C680   N711    1.367   .     A
C680   H710    1.082   .     S
C680   C899    1.416   .     S
C681   O717    1.291   .     A
C681   C686    1.460   .     S
C681   O720    1.293   .     A
C682   O719    1.293   .     A
C682   O718    1.292   .     A
C682   C685    1.460   .     S
C683   H699    1.084   .     S
C683   C693    1.394   .     A
C683   C685    1.398   .     A
C684   C694    1.394   .     A
C684   H700    1.084   .     S
C684   C686    1.398   .     A
C685   C687    1.410   .     A
C686   C688    1.410   .     A
C687   O721    1.385   .     S
C687   C689    1.404   .     A
C688   O726    1.385   .     S
C688   C690    1.404   .     A
C689   C695    1.403   .     A
C689   C691    1.414   .     A
C690   C692    1.414   .     A
C690   C696    1.403   .     A
C691   C693    1.413   .     A
C691   C26     1.406   1_556 S
C692   C694    1.413   .     A
C695   H701    1.083   .     S
C695   C3      1.397   1_556 S
C696   H702    1.083   .     S
Cu697  O713    1.964   .     S
Cu697  O715    1.964   .     S
Cu697  Cu698   2.675   .     S
Cu697  O719    1.968   .     S
Cu697  O717    1.969   .     S
Cu697  N711    2.010   .     S
Cu698  O718    1.969   .     S
Cu698  O714    1.964   .     S
Cu698  O720    1.968   .     S
Cu698  O716    1.964   .     S
Cu698  N712    2.010   .     S
O721   C722    1.411   .     S
C722   H723    1.109   .     S
C722   H725    1.113   .     S
C722   H724    1.113   .     S
O726   C727    1.411   .     S
C727   H729    1.109   .     S
C727   H730    1.113   .     S
C727   H728    1.113   .     S
O731   C732    1.410   .     S
C732   H734    1.114   .     S
C732   H735    1.109   .     S
C732   H733    1.113   .     S
O736   C737    1.410   .     S
C737   H738    1.112   .     S
C737   H739    1.114   .     S
C737   H962    1.109   .     S
H740   C1181   1.109   1_545 S
C741   O790    1.290   .     A
C741   O787    1.290   .     A
C741   C750    1.449   .     S
C742   O788    1.290   .     A
C742   O789    1.290   .     A
C742   C749    1.449   .     S
C743   C768    1.408   .     A
C743   O805    1.384   .     S
C744   O810    1.384   .     S
C744   C767    1.408   .     A
C744   C104    1.397   1_556 S
C745   H777    1.083   .     S
C745   C750    1.401   .     A
C746   C749    1.401   .     A
C746   H778    1.083   .     S
C746   C822    1.383   .     S
C747   C749    1.401   .     A
C747   H779    1.083   .     S
C747   C819    1.383   .     S
C748   C750    1.401   .     A
C748   H780    1.083   .     S
C751   H781    1.082   .     S
C751   N786    1.367   .     A
C751   C1198   1.416   1_545 S
C752   H782    1.082   .     S
C752   N785    1.367   .     A
C752   C975    1.416   .     S
C753   N786    1.367   .     A
C753   H783    1.082   .     S
C753   C1196   1.416   1_545 S
C754   N785    1.367   .     A
C754   H784    1.082   .     S
C754   C973    1.416   .     S
C755   O791    1.291   .     A
C755   C760    1.460   .     S
C755   O794    1.293   .     A
C756   O793    1.293   .     A
C756   O792    1.292   .     A
C756   C759    1.460   .     S
C757   H773    1.084   .     S
C757   C767    1.394   .     A
C757   C759    1.398   .     A
C758   C768    1.394   .     A
C758   H774    1.084   .     S
C758   C760    1.398   .     A
C759   C761    1.410   .     A
C760   C762    1.410   .     A
C761   O795    1.385   .     S
C761   C763    1.404   .     A
C762   O800    1.385   .     S
C762   C764    1.404   .     A
C763   C769    1.403   .     A
C763   C765    1.414   .     A
C764   C766    1.414   .     A
C764   C770    1.403   .     A
C765   C767    1.413   .     A
C765   C100    1.406   1_556 S
C766   C768    1.413   .     A
C769   H775    1.083   .     S
C769   C77     1.397   1_556 S
C770   H776    1.083   .     S
Cu771  O787    1.964   .     S
Cu771  O789    1.964   .     S
Cu771  Cu772   2.675   .     S
Cu771  O793    1.968   .     S
Cu771  O791    1.969   .     S
Cu771  N785    2.010   .     S
Cu772  O792    1.969   .     S
Cu772  O788    1.964   .     S
Cu772  O794    1.968   .     S
Cu772  O790    1.964   .     S
Cu772  N786    2.010   .     S
O795   C796    1.411   .     S
C796   H797    1.109   .     S
C796   H799    1.113   .     S
C796   H798    1.113   .     S
O800   C801    1.411   .     S
C801   H803    1.109   .     S
C801   H804    1.113   .     S
C801   H802    1.113   .     S
O805   C806    1.410   .     S
C806   H808    1.114   .     S
C806   H809    1.109   .     S
C806   H807    1.113   .     S
O810   C811    1.410   .     S
C811   H812    1.112   .     S
C811   H813    1.114   .     S
C811   H1036   1.109   .     S
H814   C1255   1.109   1_545 S
C815   O864    1.290   .     A
C815   O861    1.290   .     A
C815   C824    1.449   .     S
C816   O862    1.290   .     A
C816   O863    1.290   .     A
C816   C823    1.449   .     S
C817   C842    1.408   .     A
C817   O879    1.384   .     S
C818   O884    1.384   .     S
C818   C841    1.408   .     A
C818   C178    1.397   1_556 S
C819   H851    1.083   .     S
C819   C824    1.401   .     A
C820   C823    1.401   .     A
C820   H852    1.083   .     S
C820   C674    1.383   1_655 S
C821   C823    1.401   .     A
C821   H853    1.083   .     S
C821   C671    1.383   1_655 S
C822   C824    1.401   .     A
C822   H854    1.083   .     S
C825   H855    1.082   .     S
C825   N860    1.367   .     A
C825   C1272   1.416   1_545 S
C826   H856    1.082   .     S
C826   N859    1.367   .     A
C826   C1049   1.416   .     S
C827   N860    1.367   .     A
C827   H857    1.082   .     S
C827   C1270   1.416   1_545 S
C828   N859    1.367   .     A
C828   H858    1.082   .     S
C828   C1047   1.416   .     S
C829   O865    1.291   .     A
C829   C834    1.460   .     S
C829   O868    1.293   .     A
C830   O867    1.293   .     A
C830   O866    1.292   .     A
C830   C833    1.460   .     S
C831   H847    1.084   .     S
C831   C841    1.394   .     A
C831   C833    1.398   .     A
C832   C842    1.394   .     A
C832   H848    1.084   .     S
C832   C834    1.398   .     A
C833   C835    1.410   .     A
C834   C836    1.410   .     A
C835   O869    1.385   .     S
C835   C837    1.404   .     A
C836   O874    1.385   .     S
C836   C838    1.404   .     A
C837   C843    1.403   .     A
C837   C839    1.414   .     A
C838   C840    1.414   .     A
C838   C844    1.403   .     A
C839   C841    1.413   .     A
C839   C174    1.406   1_556 S
C840   C842    1.413   .     A
C843   H849    1.083   .     S
C843   C151    1.397   1_556 S
C844   H850    1.083   .     S
Cu845  O861    1.964   .     S
Cu845  O863    1.964   .     S
Cu845  Cu846   2.675   .     S
Cu845  O867    1.968   .     S
Cu845  O865    1.969   .     S
Cu845  N859    2.010   .     S
Cu846  O866    1.969   .     S
Cu846  O862    1.964   .     S
Cu846  O868    1.968   .     S
Cu846  O864    1.964   .     S
Cu846  N860    2.010   .     S
O869   C870    1.411   .     S
C870   H871    1.109   .     S
C870   H873    1.113   .     S
C870   H872    1.113   .     S
O874   C875    1.411   .     S
C875   H877    1.109   .     S
C875   H878    1.113   .     S
C875   H876    1.113   .     S
O879   C880    1.410   .     S
C880   H882    1.114   .     S
C880   H883    1.109   .     S
C880   H881    1.113   .     S
O884   C885    1.410   .     S
C885   H886    1.112   .     S
C885   H887    1.114   .     S
C885   H1110   1.109   .     S
H888   C1329   1.109   1_545 S
C889   O938    1.290   .     A
C889   O935    1.290   .     A
C889   C898    1.449   .     S
C890   O936    1.290   .     A
C890   O937    1.290   .     A
C890   C897    1.449   .     S
C891   C916    1.408   .     A
C891   O953    1.384   .     S
C892   O958    1.384   .     S
C892   C915    1.408   .     A
C892   C252    1.397   1_556 S
C893   H925    1.083   .     S
C893   C898    1.401   .     A
C893   C1043   1.383   1_455 S
C894   C897    1.401   .     A
C894   H926    1.083   .     S
C894   C970    1.383   .     S
C895   C897    1.401   .     A
C895   H927    1.083   .     S
C895   C967    1.383   .     S
C896   C898    1.401   .     A
C896   H928    1.083   .     S
C896   C1042   1.383   1_455 S
C899   H929    1.082   .     S
C899   N934    1.367   .     A
C900   H930    1.082   .     S
C900   N933    1.367   .     A
C900   C1123   1.416   .     S
C901   N934    1.367   .     A
C901   H931    1.082   .     S
C902   N933    1.367   .     A
C902   H932    1.082   .     S
C902   C1121   1.416   .     S
C903   O939    1.291   .     A
C903   C908    1.460   .     S
C903   O942    1.293   .     A
C904   O941    1.293   .     A
C904   O940    1.292   .     A
C904   C907    1.460   .     S
C905   H921    1.084   .     S
C905   C915    1.394   .     A
C905   C907    1.398   .     A
C906   C916    1.394   .     A
C906   H922    1.084   .     S
C906   C908    1.398   .     A
C907   C909    1.410   .     A
C908   C910    1.410   .     A
C909   O943    1.385   .     S
C909   C911    1.404   .     A
C910   O948    1.385   .     S
C910   C912    1.404   .     A
C911   C917    1.403   .     A
C911   C913    1.414   .     A
C912   C914    1.414   .     A
C912   C918    1.403   .     A
C913   C915    1.413   .     A
C913   C248    1.406   1_556 S
C914   C916    1.413   .     A
C917   H923    1.083   .     S
C917   C225    1.397   1_556 S
C918   H924    1.083   .     S
Cu919  O935    1.964   .     S
Cu919  O937    1.964   .     S
Cu919  Cu920   2.675   .     S
Cu919  O941    1.968   .     S
Cu919  O939    1.969   .     S
Cu919  N933    2.010   .     S
Cu920  O940    1.969   .     S
Cu920  O936    1.964   .     S
Cu920  O942    1.968   .     S
Cu920  O938    1.964   .     S
Cu920  N934    2.010   .     S
O943   C944    1.411   .     S
C944   H945    1.109   .     S
C944   H947    1.113   .     S
C944   H946    1.113   .     S
O948   C949    1.411   .     S
C949   H951    1.109   .     S
C949   H952    1.113   .     S
C949   H950    1.113   .     S
O953   C954    1.410   .     S
C954   H956    1.114   .     S
C954   H957    1.109   .     S
C954   H955    1.113   .     S
O958   C959    1.410   .     S
C959   H960    1.112   .     S
C959   H961    1.114   .     S
C959   H1184   1.109   .     S
C963   O1012   1.290   .     A
C963   O1009   1.290   .     A
C963   C972    1.449   .     S
C964   O1010   1.290   .     A
C964   O1011   1.290   .     A
C964   C971    1.449   .     S
C965   C990    1.408   .     A
C965   O1027   1.384   .     S
C966   O1032   1.384   .     S
C966   C989    1.408   .     A
C966   C326    1.397   1_556 S
C967   H999    1.083   .     S
C967   C972    1.401   .     A
C968   C971    1.401   .     A
C968   H1000   1.083   .     S
C968   C1044   1.383   .     S
C969   C971    1.401   .     A
C969   H1001   1.083   .     S
C969   C1041   1.383   .     S
C970   C972    1.401   .     A
C970   H1002   1.083   .     S
C973   H1003   1.082   .     S
C973   N1008   1.367   .     A
C974   H1004   1.082   .     S
C974   N1007   1.367   .     A
C974   C1197   1.416   .     S
C975   N1008   1.367   .     A
C975   H1005   1.082   .     S
C976   N1007   1.367   .     A
C976   H1006   1.082   .     S
C976   C1195   1.416   .     S
C977   O1013   1.291   .     A
C977   C982    1.460   .     S
C977   O1016   1.293   .     A
C978   O1015   1.293   .     A
C978   O1014   1.292   .     A
C978   C981    1.460   .     S
C979   H995    1.084   .     S
C979   C989    1.394   .     A
C979   C981    1.398   .     A
C980   C990    1.394   .     A
C980   H996    1.084   .     S
C980   C982    1.398   .     A
C981   C983    1.410   .     A
C982   C984    1.410   .     A
C983   O1017   1.385   .     S
C983   C985    1.404   .     A
C984   O1022   1.385   .     S
C984   C986    1.404   .     A
C985   C991    1.403   .     A
C985   C987    1.414   .     A
C986   C988    1.414   .     A
C986   C992    1.403   .     A
C987   C989    1.413   .     A
C987   C322    1.406   1_556 S
C988   C990    1.413   .     A
C991   H997    1.083   .     S
C991   C299    1.397   1_556 S
C992   H998    1.083   .     S
Cu993  O1009   1.964   .     S
Cu993  O1011   1.964   .     S
Cu993  Cu994   2.675   .     S
Cu993  O1015   1.968   .     S
Cu993  O1013   1.969   .     S
Cu993  N1007   2.010   .     S
Cu994  O1014   1.969   .     S
Cu994  O1010   1.964   .     S
Cu994  O1016   1.968   .     S
Cu994  O1012   1.964   .     S
Cu994  N1008   2.010   .     S
O1017  C1018   1.411   .     S
C1018  H1019   1.109   .     S
C1018  H1021   1.113   .     S
C1018  H1020   1.113   .     S
O1022  C1023   1.411   .     S
C1023  H1025   1.109   .     S
C1023  H1026   1.113   .     S
C1023  H1024   1.113   .     S
O1027  C1028   1.410   .     S
C1028  H1030   1.114   .     S
C1028  H1031   1.109   .     S
C1028  H1029   1.113   .     S
O1032  C1033   1.410   .     S
C1033  H1034   1.112   .     S
C1033  H1035   1.114   .     S
C1033  H1258   1.109   .     S
C1037  O1086   1.290   .     A
C1037  O1083   1.290   .     A
C1037  C1046   1.449   .     S
C1038  O1084   1.290   .     A
C1038  O1085   1.290   .     A
C1038  C1045   1.449   .     S
C1039  C1064   1.408   .     A
C1039  O1101   1.384   .     S
C1040  O1106   1.384   .     S
C1040  C1063   1.408   .     A
C1040  C400    1.397   1_556 S
C1041  H1073   1.083   .     S
C1041  C1046   1.401   .     A
C1042  C1045   1.401   .     A
C1042  H1074   1.083   .     S
C1042  C896    1.383   1_655 S
C1043  C1045   1.401   .     A
C1043  H1075   1.083   .     S
C1043  C893    1.383   1_655 S
C1044  C1046   1.401   .     A
C1044  H1076   1.083   .     S
C1047  H1077   1.082   .     S
C1047  N1082   1.367   .     A
C1048  H1078   1.082   .     S
C1048  N1081   1.367   .     A
C1048  C1271   1.416   .     S
C1049  N1082   1.367   .     A
C1049  H1079   1.082   .     S
C1050  N1081   1.367   .     A
C1050  H1080   1.082   .     S
C1050  C1269   1.416   .     S
C1051  O1087   1.291   .     A
C1051  C1056   1.460   .     S
C1051  O1090   1.293   .     A
C1052  O1089   1.293   .     A
C1052  O1088   1.292   .     A
C1052  C1055   1.460   .     S
C1053  H1069   1.084   .     S
C1053  C1063   1.394   .     A
C1053  C1055   1.398   .     A
C1054  C1064   1.394   .     A
C1054  H1070   1.084   .     S
C1054  C1056   1.398   .     A
C1055  C1057   1.410   .     A
C1056  C1058   1.410   .     A
C1057  O1091   1.385   .     S
C1057  C1059   1.404   .     A
C1058  O1096   1.385   .     S
C1058  C1060   1.404   .     A
C1059  C1065   1.403   .     A
C1059  C1061   1.414   .     A
C1060  C1062   1.414   .     A
C1060  C1066   1.403   .     A
C1061  C1063   1.413   .     A
C1061  C396    1.406   1_556 S
C1062  C1064   1.413   .     A
C1065  H1071   1.083   .     S
C1065  C373    1.397   1_556 S
C1066  H1072   1.083   .     S
Cu1067 O1083   1.964   .     S
Cu1067 O1085   1.964   .     S
Cu1067 Cu1068  2.675   .     S
Cu1067 O1089   1.968   .     S
Cu1067 O1087   1.969   .     S
Cu1067 N1081   2.010   .     S
Cu1068 O1088   1.969   .     S
Cu1068 O1084   1.964   .     S
Cu1068 O1090   1.968   .     S
Cu1068 O1086   1.964   .     S
Cu1068 N1082   2.010   .     S
O1091  C1092   1.411   .     S
C1092  H1093   1.109   .     S
C1092  H1095   1.113   .     S
C1092  H1094   1.113   .     S
O1096  C1097   1.411   .     S
C1097  H1099   1.109   .     S
C1097  H1100   1.113   .     S
C1097  H1098   1.113   .     S
O1101  C1102   1.410   .     S
C1102  H1104   1.114   .     S
C1102  H1105   1.109   .     S
C1102  H1103   1.113   .     S
O1106  C1107   1.410   .     S
C1107  H1108   1.112   .     S
C1107  H1109   1.114   .     S
C1107  H1332   1.109   .     S
C1111  O1160   1.290   .     A
C1111  O1157   1.290   .     A
C1111  C1120   1.449   .     S
C1112  O1158   1.290   .     A
C1112  O1159   1.290   .     A
C1112  C1119   1.449   .     S
C1113  C1138   1.408   .     A
C1113  O1175   1.384   .     S
C1114  O1180   1.384   .     S
C1114  C1137   1.408   .     A
C1114  C474    1.397   1_556 S
C1115  H1147   1.083   .     S
C1115  C1120   1.401   .     A
C1115  C1265   1.383   1_455 S
C1116  C1119   1.401   .     A
C1116  H1148   1.083   .     S
C1116  C1192   1.383   .     S
C1117  C1119   1.401   .     A
C1117  H1149   1.083   .     S
C1117  C1189   1.383   .     S
C1118  C1120   1.401   .     A
C1118  H1150   1.083   .     S
C1118  C1264   1.383   1_455 S
C1121  H1151   1.082   .     S
C1121  N1156   1.367   .     A
C1122  H1152   1.082   .     S
C1122  N1155   1.367   .     A
C1122  C679    1.416   1_565 S
C1123  N1156   1.367   .     A
C1123  H1153   1.082   .     S
C1124  N1155   1.367   .     A
C1124  H1154   1.082   .     S
C1124  C677    1.416   1_565 S
C1125  O1161   1.291   .     A
C1125  C1130   1.460   .     S
C1125  O1164   1.293   .     A
C1126  O1163   1.293   .     A
C1126  O1162   1.292   .     A
C1126  C1129   1.460   .     S
C1127  H1143   1.084   .     S
C1127  C1137   1.394   .     A
C1127  C1129   1.398   .     A
C1128  C1138   1.394   .     A
C1128  H1144   1.084   .     S
C1128  C1130   1.398   .     A
C1129  C1131   1.410   .     A
C1130  C1132   1.410   .     A
C1131  O1165   1.385   .     S
C1131  C1133   1.404   .     A
C1132  O1170   1.385   .     S
C1132  C1134   1.404   .     A
C1133  C1139   1.403   .     A
C1133  C1135   1.414   .     A
C1134  C1136   1.414   .     A
C1134  C1140   1.403   .     A
C1135  C1137   1.413   .     A
C1135  C470    1.406   1_556 S
C1136  C1138   1.413   .     A
C1139  H1145   1.083   .     S
C1139  C447    1.397   1_556 S
C1140  H1146   1.083   .     S
Cu1141 O1157   1.964   .     S
Cu1141 O1159   1.964   .     S
Cu1141 Cu1142  2.675   .     S
Cu1141 O1163   1.968   .     S
Cu1141 O1161   1.969   .     S
Cu1141 N1155   2.010   .     S
Cu1142 O1162   1.969   .     S
Cu1142 O1158   1.964   .     S
Cu1142 O1164   1.968   .     S
Cu1142 O1160   1.964   .     S
Cu1142 N1156   2.010   .     S
O1165  C1166   1.411   .     S
C1166  H1167   1.109   .     S
C1166  H1169   1.113   .     S
C1166  H1168   1.113   .     S
O1170  C1171   1.411   .     S
C1171  H1173   1.109   .     S
C1171  H1174   1.113   .     S
C1171  H1172   1.113   .     S
O1175  C1176   1.410   .     S
C1176  H1178   1.114   .     S
C1176  H1179   1.109   .     S
C1176  H1177   1.113   .     S
O1180  C1181   1.410   .     S
C1181  H1182   1.112   .     S
C1181  H1183   1.114   .     S
C1181  H740    1.109   1_565 S
C1185  O1234   1.290   .     A
C1185  O1231   1.290   .     A
C1185  C1194   1.449   .     S
C1186  O1232   1.290   .     A
C1186  O1233   1.290   .     A
C1186  C1193   1.449   .     S
C1187  C1212   1.408   .     A
C1187  O1249   1.384   .     S
C1188  O1254   1.384   .     S
C1188  C1211   1.408   .     A
C1188  C548    1.397   1_556 S
C1189  H1221   1.083   .     S
C1189  C1194   1.401   .     A
C1190  C1193   1.401   .     A
C1190  H1222   1.083   .     S
C1190  C1266   1.383   .     S
C1191  C1193   1.401   .     A
C1191  H1223   1.083   .     S
C1191  C1263   1.383   .     S
C1192  C1194   1.401   .     A
C1192  H1224   1.083   .     S
C1195  H1225   1.082   .     S
C1195  N1230   1.367   .     A
C1196  H1226   1.082   .     S
C1196  N1229   1.367   .     A
C1196  C753    1.416   1_565 S
C1197  N1230   1.367   .     A
C1197  H1227   1.082   .     S
C1198  N1229   1.367   .     A
C1198  H1228   1.082   .     S
C1198  C751    1.416   1_565 S
C1199  O1235   1.291   .     A
C1199  C1204   1.460   .     S
C1199  O1238   1.293   .     A
C1200  O1237   1.293   .     A
C1200  O1236   1.292   .     A
C1200  C1203   1.460   .     S
C1201  H1217   1.084   .     S
C1201  C1211   1.394   .     A
C1201  C1203   1.398   .     A
C1202  C1212   1.394   .     A
C1202  H1218   1.084   .     S
C1202  C1204   1.398   .     A
C1203  C1205   1.410   .     A
C1204  C1206   1.410   .     A
C1205  O1239   1.385   .     S
C1205  C1207   1.404   .     A
C1206  O1244   1.385   .     S
C1206  C1208   1.404   .     A
C1207  C1213   1.403   .     A
C1207  C1209   1.414   .     A
C1208  C1210   1.414   .     A
C1208  C1214   1.403   .     A
C1209  C1211   1.413   .     A
C1209  C544    1.406   1_556 S
C1210  C1212   1.413   .     A
C1213  H1219   1.083   .     S
C1213  C521    1.397   1_556 S
C1214  H1220   1.083   .     S
Cu1215 O1231   1.964   .     S
Cu1215 O1233   1.964   .     S
Cu1215 Cu1216  2.675   .     S
Cu1215 O1237   1.968   .     S
Cu1215 O1235   1.969   .     S
Cu1215 N1229   2.010   .     S
Cu1216 O1236   1.969   .     S
Cu1216 O1232   1.964   .     S
Cu1216 O1238   1.968   .     S
Cu1216 O1234   1.964   .     S
Cu1216 N1230   2.010   .     S
O1239  C1240   1.411   .     S
C1240  H1241   1.109   .     S
C1240  H1243   1.113   .     S
C1240  H1242   1.113   .     S
O1244  C1245   1.411   .     S
C1245  H1247   1.109   .     S
C1245  H1248   1.113   .     S
C1245  H1246   1.113   .     S
O1249  C1250   1.410   .     S
C1250  H1252   1.114   .     S
C1250  H1253   1.109   .     S
C1250  H1251   1.113   .     S
O1254  C1255   1.410   .     S
C1255  H1256   1.112   .     S
C1255  H1257   1.114   .     S
C1255  H814    1.109   1_565 S
C1259  O1308   1.290   .     A
C1259  O1305   1.290   .     A
C1259  C1268   1.449   .     S
C1260  O1306   1.290   .     A
C1260  O1307   1.290   .     A
C1260  C1267   1.449   .     S
C1261  C1286   1.408   .     A
C1261  O1323   1.384   .     S
C1262  O1328   1.384   .     S
C1262  C1285   1.408   .     A
C1262  C622    1.397   1_556 S
C1263  H1295   1.083   .     S
C1263  C1268   1.401   .     A
C1264  C1267   1.401   .     A
C1264  H1296   1.083   .     S
C1264  C1118   1.383   1_655 S
C1265  C1267   1.401   .     A
C1265  H1297   1.083   .     S
C1265  C1115   1.383   1_655 S
C1266  C1268   1.401   .     A
C1266  H1298   1.083   .     S
C1269  H1299   1.082   .     S
C1269  N1304   1.367   .     A
C1270  H1300   1.082   .     S
C1270  N1303   1.367   .     A
C1270  C827    1.416   1_565 S
C1271  N1304   1.367   .     A
C1271  H1301   1.082   .     S
C1272  N1303   1.367   .     A
C1272  H1302   1.082   .     S
C1272  C825    1.416   1_565 S
C1273  O1309   1.291   .     A
C1273  C1278   1.460   .     S
C1273  O1312   1.293   .     A
C1274  O1311   1.293   .     A
C1274  O1310   1.292   .     A
C1274  C1277   1.460   .     S
C1275  H1291   1.084   .     S
C1275  C1285   1.394   .     A
C1275  C1277   1.398   .     A
C1276  C1286   1.394   .     A
C1276  H1292   1.084   .     S
C1276  C1278   1.398   .     A
C1277  C1279   1.410   .     A
C1278  C1280   1.410   .     A
C1279  O1313   1.385   .     S
C1279  C1281   1.404   .     A
C1280  O1318   1.385   .     S
C1280  C1282   1.404   .     A
C1281  C1287   1.403   .     A
C1281  C1283   1.414   .     A
C1282  C1284   1.414   .     A
C1282  C1288   1.403   .     A
C1283  C1285   1.413   .     A
C1283  C618    1.406   1_556 S
C1284  C1286   1.413   .     A
C1287  H1293   1.083   .     S
C1287  C595    1.397   1_556 S
C1288  H1294   1.083   .     S
Cu1289 O1305   1.964   .     S
Cu1289 O1307   1.964   .     S
Cu1289 Cu1290  2.675   .     S
Cu1289 O1311   1.968   .     S
Cu1289 O1309   1.969   .     S
Cu1289 N1303   2.010   .     S
Cu1290 O1310   1.969   .     S
Cu1290 O1306   1.964   .     S
Cu1290 O1312   1.968   .     S
Cu1290 O1308   1.964   .     S
Cu1290 N1304   2.010   .     S
O1313  C1314   1.411   .     S
C1314  H1315   1.109   .     S
C1314  H1317   1.113   .     S
C1314  H1316   1.113   .     S
O1318  C1319   1.411   .     S
C1319  H1321   1.109   .     S
C1319  H1322   1.113   .     S
C1319  H1320   1.113   .     S
O1323  C1324   1.410   .     S
C1324  H1326   1.114   .     S
C1324  H1327   1.109   .     S
C1324  H1325   1.113   .     S
O1328  C1329   1.410   .     S
C1329  H1330   1.112   .     S
C1329  H1331   1.114   .     S
C1329  H888    1.109   1_565 S
