data_str_m2_o1_o18_pcu_sym.141
_audit_creation_date              2020-01-03
_audit_creation_method            'Materials Studio'
_symmetry_space_group_name_H-M    'P1'
_symmetry_Int_Tables_number       1
_symmetry_cell_setting            triclinic
loop_
_symmetry_equiv_pos_as_xyz
  x,y,z
_cell_length_a                    28.7354
_cell_length_b                    32.4021
_cell_length_c                    30.9237
_cell_angle_alpha                 88.6813
_cell_angle_beta                  74.4919
_cell_angle_gamma                 89.7745
loop_
_atom_site_label
_atom_site_type_symbol
_atom_site_fract_x
_atom_site_fract_y
_atom_site_fract_z
_atom_site_U_iso_or_equiv
_atom_site_adp_type
_atom_site_occupancy
C1     C     0.00005   0.08750   0.25004   0.00000  Uiso   1.00
C2     C     0.33328   0.24583   0.24997   0.00000  Uiso   1.00
C3     C     0.19177   0.19129   0.04436   0.00000  Uiso   1.00
C4     C     0.13871   0.15936   0.45259   0.00000  Uiso   1.00
C5     C     0.24004   0.19666   0.02164   0.00000  Uiso   1.00
C6     C     0.09029   0.15476   0.47513   0.00000  Uiso   1.00
C7     C     0.29572   0.02122   0.28021   0.00000  Uiso   1.00
C8     C     0.03761   0.31210   0.21980   0.00000  Uiso   1.00
C9     C     0.29486   0.31116   0.27933   0.00000  Uiso   1.00
C10    C     0.03848   0.02216   0.22070   0.00000  Uiso   1.00
C11    C     0.33325   0.29052   0.25007   0.00000  Uiso   1.00
C12    C     0.00008   0.04281   0.24994   0.00000  Uiso   1.00
C13    C     0.18378   0.14144   0.27921   0.00000  Uiso   1.00
C14    C     0.14954   0.19191   0.22081   0.00000  Uiso   1.00
C15    C     0.13383   0.14140   0.27917   0.00000  Uiso   1.00
C16    C     0.19951   0.19194   0.22084   0.00000  Uiso   1.00
C17    C     0.30612   0.16706   0.33602   0.00000  Uiso   1.00
C18    C     0.02722   0.16667   0.16394   0.00000  Uiso   1.00
C19    C     0.29090   0.17095   0.38495   0.00000  Uiso   1.00
C20    C     0.04230   0.16597   0.11470   0.00000  Uiso   1.00
C21    C     0.30555   0.19340   0.45408   0.00000  Uiso   1.00
C22    C     0.02570   0.15342   0.04358   0.00000  Uiso   1.00
C23    C     0.32265   0.18523   0.40858   0.00000  Uiso   1.00
C24    C     0.00950   0.15698   0.08996   0.00000  Uiso   1.00
C25    C     0.24240   0.16385   0.40744   0.00000  Uiso   1.00
C26    C     0.09099   0.17278   0.09248   0.00000  Uiso   1.00
C27    C     0.22372   0.17346   0.45288   0.00000  Uiso   1.00
C28    C     0.10815   0.17036   0.04557   0.00000  Uiso   1.00
C29    C     0.25650   0.18771   0.47635   0.00000  Uiso   1.00
C30    C     0.07465   0.15963   0.02131   0.00000  Uiso   1.00
C31    C     0.17361   0.16952   0.47549   0.00000  Uiso   1.00
C32    C     0.15772   0.17696   0.02239   0.00000  Uiso   1.00
Cu33   Cu    0.04689   0.16667   0.25000   0.00000  Uiso   1.00
Cu34   Cu    0.28645   0.16666   0.25000   0.00000  Uiso   1.00
H35    H     0.26473   0.20796   0.03977   0.00000  Uiso   1.00
H36    H     0.06495   0.14681   0.45621   0.00000  Uiso   1.00
H37    H     0.11510   0.17868   0.11287   0.00000  Uiso   1.00
H38    H     0.22000   0.15077   0.38841   0.00000  Uiso   1.00
H39    H     0.30504   0.15151   0.10652   0.00000  Uiso   1.00
H40    H     0.02694   0.19112   0.39169   0.00000  Uiso   1.00
H41    H     0.33050   0.20505   0.47169   0.00000  Uiso   1.00
H42    H     0.00003   0.14509   0.02519   0.00000  Uiso   1.00
H43    H     0.18228   0.19990   0.07902   0.00000  Uiso   1.00
H44    H     0.14720   0.15559   0.41685   0.00000  Uiso   1.00
N45    N     0.11736   0.16668   0.24999   0.00000  Uiso   1.00
N46    N     0.21597   0.16666   0.25001   0.00000  Uiso   1.00
O47    O     0.03958   0.10655   0.25000   0.00000  Uiso   1.00
O48    O     0.29375   0.22678   0.25000   0.00000  Uiso   1.00
O49    O     0.29372   0.10654   0.25000   0.00000  Uiso   1.00
O50    O     0.03961   0.22679   0.24999   0.00000  Uiso   1.00
O51    O     0.01852   0.16668   0.31491   0.00000  Uiso   1.00
O52    O     0.31481   0.16666   0.18508   0.00000  Uiso   1.00
O53    O     0.27267   0.16667   0.31492   0.00000  Uiso   1.00
O54    O     0.06067   0.16667   0.18508   0.00000  Uiso   1.00
O55    O     0.26201   0.04330   0.31150   0.00000  Uiso   1.00
H56    H     0.24965   0.02584   0.33884   0.00000  Uiso   1.00
O57    O     0.07131   0.29003   0.18851   0.00000  Uiso   1.00
H58    H     0.08369   0.30749   0.16117   0.00000  Uiso   1.00
O59    O     0.25750   0.28818   0.30659   0.00000  Uiso   1.00
H60    H     0.22740   0.30457   0.31210   0.00000  Uiso   1.00
O61    O     0.07585   0.04514   0.19345   0.00000  Uiso   1.00
H62    H     0.10595   0.02874   0.18795   0.00000  Uiso   1.00
O63    O     0.20145   0.11632   0.30780   0.00000  Uiso   1.00
H64    H     0.17489   0.10235   0.33020   0.00000  Uiso   1.00
O65    O     0.13186   0.21706   0.19225   0.00000  Uiso   1.00
H66    H     0.15838   0.23125   0.17003   0.00000  Uiso   1.00
Cl67   Cl    0.09295   0.10795   0.31643   0.00000  Uiso   1.00
Cl68   Cl    0.24039   0.22537   0.18355   0.00000  Uiso   1.00
C69    C     0.33338   0.08750   0.25004   0.00000  Uiso   1.00
C70    C     0.66662   0.24583   0.24997   0.00000  Uiso   1.00
C71    C     0.52511   0.19129   0.04436   0.00000  Uiso   1.00
C72    C     0.47205   0.15936   0.45259   0.00000  Uiso   1.00
C73    C     0.57338   0.19666   0.02164   0.00000  Uiso   1.00
C74    C     0.42363   0.15476   0.47513   0.00000  Uiso   1.00
C75    C     0.62905   0.02122   0.28021   0.00000  Uiso   1.00
C76    C     0.37094   0.31210   0.21980   0.00000  Uiso   1.00
C77    C     0.62819   0.31116   0.27933   0.00000  Uiso   1.00
C78    C     0.37181   0.02216   0.22070   0.00000  Uiso   1.00
C79    C     0.66658   0.29052   0.25007   0.00000  Uiso   1.00
C80    C     0.33341   0.04281   0.24994   0.00000  Uiso   1.00
C81    C     0.51712   0.14144   0.27921   0.00000  Uiso   1.00
C82    C     0.48287   0.19191   0.22081   0.00000  Uiso   1.00
C83    C     0.46716   0.14140   0.27917   0.00000  Uiso   1.00
C84    C     0.53284   0.19194   0.22084   0.00000  Uiso   1.00
C85    C     0.63945   0.16706   0.33602   0.00000  Uiso   1.00
C86    C     0.36055   0.16667   0.16394   0.00000  Uiso   1.00
C87    C     0.62424   0.17095   0.38495   0.00000  Uiso   1.00
C88    C     0.37563   0.16597   0.11470   0.00000  Uiso   1.00
C89    C     0.63888   0.19340   0.45408   0.00000  Uiso   1.00
C90    C     0.35903   0.15342   0.04358   0.00000  Uiso   1.00
C91    C     0.65598   0.18523   0.40858   0.00000  Uiso   1.00
C92    C     0.34284   0.15698   0.08996   0.00000  Uiso   1.00
C93    C     0.57573   0.16385   0.40744   0.00000  Uiso   1.00
C94    C     0.42432   0.17278   0.09248   0.00000  Uiso   1.00
C95    C     0.55705   0.17346   0.45288   0.00000  Uiso   1.00
C96    C     0.44148   0.17036   0.04557   0.00000  Uiso   1.00
C97    C     0.58983   0.18771   0.47635   0.00000  Uiso   1.00
C98    C     0.40798   0.15963   0.02131   0.00000  Uiso   1.00
C99    C     0.50694   0.16952   0.47549   0.00000  Uiso   1.00
C100   C     0.49105   0.17696   0.02239   0.00000  Uiso   1.00
Cu101  Cu    0.38022   0.16667   0.25000   0.00000  Uiso   1.00
Cu102  Cu    0.61978   0.16666   0.25000   0.00000  Uiso   1.00
H103   H     0.59807   0.20796   0.03977   0.00000  Uiso   1.00
H104   H     0.39828   0.14681   0.45621   0.00000  Uiso   1.00
H105   H     0.44843   0.17868   0.11287   0.00000  Uiso   1.00
H106   H     0.55334   0.15077   0.38841   0.00000  Uiso   1.00
H107   H     0.63837   0.15151   0.10652   0.00000  Uiso   1.00
H108   H     0.36028   0.19112   0.39169   0.00000  Uiso   1.00
H109   H     0.66384   0.20505   0.47169   0.00000  Uiso   1.00
H110   H     0.33336   0.14509   0.02519   0.00000  Uiso   1.00
H111   H     0.51561   0.19990   0.07902   0.00000  Uiso   1.00
H112   H     0.48054   0.15559   0.41685   0.00000  Uiso   1.00
N113   N     0.45069   0.16668   0.24999   0.00000  Uiso   1.00
N114   N     0.54931   0.16666   0.25001   0.00000  Uiso   1.00
O115   O     0.37291   0.10655   0.25000   0.00000  Uiso   1.00
O116   O     0.62709   0.22678   0.25000   0.00000  Uiso   1.00
O117   O     0.62706   0.10654   0.25000   0.00000  Uiso   1.00
O118   O     0.37294   0.22679   0.24999   0.00000  Uiso   1.00
O119   O     0.35186   0.16668   0.31491   0.00000  Uiso   1.00
O120   O     0.64814   0.16666   0.18508   0.00000  Uiso   1.00
O121   O     0.60600   0.16667   0.31492   0.00000  Uiso   1.00
O122   O     0.39400   0.16667   0.18508   0.00000  Uiso   1.00
O123   O     0.59535   0.04330   0.31150   0.00000  Uiso   1.00
H124   H     0.58298   0.02584   0.33884   0.00000  Uiso   1.00
O125   O     0.40464   0.29003   0.18851   0.00000  Uiso   1.00
H126   H     0.41702   0.30749   0.16117   0.00000  Uiso   1.00
O127   O     0.59083   0.28818   0.30659   0.00000  Uiso   1.00
H128   H     0.56073   0.30457   0.31210   0.00000  Uiso   1.00
O129   O     0.40919   0.04514   0.19345   0.00000  Uiso   1.00
H130   H     0.43929   0.02874   0.18795   0.00000  Uiso   1.00
O131   O     0.53479   0.11632   0.30780   0.00000  Uiso   1.00
H132   H     0.50823   0.10235   0.33020   0.00000  Uiso   1.00
O133   O     0.46519   0.21706   0.19225   0.00000  Uiso   1.00
H134   H     0.49171   0.23125   0.17003   0.00000  Uiso   1.00
Cl135  Cl    0.42628   0.10795   0.31643   0.00000  Uiso   1.00
Cl136  Cl    0.57373   0.22537   0.18355   0.00000  Uiso   1.00
C137   C     0.66671   0.08750   0.25004   0.00000  Uiso   1.00
C138   C     0.99995   0.24583   0.24997   0.00000  Uiso   1.00
C139   C     0.85844   0.19129   0.04436   0.00000  Uiso   1.00
C140   C     0.80538   0.15936   0.45259   0.00000  Uiso   1.00
C141   C     0.90671   0.19666   0.02164   0.00000  Uiso   1.00
C142   C     0.75696   0.15476   0.47513   0.00000  Uiso   1.00
C143   C     0.96239   0.02122   0.28021   0.00000  Uiso   1.00
C144   C     0.70428   0.31210   0.21980   0.00000  Uiso   1.00
C145   C     0.96153   0.31116   0.27933   0.00000  Uiso   1.00
C146   C     0.70515   0.02216   0.22070   0.00000  Uiso   1.00
C147   C     0.99992   0.29052   0.25007   0.00000  Uiso   1.00
C148   C     0.66675   0.04281   0.24994   0.00000  Uiso   1.00
C149   C     0.85045   0.14144   0.27921   0.00000  Uiso   1.00
C150   C     0.81621   0.19191   0.22081   0.00000  Uiso   1.00
C151   C     0.80049   0.14140   0.27917   0.00000  Uiso   1.00
C152   C     0.86617   0.19194   0.22084   0.00000  Uiso   1.00
C153   C     0.97279   0.16706   0.33602   0.00000  Uiso   1.00
C154   C     0.69389   0.16667   0.16394   0.00000  Uiso   1.00
C155   C     0.95757   0.17095   0.38495   0.00000  Uiso   1.00
C156   C     0.70897   0.16597   0.11470   0.00000  Uiso   1.00
C157   C     0.97221   0.19340   0.45408   0.00000  Uiso   1.00
C158   C     0.69236   0.15342   0.04358   0.00000  Uiso   1.00
C159   C     0.98932   0.18523   0.40858   0.00000  Uiso   1.00
C160   C     0.67617   0.15698   0.08996   0.00000  Uiso   1.00
C161   C     0.90906   0.16385   0.40744   0.00000  Uiso   1.00
C162   C     0.75765   0.17278   0.09248   0.00000  Uiso   1.00
C163   C     0.89039   0.17346   0.45288   0.00000  Uiso   1.00
C164   C     0.77481   0.17036   0.04557   0.00000  Uiso   1.00
C165   C     0.92317   0.18771   0.47635   0.00000  Uiso   1.00
C166   C     0.74132   0.15963   0.02131   0.00000  Uiso   1.00
C167   C     0.84027   0.16952   0.47549   0.00000  Uiso   1.00
C168   C     0.82439   0.17696   0.02239   0.00000  Uiso   1.00
Cu169  Cu    0.71355   0.16667   0.25000   0.00000  Uiso   1.00
Cu170  Cu    0.95311   0.16666   0.25000   0.00000  Uiso   1.00
H171   H     0.93140   0.20796   0.03977   0.00000  Uiso   1.00
H172   H     0.73162   0.14681   0.45621   0.00000  Uiso   1.00
H173   H     0.78176   0.17868   0.11287   0.00000  Uiso   1.00
H174   H     0.88667   0.15077   0.38841   0.00000  Uiso   1.00
H175   H     0.97171   0.15151   0.10652   0.00000  Uiso   1.00
H176   H     0.69361   0.19112   0.39169   0.00000  Uiso   1.00
H177   H     0.99717   0.20505   0.47169   0.00000  Uiso   1.00
H178   H     0.66670   0.14509   0.02519   0.00000  Uiso   1.00
H179   H     0.84895   0.19990   0.07902   0.00000  Uiso   1.00
H180   H     0.81387   0.15559   0.41685   0.00000  Uiso   1.00
N181   N     0.78403   0.16668   0.24999   0.00000  Uiso   1.00
N182   N     0.88264   0.16666   0.25001   0.00000  Uiso   1.00
O183   O     0.70625   0.10655   0.25000   0.00000  Uiso   1.00
O184   O     0.96042   0.22678   0.25000   0.00000  Uiso   1.00
O185   O     0.96039   0.10654   0.25000   0.00000  Uiso   1.00
O186   O     0.70628   0.22679   0.24999   0.00000  Uiso   1.00
O187   O     0.68519   0.16668   0.31491   0.00000  Uiso   1.00
O188   O     0.98148   0.16666   0.18508   0.00000  Uiso   1.00
O189   O     0.93933   0.16667   0.31492   0.00000  Uiso   1.00
O190   O     0.72733   0.16667   0.18508   0.00000  Uiso   1.00
O191   O     0.92868   0.04330   0.31150   0.00000  Uiso   1.00
H192   H     0.91631   0.02584   0.33884   0.00000  Uiso   1.00
O193   O     0.73797   0.29003   0.18851   0.00000  Uiso   1.00
H194   H     0.75035   0.30749   0.16117   0.00000  Uiso   1.00
O195   O     0.92417   0.28818   0.30659   0.00000  Uiso   1.00
H196   H     0.89406   0.30457   0.31210   0.00000  Uiso   1.00
O197   O     0.74252   0.04514   0.19345   0.00000  Uiso   1.00
H198   H     0.77262   0.02874   0.18795   0.00000  Uiso   1.00
O199   O     0.86812   0.11632   0.30780   0.00000  Uiso   1.00
H200   H     0.84156   0.10235   0.33020   0.00000  Uiso   1.00
O201   O     0.79852   0.21706   0.19225   0.00000  Uiso   1.00
H202   H     0.82505   0.23125   0.17003   0.00000  Uiso   1.00
Cl203  Cl    0.75962   0.10795   0.31643   0.00000  Uiso   1.00
Cl204  Cl    0.90706   0.22537   0.18355   0.00000  Uiso   1.00
C205   C     0.00005   0.42083   0.25004   0.00000  Uiso   1.00
C206   C     0.33328   0.57917   0.24997   0.00000  Uiso   1.00
C207   C     0.19177   0.52462   0.04436   0.00000  Uiso   1.00
C208   C     0.13871   0.49270   0.45259   0.00000  Uiso   1.00
C209   C     0.24004   0.52999   0.02164   0.00000  Uiso   1.00
C210   C     0.09029   0.48810   0.47513   0.00000  Uiso   1.00
C211   C     0.29572   0.35456   0.28021   0.00000  Uiso   1.00
C212   C     0.03761   0.64544   0.21980   0.00000  Uiso   1.00
C213   C     0.29486   0.64450   0.27933   0.00000  Uiso   1.00
C214   C     0.03848   0.35550   0.22070   0.00000  Uiso   1.00
C215   C     0.33325   0.62386   0.25007   0.00000  Uiso   1.00
C216   C     0.00008   0.37614   0.24994   0.00000  Uiso   1.00
C217   C     0.18378   0.47478   0.27921   0.00000  Uiso   1.00
C218   C     0.14954   0.52525   0.22081   0.00000  Uiso   1.00
C219   C     0.13383   0.47474   0.27917   0.00000  Uiso   1.00
C220   C     0.19951   0.52528   0.22084   0.00000  Uiso   1.00
C221   C     0.30612   0.50039   0.33602   0.00000  Uiso   1.00
C222   C     0.02722   0.50000   0.16394   0.00000  Uiso   1.00
C223   C     0.29090   0.50429   0.38495   0.00000  Uiso   1.00
C224   C     0.04230   0.49930   0.11470   0.00000  Uiso   1.00
C225   C     0.30555   0.52673   0.45408   0.00000  Uiso   1.00
C226   C     0.02570   0.48676   0.04358   0.00000  Uiso   1.00
C227   C     0.32265   0.51856   0.40858   0.00000  Uiso   1.00
C228   C     0.00950   0.49031   0.08996   0.00000  Uiso   1.00
C229   C     0.24240   0.49718   0.40744   0.00000  Uiso   1.00
C230   C     0.09099   0.50612   0.09248   0.00000  Uiso   1.00
C231   C     0.22372   0.50680   0.45288   0.00000  Uiso   1.00
C232   C     0.10815   0.50369   0.04557   0.00000  Uiso   1.00
C233   C     0.25650   0.52104   0.47635   0.00000  Uiso   1.00
C234   C     0.07465   0.49296   0.02131   0.00000  Uiso   1.00
C235   C     0.17361   0.50285   0.47549   0.00000  Uiso   1.00
C236   C     0.15772   0.51029   0.02239   0.00000  Uiso   1.00
Cu237  Cu    0.04689   0.50001   0.25000   0.00000  Uiso   1.00
Cu238  Cu    0.28645   0.49999   0.25000   0.00000  Uiso   1.00
H239   H     0.26473   0.54129   0.03977   0.00000  Uiso   1.00
H240   H     0.06495   0.48014   0.45621   0.00000  Uiso   1.00
H241   H     0.11510   0.51201   0.11287   0.00000  Uiso   1.00
H242   H     0.22000   0.48410   0.38841   0.00000  Uiso   1.00
H243   H     0.30504   0.48484   0.10652   0.00000  Uiso   1.00
H244   H     0.02694   0.52445   0.39169   0.00000  Uiso   1.00
H245   H     0.33050   0.53839   0.47169   0.00000  Uiso   1.00
H246   H     0.00003   0.47842   0.02519   0.00000  Uiso   1.00
H247   H     0.18228   0.53323   0.07902   0.00000  Uiso   1.00
H248   H     0.14720   0.48892   0.41685   0.00000  Uiso   1.00
N249   N     0.11736   0.50001   0.24999   0.00000  Uiso   1.00
N250   N     0.21597   0.49999   0.25001   0.00000  Uiso   1.00
O251   O     0.03958   0.43989   0.25000   0.00000  Uiso   1.00
O252   O     0.29375   0.56011   0.25000   0.00000  Uiso   1.00
O253   O     0.29372   0.43988   0.25000   0.00000  Uiso   1.00
O254   O     0.03961   0.56012   0.24999   0.00000  Uiso   1.00
O255   O     0.01852   0.50001   0.31491   0.00000  Uiso   1.00
O256   O     0.31481   0.49999   0.18508   0.00000  Uiso   1.00
O257   O     0.27267   0.50000   0.31492   0.00000  Uiso   1.00
O258   O     0.06067   0.50000   0.18508   0.00000  Uiso   1.00
O259   O     0.26201   0.37664   0.31150   0.00000  Uiso   1.00
H260   H     0.24965   0.35917   0.33884   0.00000  Uiso   1.00
O261   O     0.07131   0.62336   0.18851   0.00000  Uiso   1.00
H262   H     0.08369   0.64083   0.16117   0.00000  Uiso   1.00
O263   O     0.25750   0.62152   0.30659   0.00000  Uiso   1.00
H264   H     0.22740   0.63790   0.31210   0.00000  Uiso   1.00
O265   O     0.07585   0.37847   0.19345   0.00000  Uiso   1.00
H266   H     0.10595   0.36208   0.18795   0.00000  Uiso   1.00
O267   O     0.20145   0.44965   0.30780   0.00000  Uiso   1.00
H268   H     0.17489   0.43569   0.33020   0.00000  Uiso   1.00
O269   O     0.13186   0.55039   0.19225   0.00000  Uiso   1.00
H270   H     0.15838   0.56459   0.17003   0.00000  Uiso   1.00
Cl271  Cl    0.09295   0.44128   0.31643   0.00000  Uiso   1.00
Cl272  Cl    0.24039   0.55871   0.18355   0.00000  Uiso   1.00
C273   C     0.33338   0.42083   0.25004   0.00000  Uiso   1.00
C274   C     0.66662   0.57917   0.24997   0.00000  Uiso   1.00
C275   C     0.52511   0.52462   0.04436   0.00000  Uiso   1.00
C276   C     0.47205   0.49270   0.45259   0.00000  Uiso   1.00
C277   C     0.57338   0.52999   0.02164   0.00000  Uiso   1.00
C278   C     0.42363   0.48810   0.47513   0.00000  Uiso   1.00
C279   C     0.62905   0.35456   0.28021   0.00000  Uiso   1.00
C280   C     0.37094   0.64544   0.21980   0.00000  Uiso   1.00
C281   C     0.62819   0.64450   0.27933   0.00000  Uiso   1.00
C282   C     0.37181   0.35550   0.22070   0.00000  Uiso   1.00
C283   C     0.66658   0.62386   0.25007   0.00000  Uiso   1.00
C284   C     0.33341   0.37614   0.24994   0.00000  Uiso   1.00
C285   C     0.51712   0.47478   0.27921   0.00000  Uiso   1.00
C286   C     0.48287   0.52525   0.22081   0.00000  Uiso   1.00
C287   C     0.46716   0.47474   0.27917   0.00000  Uiso   1.00
C288   C     0.53284   0.52528   0.22084   0.00000  Uiso   1.00
C289   C     0.63945   0.50039   0.33602   0.00000  Uiso   1.00
C290   C     0.36055   0.50000   0.16394   0.00000  Uiso   1.00
C291   C     0.62424   0.50429   0.38495   0.00000  Uiso   1.00
C292   C     0.37563   0.49930   0.11470   0.00000  Uiso   1.00
C293   C     0.63888   0.52673   0.45408   0.00000  Uiso   1.00
C294   C     0.35903   0.48676   0.04358   0.00000  Uiso   1.00
C295   C     0.65598   0.51856   0.40858   0.00000  Uiso   1.00
C296   C     0.34284   0.49031   0.08996   0.00000  Uiso   1.00
C297   C     0.57573   0.49718   0.40744   0.00000  Uiso   1.00
C298   C     0.42432   0.50612   0.09248   0.00000  Uiso   1.00
C299   C     0.55705   0.50680   0.45288   0.00000  Uiso   1.00
C300   C     0.44148   0.50369   0.04557   0.00000  Uiso   1.00
C301   C     0.58983   0.52104   0.47635   0.00000  Uiso   1.00
C302   C     0.40798   0.49296   0.02131   0.00000  Uiso   1.00
C303   C     0.50694   0.50285   0.47549   0.00000  Uiso   1.00
C304   C     0.49105   0.51029   0.02239   0.00000  Uiso   1.00
Cu305  Cu    0.38022   0.50001   0.25000   0.00000  Uiso   1.00
Cu306  Cu    0.61978   0.49999   0.25000   0.00000  Uiso   1.00
H307   H     0.59807   0.54129   0.03977   0.00000  Uiso   1.00
H308   H     0.39828   0.48014   0.45621   0.00000  Uiso   1.00
H309   H     0.44843   0.51201   0.11287   0.00000  Uiso   1.00
H310   H     0.55334   0.48410   0.38841   0.00000  Uiso   1.00
H311   H     0.63837   0.48484   0.10652   0.00000  Uiso   1.00
H312   H     0.36028   0.52445   0.39169   0.00000  Uiso   1.00
H313   H     0.66384   0.53839   0.47169   0.00000  Uiso   1.00
H314   H     0.33336   0.47842   0.02519   0.00000  Uiso   1.00
H315   H     0.51561   0.53323   0.07902   0.00000  Uiso   1.00
H316   H     0.48054   0.48892   0.41685   0.00000  Uiso   1.00
N317   N     0.45069   0.50001   0.24999   0.00000  Uiso   1.00
N318   N     0.54931   0.49999   0.25001   0.00000  Uiso   1.00
O319   O     0.37291   0.43989   0.25000   0.00000  Uiso   1.00
O320   O     0.62709   0.56011   0.25000   0.00000  Uiso   1.00
O321   O     0.62706   0.43988   0.25000   0.00000  Uiso   1.00
O322   O     0.37294   0.56012   0.24999   0.00000  Uiso   1.00
O323   O     0.35186   0.50001   0.31491   0.00000  Uiso   1.00
O324   O     0.64814   0.49999   0.18508   0.00000  Uiso   1.00
O325   O     0.60600   0.50000   0.31492   0.00000  Uiso   1.00
O326   O     0.39400   0.50000   0.18508   0.00000  Uiso   1.00
O327   O     0.59535   0.37664   0.31150   0.00000  Uiso   1.00
H328   H     0.58298   0.35917   0.33884   0.00000  Uiso   1.00
O329   O     0.40464   0.62336   0.18851   0.00000  Uiso   1.00
H330   H     0.41702   0.64083   0.16117   0.00000  Uiso   1.00
O331   O     0.59083   0.62152   0.30659   0.00000  Uiso   1.00
H332   H     0.56073   0.63790   0.31210   0.00000  Uiso   1.00
O333   O     0.40919   0.37847   0.19345   0.00000  Uiso   1.00
H334   H     0.43929   0.36208   0.18795   0.00000  Uiso   1.00
O335   O     0.53479   0.44965   0.30780   0.00000  Uiso   1.00
H336   H     0.50823   0.43569   0.33020   0.00000  Uiso   1.00
O337   O     0.46519   0.55039   0.19225   0.00000  Uiso   1.00
H338   H     0.49171   0.56459   0.17003   0.00000  Uiso   1.00
Cl339  Cl    0.42628   0.44128   0.31643   0.00000  Uiso   1.00
Cl340  Cl    0.57373   0.55871   0.18355   0.00000  Uiso   1.00
C341   C     0.66671   0.42083   0.25004   0.00000  Uiso   1.00
C342   C     0.99995   0.57917   0.24997   0.00000  Uiso   1.00
C343   C     0.85844   0.52462   0.04436   0.00000  Uiso   1.00
C344   C     0.80538   0.49270   0.45259   0.00000  Uiso   1.00
C345   C     0.90671   0.52999   0.02164   0.00000  Uiso   1.00
C346   C     0.75696   0.48810   0.47513   0.00000  Uiso   1.00
C347   C     0.96239   0.35456   0.28021   0.00000  Uiso   1.00
C348   C     0.70428   0.64544   0.21980   0.00000  Uiso   1.00
C349   C     0.96153   0.64450   0.27933   0.00000  Uiso   1.00
C350   C     0.70515   0.35550   0.22070   0.00000  Uiso   1.00
C351   C     0.99992   0.62386   0.25007   0.00000  Uiso   1.00
C352   C     0.66675   0.37614   0.24994   0.00000  Uiso   1.00
C353   C     0.85045   0.47478   0.27921   0.00000  Uiso   1.00
C354   C     0.81621   0.52525   0.22081   0.00000  Uiso   1.00
C355   C     0.80049   0.47474   0.27917   0.00000  Uiso   1.00
C356   C     0.86617   0.52528   0.22084   0.00000  Uiso   1.00
C357   C     0.97279   0.50039   0.33602   0.00000  Uiso   1.00
C358   C     0.69389   0.50000   0.16394   0.00000  Uiso   1.00
C359   C     0.95757   0.50429   0.38495   0.00000  Uiso   1.00
C360   C     0.70897   0.49930   0.11470   0.00000  Uiso   1.00
C361   C     0.97221   0.52673   0.45408   0.00000  Uiso   1.00
C362   C     0.69236   0.48676   0.04358   0.00000  Uiso   1.00
C363   C     0.98932   0.51856   0.40858   0.00000  Uiso   1.00
C364   C     0.67617   0.49031   0.08996   0.00000  Uiso   1.00
C365   C     0.90906   0.49718   0.40744   0.00000  Uiso   1.00
C366   C     0.75765   0.50612   0.09248   0.00000  Uiso   1.00
C367   C     0.89039   0.50680   0.45288   0.00000  Uiso   1.00
C368   C     0.77481   0.50369   0.04557   0.00000  Uiso   1.00
C369   C     0.92317   0.52104   0.47635   0.00000  Uiso   1.00
C370   C     0.74132   0.49296   0.02131   0.00000  Uiso   1.00
C371   C     0.84027   0.50285   0.47549   0.00000  Uiso   1.00
C372   C     0.82439   0.51029   0.02239   0.00000  Uiso   1.00
Cu373  Cu    0.71355   0.50001   0.25000   0.00000  Uiso   1.00
Cu374  Cu    0.95311   0.49999   0.25000   0.00000  Uiso   1.00
H375   H     0.93140   0.54129   0.03977   0.00000  Uiso   1.00
H376   H     0.73162   0.48014   0.45621   0.00000  Uiso   1.00
H377   H     0.78176   0.51201   0.11287   0.00000  Uiso   1.00
H378   H     0.88667   0.48410   0.38841   0.00000  Uiso   1.00
H379   H     0.97171   0.48484   0.10652   0.00000  Uiso   1.00
H380   H     0.69361   0.52445   0.39169   0.00000  Uiso   1.00
H381   H     0.99717   0.53839   0.47169   0.00000  Uiso   1.00
H382   H     0.66670   0.47842   0.02519   0.00000  Uiso   1.00
H383   H     0.84895   0.53323   0.07902   0.00000  Uiso   1.00
H384   H     0.81387   0.48892   0.41685   0.00000  Uiso   1.00
N385   N     0.78403   0.50001   0.24999   0.00000  Uiso   1.00
N386   N     0.88264   0.49999   0.25001   0.00000  Uiso   1.00
O387   O     0.70625   0.43989   0.25000   0.00000  Uiso   1.00
O388   O     0.96042   0.56011   0.25000   0.00000  Uiso   1.00
O389   O     0.96039   0.43988   0.25000   0.00000  Uiso   1.00
O390   O     0.70628   0.56012   0.24999   0.00000  Uiso   1.00
O391   O     0.68519   0.50001   0.31491   0.00000  Uiso   1.00
O392   O     0.98148   0.49999   0.18508   0.00000  Uiso   1.00
O393   O     0.93933   0.50000   0.31492   0.00000  Uiso   1.00
O394   O     0.72733   0.50000   0.18508   0.00000  Uiso   1.00
O395   O     0.92868   0.37664   0.31150   0.00000  Uiso   1.00
H396   H     0.91631   0.35917   0.33884   0.00000  Uiso   1.00
O397   O     0.73797   0.62336   0.18851   0.00000  Uiso   1.00
H398   H     0.75035   0.64083   0.16117   0.00000  Uiso   1.00
O399   O     0.92417   0.62152   0.30659   0.00000  Uiso   1.00
H400   H     0.89406   0.63790   0.31210   0.00000  Uiso   1.00
O401   O     0.74252   0.37847   0.19345   0.00000  Uiso   1.00
H402   H     0.77262   0.36208   0.18795   0.00000  Uiso   1.00
O403   O     0.86812   0.44965   0.30780   0.00000  Uiso   1.00
H404   H     0.84156   0.43569   0.33020   0.00000  Uiso   1.00
O405   O     0.79852   0.55039   0.19225   0.00000  Uiso   1.00
H406   H     0.82505   0.56459   0.17003   0.00000  Uiso   1.00
Cl407  Cl    0.75962   0.44128   0.31643   0.00000  Uiso   1.00
Cl408  Cl    0.90706   0.55871   0.18355   0.00000  Uiso   1.00
C409   C     0.00005   0.75416   0.25004   0.00000  Uiso   1.00
C410   C     0.33328   0.91250   0.24997   0.00000  Uiso   1.00
C411   C     0.19177   0.85796   0.04436   0.00000  Uiso   1.00
C412   C     0.13871   0.82603   0.45259   0.00000  Uiso   1.00
C413   C     0.24004   0.86332   0.02164   0.00000  Uiso   1.00
C414   C     0.09029   0.82143   0.47513   0.00000  Uiso   1.00
C415   C     0.29572   0.68789   0.28021   0.00000  Uiso   1.00
C416   C     0.03761   0.97877   0.21980   0.00000  Uiso   1.00
C417   C     0.29486   0.97783   0.27933   0.00000  Uiso   1.00
C418   C     0.03848   0.68883   0.22070   0.00000  Uiso   1.00
C419   C     0.33325   0.95719   0.25007   0.00000  Uiso   1.00
C420   C     0.00008   0.70947   0.24994   0.00000  Uiso   1.00
C421   C     0.18378   0.80811   0.27921   0.00000  Uiso   1.00
C422   C     0.14954   0.85858   0.22081   0.00000  Uiso   1.00
C423   C     0.13383   0.80807   0.27917   0.00000  Uiso   1.00
C424   C     0.19951   0.85861   0.22084   0.00000  Uiso   1.00
C425   C     0.30612   0.83373   0.33602   0.00000  Uiso   1.00
C426   C     0.02722   0.83333   0.16394   0.00000  Uiso   1.00
C427   C     0.29090   0.83762   0.38495   0.00000  Uiso   1.00
C428   C     0.04230   0.83264   0.11470   0.00000  Uiso   1.00
C429   C     0.30555   0.86007   0.45408   0.00000  Uiso   1.00
C430   C     0.02570   0.82009   0.04358   0.00000  Uiso   1.00
C431   C     0.32265   0.85190   0.40858   0.00000  Uiso   1.00
C432   C     0.00950   0.82364   0.08996   0.00000  Uiso   1.00
C433   C     0.24240   0.83052   0.40744   0.00000  Uiso   1.00
C434   C     0.09099   0.83945   0.09248   0.00000  Uiso   1.00
C435   C     0.22372   0.84013   0.45288   0.00000  Uiso   1.00
C436   C     0.10815   0.83703   0.04557   0.00000  Uiso   1.00
C437   C     0.25650   0.85438   0.47635   0.00000  Uiso   1.00
C438   C     0.07465   0.82629   0.02131   0.00000  Uiso   1.00
C439   C     0.17361   0.83619   0.47549   0.00000  Uiso   1.00
C440   C     0.15772   0.84362   0.02239   0.00000  Uiso   1.00
Cu441  Cu    0.04689   0.83334   0.25000   0.00000  Uiso   1.00
Cu442  Cu    0.28645   0.83333   0.25000   0.00000  Uiso   1.00
H443   H     0.26473   0.87462   0.03977   0.00000  Uiso   1.00
H444   H     0.06495   0.81348   0.45621   0.00000  Uiso   1.00
H445   H     0.11510   0.84534   0.11287   0.00000  Uiso   1.00
H446   H     0.22000   0.81744   0.38841   0.00000  Uiso   1.00
H447   H     0.30504   0.81817   0.10652   0.00000  Uiso   1.00
H448   H     0.02694   0.85778   0.39169   0.00000  Uiso   1.00
H449   H     0.33050   0.87172   0.47169   0.00000  Uiso   1.00
H450   H     0.00003   0.81175   0.02519   0.00000  Uiso   1.00
H451   H     0.18228   0.86657   0.07902   0.00000  Uiso   1.00
H452   H     0.14720   0.82225   0.41685   0.00000  Uiso   1.00
N453   N     0.11736   0.83334   0.24999   0.00000  Uiso   1.00
N454   N     0.21597   0.83332   0.25001   0.00000  Uiso   1.00
O455   O     0.03958   0.77322   0.25000   0.00000  Uiso   1.00
O456   O     0.29375   0.89345   0.25000   0.00000  Uiso   1.00
O457   O     0.29372   0.77321   0.25000   0.00000  Uiso   1.00
O458   O     0.03961   0.89346   0.24999   0.00000  Uiso   1.00
O459   O     0.01852   0.83334   0.31491   0.00000  Uiso   1.00
O460   O     0.31481   0.83332   0.18508   0.00000  Uiso   1.00
O461   O     0.27267   0.83333   0.31492   0.00000  Uiso   1.00
O462   O     0.06067   0.83333   0.18508   0.00000  Uiso   1.00
O463   O     0.26201   0.70997   0.31150   0.00000  Uiso   1.00
H464   H     0.24965   0.69251   0.33884   0.00000  Uiso   1.00
O465   O     0.07131   0.95669   0.18851   0.00000  Uiso   1.00
H466   H     0.08369   0.97416   0.16117   0.00000  Uiso   1.00
O467   O     0.25750   0.95485   0.30659   0.00000  Uiso   1.00
H468   H     0.22740   0.97124   0.31210   0.00000  Uiso   1.00
O469   O     0.07585   0.71181   0.19345   0.00000  Uiso   1.00
H470   H     0.10595   0.69541   0.18795   0.00000  Uiso   1.00
O471   O     0.20145   0.78299   0.30780   0.00000  Uiso   1.00
H472   H     0.17489   0.76902   0.33020   0.00000  Uiso   1.00
O473   O     0.13186   0.88372   0.19225   0.00000  Uiso   1.00
H474   H     0.15838   0.89792   0.17003   0.00000  Uiso   1.00
Cl475  Cl    0.09295   0.77461   0.31643   0.00000  Uiso   1.00
Cl476  Cl    0.24039   0.89204   0.18355   0.00000  Uiso   1.00
C477   C     0.33338   0.75416   0.25004   0.00000  Uiso   1.00
C478   C     0.66662   0.91250   0.24997   0.00000  Uiso   1.00
C479   C     0.52511   0.85796   0.04436   0.00000  Uiso   1.00
C480   C     0.47205   0.82603   0.45259   0.00000  Uiso   1.00
C481   C     0.57338   0.86332   0.02164   0.00000  Uiso   1.00
C482   C     0.42363   0.82143   0.47513   0.00000  Uiso   1.00
C483   C     0.62905   0.68789   0.28021   0.00000  Uiso   1.00
C484   C     0.37094   0.97877   0.21980   0.00000  Uiso   1.00
C485   C     0.62819   0.97783   0.27933   0.00000  Uiso   1.00
C486   C     0.37181   0.68883   0.22070   0.00000  Uiso   1.00
C487   C     0.66658   0.95719   0.25007   0.00000  Uiso   1.00
C488   C     0.33341   0.70947   0.24994   0.00000  Uiso   1.00
C489   C     0.51712   0.80811   0.27921   0.00000  Uiso   1.00
C490   C     0.48287   0.85858   0.22081   0.00000  Uiso   1.00
C491   C     0.46716   0.80807   0.27917   0.00000  Uiso   1.00
C492   C     0.53284   0.85861   0.22084   0.00000  Uiso   1.00
C493   C     0.63945   0.83373   0.33602   0.00000  Uiso   1.00
C494   C     0.36055   0.83333   0.16394   0.00000  Uiso   1.00
C495   C     0.62424   0.83762   0.38495   0.00000  Uiso   1.00
C496   C     0.37563   0.83264   0.11470   0.00000  Uiso   1.00
C497   C     0.63888   0.86007   0.45408   0.00000  Uiso   1.00
C498   C     0.35903   0.82009   0.04358   0.00000  Uiso   1.00
C499   C     0.65598   0.85190   0.40858   0.00000  Uiso   1.00
C500   C     0.34284   0.82364   0.08996   0.00000  Uiso   1.00
C501   C     0.57573   0.83052   0.40744   0.00000  Uiso   1.00
C502   C     0.42432   0.83945   0.09248   0.00000  Uiso   1.00
C503   C     0.55705   0.84013   0.45288   0.00000  Uiso   1.00
C504   C     0.44148   0.83703   0.04557   0.00000  Uiso   1.00
C505   C     0.58983   0.85438   0.47635   0.00000  Uiso   1.00
C506   C     0.40798   0.82629   0.02131   0.00000  Uiso   1.00
C507   C     0.50694   0.83619   0.47549   0.00000  Uiso   1.00
C508   C     0.49105   0.84362   0.02239   0.00000  Uiso   1.00
Cu509  Cu    0.38022   0.83334   0.25000   0.00000  Uiso   1.00
Cu510  Cu    0.61978   0.83333   0.25000   0.00000  Uiso   1.00
H511   H     0.59807   0.87462   0.03977   0.00000  Uiso   1.00
H512   H     0.39828   0.81348   0.45621   0.00000  Uiso   1.00
H513   H     0.44843   0.84534   0.11287   0.00000  Uiso   1.00
H514   H     0.55334   0.81744   0.38841   0.00000  Uiso   1.00
H515   H     0.63837   0.81817   0.10652   0.00000  Uiso   1.00
H516   H     0.36028   0.85778   0.39169   0.00000  Uiso   1.00
H517   H     0.66384   0.87172   0.47169   0.00000  Uiso   1.00
H518   H     0.33336   0.81175   0.02519   0.00000  Uiso   1.00
H519   H     0.51561   0.86657   0.07902   0.00000  Uiso   1.00
H520   H     0.48054   0.82225   0.41685   0.00000  Uiso   1.00
N521   N     0.45069   0.83334   0.24999   0.00000  Uiso   1.00
N522   N     0.54931   0.83332   0.25001   0.00000  Uiso   1.00
O523   O     0.37291   0.77322   0.25000   0.00000  Uiso   1.00
O524   O     0.62709   0.89345   0.25000   0.00000  Uiso   1.00
O525   O     0.62706   0.77321   0.25000   0.00000  Uiso   1.00
O526   O     0.37294   0.89346   0.24999   0.00000  Uiso   1.00
O527   O     0.35186   0.83334   0.31491   0.00000  Uiso   1.00
O528   O     0.64814   0.83332   0.18508   0.00000  Uiso   1.00
O529   O     0.60600   0.83333   0.31492   0.00000  Uiso   1.00
O530   O     0.39400   0.83333   0.18508   0.00000  Uiso   1.00
O531   O     0.59535   0.70997   0.31150   0.00000  Uiso   1.00
H532   H     0.58298   0.69251   0.33884   0.00000  Uiso   1.00
O533   O     0.40464   0.95669   0.18851   0.00000  Uiso   1.00
H534   H     0.41702   0.97416   0.16117   0.00000  Uiso   1.00
O535   O     0.59083   0.95485   0.30659   0.00000  Uiso   1.00
H536   H     0.56073   0.97124   0.31210   0.00000  Uiso   1.00
O537   O     0.40919   0.71181   0.19345   0.00000  Uiso   1.00
H538   H     0.43929   0.69541   0.18795   0.00000  Uiso   1.00
O539   O     0.53479   0.78299   0.30780   0.00000  Uiso   1.00
H540   H     0.50823   0.76902   0.33020   0.00000  Uiso   1.00
O541   O     0.46519   0.88372   0.19225   0.00000  Uiso   1.00
H542   H     0.49171   0.89792   0.17003   0.00000  Uiso   1.00
Cl543  Cl    0.42628   0.77461   0.31643   0.00000  Uiso   1.00
Cl544  Cl    0.57373   0.89204   0.18355   0.00000  Uiso   1.00
C545   C     0.66671   0.75416   0.25004   0.00000  Uiso   1.00
C546   C     0.99995   0.91250   0.24997   0.00000  Uiso   1.00
C547   C     0.85844   0.85796   0.04436   0.00000  Uiso   1.00
C548   C     0.80538   0.82603   0.45259   0.00000  Uiso   1.00
C549   C     0.90671   0.86332   0.02164   0.00000  Uiso   1.00
C550   C     0.75696   0.82143   0.47513   0.00000  Uiso   1.00
C551   C     0.96239   0.68789   0.28021   0.00000  Uiso   1.00
C552   C     0.70428   0.97877   0.21980   0.00000  Uiso   1.00
C553   C     0.96153   0.97783   0.27933   0.00000  Uiso   1.00
C554   C     0.70515   0.68883   0.22070   0.00000  Uiso   1.00
C555   C     0.99992   0.95719   0.25007   0.00000  Uiso   1.00
C556   C     0.66675   0.70947   0.24994   0.00000  Uiso   1.00
C557   C     0.85045   0.80811   0.27921   0.00000  Uiso   1.00
C558   C     0.81621   0.85858   0.22081   0.00000  Uiso   1.00
C559   C     0.80049   0.80807   0.27917   0.00000  Uiso   1.00
C560   C     0.86617   0.85861   0.22084   0.00000  Uiso   1.00
C561   C     0.97279   0.83373   0.33602   0.00000  Uiso   1.00
C562   C     0.69389   0.83333   0.16394   0.00000  Uiso   1.00
C563   C     0.95757   0.83762   0.38495   0.00000  Uiso   1.00
C564   C     0.70897   0.83264   0.11470   0.00000  Uiso   1.00
C565   C     0.97221   0.86007   0.45408   0.00000  Uiso   1.00
C566   C     0.69236   0.82009   0.04358   0.00000  Uiso   1.00
C567   C     0.98932   0.85190   0.40858   0.00000  Uiso   1.00
C568   C     0.67617   0.82364   0.08996   0.00000  Uiso   1.00
C569   C     0.90906   0.83052   0.40744   0.00000  Uiso   1.00
C570   C     0.75765   0.83945   0.09248   0.00000  Uiso   1.00
C571   C     0.89039   0.84013   0.45288   0.00000  Uiso   1.00
C572   C     0.77481   0.83703   0.04557   0.00000  Uiso   1.00
C573   C     0.92317   0.85438   0.47635   0.00000  Uiso   1.00
C574   C     0.74132   0.82629   0.02131   0.00000  Uiso   1.00
C575   C     0.84027   0.83619   0.47549   0.00000  Uiso   1.00
C576   C     0.82439   0.84362   0.02239   0.00000  Uiso   1.00
Cu577  Cu    0.71355   0.83334   0.25000   0.00000  Uiso   1.00
Cu578  Cu    0.95311   0.83333   0.25000   0.00000  Uiso   1.00
H579   H     0.93140   0.87462   0.03977   0.00000  Uiso   1.00
H580   H     0.73162   0.81348   0.45621   0.00000  Uiso   1.00
H581   H     0.78176   0.84534   0.11287   0.00000  Uiso   1.00
H582   H     0.88667   0.81744   0.38841   0.00000  Uiso   1.00
H583   H     0.97171   0.81817   0.10652   0.00000  Uiso   1.00
H584   H     0.69361   0.85778   0.39169   0.00000  Uiso   1.00
H585   H     0.99717   0.87172   0.47169   0.00000  Uiso   1.00
H586   H     0.66670   0.81175   0.02519   0.00000  Uiso   1.00
H587   H     0.84895   0.86657   0.07902   0.00000  Uiso   1.00
H588   H     0.81387   0.82225   0.41685   0.00000  Uiso   1.00
N589   N     0.78403   0.83334   0.24999   0.00000  Uiso   1.00
N590   N     0.88264   0.83332   0.25001   0.00000  Uiso   1.00
O591   O     0.70625   0.77322   0.25000   0.00000  Uiso   1.00
O592   O     0.96042   0.89345   0.25000   0.00000  Uiso   1.00
O593   O     0.96039   0.77321   0.25000   0.00000  Uiso   1.00
O594   O     0.70628   0.89346   0.24999   0.00000  Uiso   1.00
O595   O     0.68519   0.83334   0.31491   0.00000  Uiso   1.00
O596   O     0.98148   0.83332   0.18508   0.00000  Uiso   1.00
O597   O     0.93933   0.83333   0.31492   0.00000  Uiso   1.00
O598   O     0.72733   0.83333   0.18508   0.00000  Uiso   1.00
O599   O     0.92868   0.70997   0.31150   0.00000  Uiso   1.00
H600   H     0.91631   0.69251   0.33884   0.00000  Uiso   1.00
O601   O     0.73797   0.95669   0.18851   0.00000  Uiso   1.00
H602   H     0.75035   0.97416   0.16117   0.00000  Uiso   1.00
O603   O     0.92417   0.95485   0.30659   0.00000  Uiso   1.00
H604   H     0.89406   0.97124   0.31210   0.00000  Uiso   1.00
O605   O     0.74252   0.71181   0.19345   0.00000  Uiso   1.00
H606   H     0.77262   0.69541   0.18795   0.00000  Uiso   1.00
O607   O     0.86812   0.78299   0.30780   0.00000  Uiso   1.00
H608   H     0.84156   0.76902   0.33020   0.00000  Uiso   1.00
O609   O     0.79852   0.88372   0.19225   0.00000  Uiso   1.00
H610   H     0.82505   0.89792   0.17003   0.00000  Uiso   1.00
Cl611  Cl    0.75962   0.77461   0.31643   0.00000  Uiso   1.00
Cl612  Cl    0.90706   0.89204   0.18355   0.00000  Uiso   1.00
C613   C     0.00005   0.08750   0.75004   0.00000  Uiso   1.00
C614   C     0.33328   0.24583   0.74997   0.00000  Uiso   1.00
C615   C     0.19177   0.19129   0.54436   0.00000  Uiso   1.00
C616   C     0.13871   0.15936   0.95259   0.00000  Uiso   1.00
C617   C     0.24004   0.19666   0.52164   0.00000  Uiso   1.00
C618   C     0.09029   0.15476   0.97513   0.00000  Uiso   1.00
C619   C     0.29572   0.02122   0.78021   0.00000  Uiso   1.00
C620   C     0.03761   0.31210   0.71980   0.00000  Uiso   1.00
C621   C     0.29486   0.31116   0.77933   0.00000  Uiso   1.00
C622   C     0.03848   0.02216   0.72070   0.00000  Uiso   1.00
C623   C     0.33325   0.29052   0.75007   0.00000  Uiso   1.00
C624   C     0.00008   0.04281   0.74994   0.00000  Uiso   1.00
C625   C     0.18378   0.14144   0.77921   0.00000  Uiso   1.00
C626   C     0.14954   0.19191   0.72081   0.00000  Uiso   1.00
C627   C     0.13383   0.14140   0.77917   0.00000  Uiso   1.00
C628   C     0.19951   0.19194   0.72084   0.00000  Uiso   1.00
C629   C     0.30612   0.16706   0.83602   0.00000  Uiso   1.00
C630   C     0.02722   0.16667   0.66394   0.00000  Uiso   1.00
C631   C     0.29090   0.17095   0.88495   0.00000  Uiso   1.00
C632   C     0.04230   0.16597   0.61470   0.00000  Uiso   1.00
C633   C     0.30555   0.19340   0.95408   0.00000  Uiso   1.00
C634   C     0.02570   0.15342   0.54358   0.00000  Uiso   1.00
C635   C     0.32265   0.18523   0.90858   0.00000  Uiso   1.00
C636   C     0.00950   0.15698   0.58996   0.00000  Uiso   1.00
C637   C     0.24240   0.16385   0.90744   0.00000  Uiso   1.00
C638   C     0.09099   0.17278   0.59248   0.00000  Uiso   1.00
C639   C     0.22372   0.17346   0.95288   0.00000  Uiso   1.00
C640   C     0.10815   0.17036   0.54557   0.00000  Uiso   1.00
C641   C     0.25650   0.18771   0.97635   0.00000  Uiso   1.00
C642   C     0.07465   0.15963   0.52131   0.00000  Uiso   1.00
C643   C     0.17361   0.16952   0.97549   0.00000  Uiso   1.00
C644   C     0.15772   0.17696   0.52239   0.00000  Uiso   1.00
Cu645  Cu    0.04689   0.16667   0.75000   0.00000  Uiso   1.00
Cu646  Cu    0.28645   0.16666   0.75000   0.00000  Uiso   1.00
H647   H     0.26473   0.20796   0.53977   0.00000  Uiso   1.00
H648   H     0.06495   0.14681   0.95621   0.00000  Uiso   1.00
H649   H     0.11510   0.17868   0.61287   0.00000  Uiso   1.00
H650   H     0.22000   0.15077   0.88841   0.00000  Uiso   1.00
H651   H     0.30504   0.15151   0.60652   0.00000  Uiso   1.00
H652   H     0.02694   0.19112   0.89169   0.00000  Uiso   1.00
H653   H     0.33050   0.20505   0.97169   0.00000  Uiso   1.00
H654   H     0.00003   0.14509   0.52519   0.00000  Uiso   1.00
H655   H     0.18228   0.19990   0.57902   0.00000  Uiso   1.00
H656   H     0.14720   0.15559   0.91685   0.00000  Uiso   1.00
N657   N     0.11736   0.16668   0.74999   0.00000  Uiso   1.00
N658   N     0.21597   0.16666   0.75001   0.00000  Uiso   1.00
O659   O     0.03958   0.10655   0.75000   0.00000  Uiso   1.00
O660   O     0.29375   0.22678   0.75000   0.00000  Uiso   1.00
O661   O     0.29372   0.10654   0.75000   0.00000  Uiso   1.00
O662   O     0.03961   0.22679   0.74999   0.00000  Uiso   1.00
O663   O     0.01852   0.16668   0.81491   0.00000  Uiso   1.00
O664   O     0.31481   0.16666   0.68508   0.00000  Uiso   1.00
O665   O     0.27267   0.16667   0.81492   0.00000  Uiso   1.00
O666   O     0.06067   0.16667   0.68508   0.00000  Uiso   1.00
O667   O     0.26201   0.04330   0.81150   0.00000  Uiso   1.00
H668   H     0.24965   0.02584   0.83884   0.00000  Uiso   1.00
O669   O     0.07131   0.29003   0.68851   0.00000  Uiso   1.00
H670   H     0.08369   0.30749   0.66117   0.00000  Uiso   1.00
O671   O     0.25750   0.28818   0.80659   0.00000  Uiso   1.00
H672   H     0.22740   0.30457   0.81210   0.00000  Uiso   1.00
O673   O     0.07585   0.04514   0.69345   0.00000  Uiso   1.00
H674   H     0.10595   0.02874   0.68795   0.00000  Uiso   1.00
O675   O     0.20145   0.11632   0.80780   0.00000  Uiso   1.00
H676   H     0.17489   0.10235   0.83020   0.00000  Uiso   1.00
O677   O     0.13186   0.21706   0.69225   0.00000  Uiso   1.00
H678   H     0.15838   0.23125   0.67003   0.00000  Uiso   1.00
Cl679  Cl    0.09295   0.10795   0.81643   0.00000  Uiso   1.00
Cl680  Cl    0.24039   0.22537   0.68355   0.00000  Uiso   1.00
C681   C     0.33338   0.08750   0.75004   0.00000  Uiso   1.00
C682   C     0.66662   0.24583   0.74997   0.00000  Uiso   1.00
C683   C     0.52511   0.19129   0.54436   0.00000  Uiso   1.00
C684   C     0.47205   0.15936   0.95259   0.00000  Uiso   1.00
C685   C     0.57338   0.19666   0.52164   0.00000  Uiso   1.00
C686   C     0.42363   0.15476   0.97513   0.00000  Uiso   1.00
C687   C     0.62905   0.02122   0.78021   0.00000  Uiso   1.00
C688   C     0.37094   0.31210   0.71980   0.00000  Uiso   1.00
C689   C     0.62819   0.31116   0.77933   0.00000  Uiso   1.00
C690   C     0.37181   0.02216   0.72070   0.00000  Uiso   1.00
C691   C     0.66658   0.29052   0.75007   0.00000  Uiso   1.00
C692   C     0.33341   0.04281   0.74994   0.00000  Uiso   1.00
C693   C     0.51712   0.14144   0.77921   0.00000  Uiso   1.00
C694   C     0.48287   0.19191   0.72081   0.00000  Uiso   1.00
C695   C     0.46716   0.14140   0.77917   0.00000  Uiso   1.00
C696   C     0.53284   0.19194   0.72084   0.00000  Uiso   1.00
C697   C     0.63945   0.16706   0.83602   0.00000  Uiso   1.00
C698   C     0.36055   0.16667   0.66394   0.00000  Uiso   1.00
C699   C     0.62424   0.17095   0.88495   0.00000  Uiso   1.00
C700   C     0.37563   0.16597   0.61470   0.00000  Uiso   1.00
C701   C     0.63888   0.19340   0.95408   0.00000  Uiso   1.00
C702   C     0.35903   0.15342   0.54358   0.00000  Uiso   1.00
C703   C     0.65598   0.18523   0.90858   0.00000  Uiso   1.00
C704   C     0.34284   0.15698   0.58996   0.00000  Uiso   1.00
C705   C     0.57573   0.16385   0.90744   0.00000  Uiso   1.00
C706   C     0.42432   0.17278   0.59248   0.00000  Uiso   1.00
C707   C     0.55705   0.17346   0.95288   0.00000  Uiso   1.00
C708   C     0.44148   0.17036   0.54557   0.00000  Uiso   1.00
C709   C     0.58983   0.18771   0.97635   0.00000  Uiso   1.00
C710   C     0.40798   0.15963   0.52131   0.00000  Uiso   1.00
C711   C     0.50694   0.16952   0.97549   0.00000  Uiso   1.00
C712   C     0.49105   0.17696   0.52239   0.00000  Uiso   1.00
Cu713  Cu    0.38022   0.16667   0.75000   0.00000  Uiso   1.00
Cu714  Cu    0.61978   0.16666   0.75000   0.00000  Uiso   1.00
H715   H     0.59807   0.20796   0.53977   0.00000  Uiso   1.00
H716   H     0.39828   0.14681   0.95621   0.00000  Uiso   1.00
H717   H     0.44843   0.17868   0.61287   0.00000  Uiso   1.00
H718   H     0.55334   0.15077   0.88841   0.00000  Uiso   1.00
H719   H     0.63837   0.15151   0.60652   0.00000  Uiso   1.00
H720   H     0.36028   0.19112   0.89169   0.00000  Uiso   1.00
H721   H     0.66384   0.20505   0.97169   0.00000  Uiso   1.00
H722   H     0.33336   0.14509   0.52519   0.00000  Uiso   1.00
H723   H     0.51561   0.19990   0.57902   0.00000  Uiso   1.00
H724   H     0.48054   0.15559   0.91685   0.00000  Uiso   1.00
N725   N     0.45069   0.16668   0.74999   0.00000  Uiso   1.00
N726   N     0.54931   0.16666   0.75001   0.00000  Uiso   1.00
O727   O     0.37291   0.10655   0.75000   0.00000  Uiso   1.00
O728   O     0.62709   0.22678   0.75000   0.00000  Uiso   1.00
O729   O     0.62706   0.10654   0.75000   0.00000  Uiso   1.00
O730   O     0.37294   0.22679   0.74999   0.00000  Uiso   1.00
O731   O     0.35186   0.16668   0.81491   0.00000  Uiso   1.00
O732   O     0.64814   0.16666   0.68508   0.00000  Uiso   1.00
O733   O     0.60600   0.16667   0.81492   0.00000  Uiso   1.00
O734   O     0.39400   0.16667   0.68508   0.00000  Uiso   1.00
O735   O     0.59535   0.04330   0.81150   0.00000  Uiso   1.00
H736   H     0.58298   0.02584   0.83884   0.00000  Uiso   1.00
O737   O     0.40464   0.29003   0.68851   0.00000  Uiso   1.00
H738   H     0.41702   0.30749   0.66117   0.00000  Uiso   1.00
O739   O     0.59083   0.28818   0.80659   0.00000  Uiso   1.00
H740   H     0.56073   0.30457   0.81210   0.00000  Uiso   1.00
O741   O     0.40919   0.04514   0.69345   0.00000  Uiso   1.00
H742   H     0.43929   0.02874   0.68795   0.00000  Uiso   1.00
O743   O     0.53479   0.11632   0.80780   0.00000  Uiso   1.00
H744   H     0.50823   0.10235   0.83020   0.00000  Uiso   1.00
O745   O     0.46519   0.21706   0.69225   0.00000  Uiso   1.00
H746   H     0.49171   0.23125   0.67003   0.00000  Uiso   1.00
Cl747  Cl    0.42628   0.10795   0.81643   0.00000  Uiso   1.00
Cl748  Cl    0.57373   0.22537   0.68355   0.00000  Uiso   1.00
C749   C     0.66671   0.08750   0.75004   0.00000  Uiso   1.00
C750   C     0.99995   0.24583   0.74997   0.00000  Uiso   1.00
C751   C     0.85844   0.19129   0.54436   0.00000  Uiso   1.00
C752   C     0.80538   0.15936   0.95259   0.00000  Uiso   1.00
C753   C     0.90671   0.19666   0.52164   0.00000  Uiso   1.00
C754   C     0.75696   0.15476   0.97513   0.00000  Uiso   1.00
C755   C     0.96239   0.02122   0.78021   0.00000  Uiso   1.00
C756   C     0.70428   0.31210   0.71980   0.00000  Uiso   1.00
C757   C     0.96153   0.31116   0.77933   0.00000  Uiso   1.00
C758   C     0.70515   0.02216   0.72070   0.00000  Uiso   1.00
C759   C     0.99992   0.29052   0.75007   0.00000  Uiso   1.00
C760   C     0.66675   0.04281   0.74994   0.00000  Uiso   1.00
C761   C     0.85045   0.14144   0.77921   0.00000  Uiso   1.00
C762   C     0.81621   0.19191   0.72081   0.00000  Uiso   1.00
C763   C     0.80049   0.14140   0.77917   0.00000  Uiso   1.00
C764   C     0.86617   0.19194   0.72084   0.00000  Uiso   1.00
C765   C     0.97279   0.16706   0.83602   0.00000  Uiso   1.00
C766   C     0.69389   0.16667   0.66394   0.00000  Uiso   1.00
C767   C     0.95757   0.17095   0.88495   0.00000  Uiso   1.00
C768   C     0.70897   0.16597   0.61470   0.00000  Uiso   1.00
C769   C     0.97221   0.19340   0.95408   0.00000  Uiso   1.00
C770   C     0.69236   0.15342   0.54358   0.00000  Uiso   1.00
C771   C     0.98932   0.18523   0.90858   0.00000  Uiso   1.00
C772   C     0.67617   0.15698   0.58996   0.00000  Uiso   1.00
C773   C     0.90906   0.16385   0.90744   0.00000  Uiso   1.00
C774   C     0.75765   0.17278   0.59248   0.00000  Uiso   1.00
C775   C     0.89039   0.17346   0.95288   0.00000  Uiso   1.00
C776   C     0.77481   0.17036   0.54557   0.00000  Uiso   1.00
C777   C     0.92317   0.18771   0.97635   0.00000  Uiso   1.00
C778   C     0.74132   0.15963   0.52131   0.00000  Uiso   1.00
C779   C     0.84027   0.16952   0.97549   0.00000  Uiso   1.00
C780   C     0.82439   0.17696   0.52239   0.00000  Uiso   1.00
Cu781  Cu    0.71355   0.16667   0.75000   0.00000  Uiso   1.00
Cu782  Cu    0.95311   0.16666   0.75000   0.00000  Uiso   1.00
H783   H     0.93140   0.20796   0.53977   0.00000  Uiso   1.00
H784   H     0.73162   0.14681   0.95621   0.00000  Uiso   1.00
H785   H     0.78176   0.17868   0.61287   0.00000  Uiso   1.00
H786   H     0.88667   0.15077   0.88841   0.00000  Uiso   1.00
H787   H     0.97171   0.15151   0.60652   0.00000  Uiso   1.00
H788   H     0.69361   0.19112   0.89169   0.00000  Uiso   1.00
H789   H     0.99717   0.20505   0.97169   0.00000  Uiso   1.00
H790   H     0.66670   0.14509   0.52519   0.00000  Uiso   1.00
H791   H     0.84895   0.19990   0.57902   0.00000  Uiso   1.00
H792   H     0.81387   0.15559   0.91685   0.00000  Uiso   1.00
N793   N     0.78403   0.16668   0.74999   0.00000  Uiso   1.00
N794   N     0.88264   0.16666   0.75001   0.00000  Uiso   1.00
O795   O     0.70625   0.10655   0.75000   0.00000  Uiso   1.00
O796   O     0.96042   0.22678   0.75000   0.00000  Uiso   1.00
O797   O     0.96039   0.10654   0.75000   0.00000  Uiso   1.00
O798   O     0.70628   0.22679   0.74999   0.00000  Uiso   1.00
O799   O     0.68519   0.16668   0.81491   0.00000  Uiso   1.00
O800   O     0.98148   0.16666   0.68508   0.00000  Uiso   1.00
O801   O     0.93933   0.16667   0.81492   0.00000  Uiso   1.00
O802   O     0.72733   0.16667   0.68508   0.00000  Uiso   1.00
O803   O     0.92868   0.04330   0.81150   0.00000  Uiso   1.00
H804   H     0.91631   0.02584   0.83884   0.00000  Uiso   1.00
O805   O     0.73797   0.29003   0.68851   0.00000  Uiso   1.00
H806   H     0.75035   0.30749   0.66117   0.00000  Uiso   1.00
O807   O     0.92417   0.28818   0.80659   0.00000  Uiso   1.00
H808   H     0.89406   0.30457   0.81210   0.00000  Uiso   1.00
O809   O     0.74252   0.04514   0.69345   0.00000  Uiso   1.00
H810   H     0.77262   0.02874   0.68795   0.00000  Uiso   1.00
O811   O     0.86812   0.11632   0.80780   0.00000  Uiso   1.00
H812   H     0.84156   0.10235   0.83020   0.00000  Uiso   1.00
O813   O     0.79852   0.21706   0.69225   0.00000  Uiso   1.00
H814   H     0.82505   0.23125   0.67003   0.00000  Uiso   1.00
Cl815  Cl    0.75962   0.10795   0.81643   0.00000  Uiso   1.00
Cl816  Cl    0.90706   0.22537   0.68355   0.00000  Uiso   1.00
C817   C     0.00005   0.42083   0.75004   0.00000  Uiso   1.00
C818   C     0.33328   0.57917   0.74997   0.00000  Uiso   1.00
C819   C     0.19177   0.52462   0.54436   0.00000  Uiso   1.00
C820   C     0.13871   0.49270   0.95259   0.00000  Uiso   1.00
C821   C     0.24004   0.52999   0.52164   0.00000  Uiso   1.00
C822   C     0.09029   0.48810   0.97513   0.00000  Uiso   1.00
C823   C     0.29572   0.35456   0.78021   0.00000  Uiso   1.00
C824   C     0.03761   0.64544   0.71980   0.00000  Uiso   1.00
C825   C     0.29486   0.64450   0.77933   0.00000  Uiso   1.00
C826   C     0.03848   0.35550   0.72070   0.00000  Uiso   1.00
C827   C     0.33325   0.62386   0.75007   0.00000  Uiso   1.00
C828   C     0.00008   0.37614   0.74994   0.00000  Uiso   1.00
C829   C     0.18378   0.47478   0.77921   0.00000  Uiso   1.00
C830   C     0.14954   0.52525   0.72081   0.00000  Uiso   1.00
C831   C     0.13383   0.47474   0.77917   0.00000  Uiso   1.00
C832   C     0.19951   0.52528   0.72084   0.00000  Uiso   1.00
C833   C     0.30612   0.50039   0.83602   0.00000  Uiso   1.00
C834   C     0.02722   0.50000   0.66394   0.00000  Uiso   1.00
C835   C     0.29090   0.50429   0.88495   0.00000  Uiso   1.00
C836   C     0.04230   0.49930   0.61470   0.00000  Uiso   1.00
C837   C     0.30555   0.52673   0.95408   0.00000  Uiso   1.00
C838   C     0.02570   0.48676   0.54358   0.00000  Uiso   1.00
C839   C     0.32265   0.51856   0.90858   0.00000  Uiso   1.00
C840   C     0.00950   0.49031   0.58996   0.00000  Uiso   1.00
C841   C     0.24240   0.49718   0.90744   0.00000  Uiso   1.00
C842   C     0.09099   0.50612   0.59248   0.00000  Uiso   1.00
C843   C     0.22372   0.50680   0.95288   0.00000  Uiso   1.00
C844   C     0.10815   0.50369   0.54557   0.00000  Uiso   1.00
C845   C     0.25650   0.52104   0.97635   0.00000  Uiso   1.00
C846   C     0.07465   0.49296   0.52131   0.00000  Uiso   1.00
C847   C     0.17361   0.50285   0.97549   0.00000  Uiso   1.00
C848   C     0.15772   0.51029   0.52239   0.00000  Uiso   1.00
Cu849  Cu    0.04689   0.50001   0.75000   0.00000  Uiso   1.00
Cu850  Cu    0.28645   0.49999   0.75000   0.00000  Uiso   1.00
H851   H     0.26473   0.54129   0.53977   0.00000  Uiso   1.00
H852   H     0.06495   0.48014   0.95621   0.00000  Uiso   1.00
H853   H     0.11510   0.51201   0.61287   0.00000  Uiso   1.00
H854   H     0.22000   0.48410   0.88841   0.00000  Uiso   1.00
H855   H     0.30504   0.48484   0.60652   0.00000  Uiso   1.00
H856   H     0.02694   0.52445   0.89169   0.00000  Uiso   1.00
H857   H     0.33050   0.53839   0.97169   0.00000  Uiso   1.00
H858   H     0.00003   0.47842   0.52519   0.00000  Uiso   1.00
H859   H     0.18228   0.53323   0.57902   0.00000  Uiso   1.00
H860   H     0.14720   0.48892   0.91685   0.00000  Uiso   1.00
N861   N     0.11736   0.50001   0.74999   0.00000  Uiso   1.00
N862   N     0.21597   0.49999   0.75001   0.00000  Uiso   1.00
O863   O     0.03958   0.43989   0.75000   0.00000  Uiso   1.00
O864   O     0.29375   0.56011   0.75000   0.00000  Uiso   1.00
O865   O     0.29372   0.43988   0.75000   0.00000  Uiso   1.00
O866   O     0.03961   0.56012   0.74999   0.00000  Uiso   1.00
O867   O     0.01852   0.50001   0.81491   0.00000  Uiso   1.00
O868   O     0.31481   0.49999   0.68508   0.00000  Uiso   1.00
O869   O     0.27267   0.50000   0.81492   0.00000  Uiso   1.00
O870   O     0.06067   0.50000   0.68508   0.00000  Uiso   1.00
O871   O     0.26201   0.37664   0.81150   0.00000  Uiso   1.00
H872   H     0.24965   0.35917   0.83884   0.00000  Uiso   1.00
O873   O     0.07131   0.62336   0.68851   0.00000  Uiso   1.00
H874   H     0.08369   0.64083   0.66117   0.00000  Uiso   1.00
O875   O     0.25750   0.62152   0.80659   0.00000  Uiso   1.00
H876   H     0.22740   0.63790   0.81210   0.00000  Uiso   1.00
O877   O     0.07585   0.37847   0.69345   0.00000  Uiso   1.00
H878   H     0.10595   0.36208   0.68795   0.00000  Uiso   1.00
O879   O     0.20145   0.44965   0.80780   0.00000  Uiso   1.00
H880   H     0.17489   0.43569   0.83020   0.00000  Uiso   1.00
O881   O     0.13186   0.55039   0.69225   0.00000  Uiso   1.00
H882   H     0.15838   0.56459   0.67003   0.00000  Uiso   1.00
Cl883  Cl    0.09295   0.44128   0.81643   0.00000  Uiso   1.00
Cl884  Cl    0.24039   0.55871   0.68355   0.00000  Uiso   1.00
C885   C     0.33338   0.42083   0.75004   0.00000  Uiso   1.00
C886   C     0.66662   0.57917   0.74997   0.00000  Uiso   1.00
C887   C     0.52511   0.52462   0.54436   0.00000  Uiso   1.00
C888   C     0.47205   0.49270   0.95259   0.00000  Uiso   1.00
C889   C     0.57338   0.52999   0.52164   0.00000  Uiso   1.00
C890   C     0.42363   0.48810   0.97513   0.00000  Uiso   1.00
C891   C     0.62905   0.35456   0.78021   0.00000  Uiso   1.00
C892   C     0.37094   0.64544   0.71980   0.00000  Uiso   1.00
C893   C     0.62819   0.64450   0.77933   0.00000  Uiso   1.00
C894   C     0.37181   0.35550   0.72070   0.00000  Uiso   1.00
C895   C     0.66658   0.62386   0.75007   0.00000  Uiso   1.00
C896   C     0.33341   0.37614   0.74994   0.00000  Uiso   1.00
C897   C     0.51712   0.47478   0.77921   0.00000  Uiso   1.00
C898   C     0.48287   0.52525   0.72081   0.00000  Uiso   1.00
C899   C     0.46716   0.47474   0.77917   0.00000  Uiso   1.00
C900   C     0.53284   0.52528   0.72084   0.00000  Uiso   1.00
C901   C     0.63945   0.50039   0.83602   0.00000  Uiso   1.00
C902   C     0.36055   0.50000   0.66394   0.00000  Uiso   1.00
C903   C     0.62424   0.50429   0.88495   0.00000  Uiso   1.00
C904   C     0.37563   0.49930   0.61470   0.00000  Uiso   1.00
C905   C     0.63888   0.52673   0.95408   0.00000  Uiso   1.00
C906   C     0.35903   0.48676   0.54358   0.00000  Uiso   1.00
C907   C     0.65598   0.51856   0.90858   0.00000  Uiso   1.00
C908   C     0.34284   0.49031   0.58996   0.00000  Uiso   1.00
C909   C     0.57573   0.49718   0.90744   0.00000  Uiso   1.00
C910   C     0.42432   0.50612   0.59248   0.00000  Uiso   1.00
C911   C     0.55705   0.50680   0.95288   0.00000  Uiso   1.00
C912   C     0.44148   0.50369   0.54557   0.00000  Uiso   1.00
C913   C     0.58983   0.52104   0.97635   0.00000  Uiso   1.00
C914   C     0.40798   0.49296   0.52131   0.00000  Uiso   1.00
C915   C     0.50694   0.50285   0.97549   0.00000  Uiso   1.00
C916   C     0.49105   0.51029   0.52239   0.00000  Uiso   1.00
Cu917  Cu    0.38022   0.50001   0.75000   0.00000  Uiso   1.00
Cu918  Cu    0.61978   0.49999   0.75000   0.00000  Uiso   1.00
H919   H     0.59807   0.54129   0.53977   0.00000  Uiso   1.00
H920   H     0.39828   0.48014   0.95621   0.00000  Uiso   1.00
H921   H     0.44843   0.51201   0.61287   0.00000  Uiso   1.00
H922   H     0.55334   0.48410   0.88841   0.00000  Uiso   1.00
H923   H     0.63837   0.48484   0.60652   0.00000  Uiso   1.00
H924   H     0.36028   0.52445   0.89169   0.00000  Uiso   1.00
H925   H     0.66384   0.53839   0.97169   0.00000  Uiso   1.00
H926   H     0.33336   0.47842   0.52519   0.00000  Uiso   1.00
H927   H     0.51561   0.53323   0.57902   0.00000  Uiso   1.00
H928   H     0.48054   0.48892   0.91685   0.00000  Uiso   1.00
N929   N     0.45069   0.50001   0.74999   0.00000  Uiso   1.00
N930   N     0.54931   0.49999   0.75001   0.00000  Uiso   1.00
O931   O     0.37291   0.43989   0.75000   0.00000  Uiso   1.00
O932   O     0.62709   0.56011   0.75000   0.00000  Uiso   1.00
O933   O     0.62706   0.43988   0.75000   0.00000  Uiso   1.00
O934   O     0.37294   0.56012   0.74999   0.00000  Uiso   1.00
O935   O     0.35186   0.50001   0.81491   0.00000  Uiso   1.00
O936   O     0.64814   0.49999   0.68508   0.00000  Uiso   1.00
O937   O     0.60600   0.50000   0.81492   0.00000  Uiso   1.00
O938   O     0.39400   0.50000   0.68508   0.00000  Uiso   1.00
O939   O     0.59535   0.37664   0.81150   0.00000  Uiso   1.00
H940   H     0.58298   0.35917   0.83884   0.00000  Uiso   1.00
O941   O     0.40464   0.62336   0.68851   0.00000  Uiso   1.00
H942   H     0.41702   0.64083   0.66117   0.00000  Uiso   1.00
O943   O     0.59083   0.62152   0.80659   0.00000  Uiso   1.00
H944   H     0.56073   0.63790   0.81210   0.00000  Uiso   1.00
O945   O     0.40919   0.37847   0.69345   0.00000  Uiso   1.00
H946   H     0.43929   0.36208   0.68795   0.00000  Uiso   1.00
O947   O     0.53479   0.44965   0.80780   0.00000  Uiso   1.00
H948   H     0.50823   0.43569   0.83020   0.00000  Uiso   1.00
O949   O     0.46519   0.55039   0.69225   0.00000  Uiso   1.00
H950   H     0.49171   0.56459   0.67003   0.00000  Uiso   1.00
Cl951  Cl    0.42628   0.44128   0.81643   0.00000  Uiso   1.00
Cl952  Cl    0.57373   0.55871   0.68355   0.00000  Uiso   1.00
C953   C     0.66671   0.42083   0.75004   0.00000  Uiso   1.00
C954   C     0.99995   0.57917   0.74997   0.00000  Uiso   1.00
C955   C     0.85844   0.52462   0.54436   0.00000  Uiso   1.00
C956   C     0.80538   0.49270   0.95259   0.00000  Uiso   1.00
C957   C     0.90671   0.52999   0.52164   0.00000  Uiso   1.00
C958   C     0.75696   0.48810   0.97513   0.00000  Uiso   1.00
C959   C     0.96239   0.35456   0.78021   0.00000  Uiso   1.00
C960   C     0.70428   0.64544   0.71980   0.00000  Uiso   1.00
C961   C     0.96153   0.64450   0.77933   0.00000  Uiso   1.00
C962   C     0.70515   0.35550   0.72070   0.00000  Uiso   1.00
C963   C     0.99992   0.62386   0.75007   0.00000  Uiso   1.00
C964   C     0.66675   0.37614   0.74994   0.00000  Uiso   1.00
C965   C     0.85045   0.47478   0.77921   0.00000  Uiso   1.00
C966   C     0.81621   0.52525   0.72081   0.00000  Uiso   1.00
C967   C     0.80049   0.47474   0.77917   0.00000  Uiso   1.00
C968   C     0.86617   0.52528   0.72084   0.00000  Uiso   1.00
C969   C     0.97279   0.50039   0.83602   0.00000  Uiso   1.00
C970   C     0.69389   0.50000   0.66394   0.00000  Uiso   1.00
C971   C     0.95757   0.50429   0.88495   0.00000  Uiso   1.00
C972   C     0.70897   0.49930   0.61470   0.00000  Uiso   1.00
C973   C     0.97221   0.52673   0.95408   0.00000  Uiso   1.00
C974   C     0.69236   0.48676   0.54358   0.00000  Uiso   1.00
C975   C     0.98932   0.51856   0.90858   0.00000  Uiso   1.00
C976   C     0.67617   0.49031   0.58996   0.00000  Uiso   1.00
C977   C     0.90906   0.49718   0.90744   0.00000  Uiso   1.00
C978   C     0.75765   0.50612   0.59248   0.00000  Uiso   1.00
C979   C     0.89039   0.50680   0.95288   0.00000  Uiso   1.00
C980   C     0.77481   0.50369   0.54557   0.00000  Uiso   1.00
C981   C     0.92317   0.52104   0.97635   0.00000  Uiso   1.00
C982   C     0.74132   0.49296   0.52131   0.00000  Uiso   1.00
C983   C     0.84027   0.50285   0.97549   0.00000  Uiso   1.00
C984   C     0.82439   0.51029   0.52239   0.00000  Uiso   1.00
Cu985  Cu    0.71355   0.50001   0.75000   0.00000  Uiso   1.00
Cu986  Cu    0.95311   0.49999   0.75000   0.00000  Uiso   1.00
H987   H     0.93140   0.54129   0.53977   0.00000  Uiso   1.00
H988   H     0.73162   0.48014   0.95621   0.00000  Uiso   1.00
H989   H     0.78176   0.51201   0.61287   0.00000  Uiso   1.00
H990   H     0.88667   0.48410   0.88841   0.00000  Uiso   1.00
H991   H     0.97171   0.48484   0.60652   0.00000  Uiso   1.00
H992   H     0.69361   0.52445   0.89169   0.00000  Uiso   1.00
H993   H     0.99717   0.53839   0.97169   0.00000  Uiso   1.00
H994   H     0.66670   0.47842   0.52519   0.00000  Uiso   1.00
H995   H     0.84895   0.53323   0.57902   0.00000  Uiso   1.00
H996   H     0.81387   0.48892   0.91685   0.00000  Uiso   1.00
N997   N     0.78403   0.50001   0.74999   0.00000  Uiso   1.00
N998   N     0.88264   0.49999   0.75001   0.00000  Uiso   1.00
O999   O     0.70625   0.43989   0.75000   0.00000  Uiso   1.00
O1000  O     0.96042   0.56011   0.75000   0.00000  Uiso   1.00
O1001  O     0.96039   0.43988   0.75000   0.00000  Uiso   1.00
O1002  O     0.70628   0.56012   0.74999   0.00000  Uiso   1.00
O1003  O     0.68519   0.50001   0.81491   0.00000  Uiso   1.00
O1004  O     0.98148   0.49999   0.68508   0.00000  Uiso   1.00
O1005  O     0.93933   0.50000   0.81492   0.00000  Uiso   1.00
O1006  O     0.72733   0.50000   0.68508   0.00000  Uiso   1.00
O1007  O     0.92868   0.37664   0.81150   0.00000  Uiso   1.00
H1008  H     0.91631   0.35917   0.83884   0.00000  Uiso   1.00
O1009  O     0.73797   0.62336   0.68851   0.00000  Uiso   1.00
H1010  H     0.75035   0.64083   0.66117   0.00000  Uiso   1.00
O1011  O     0.92417   0.62152   0.80659   0.00000  Uiso   1.00
H1012  H     0.89406   0.63790   0.81210   0.00000  Uiso   1.00
O1013  O     0.74252   0.37847   0.69345   0.00000  Uiso   1.00
H1014  H     0.77262   0.36208   0.68795   0.00000  Uiso   1.00
O1015  O     0.86812   0.44965   0.80780   0.00000  Uiso   1.00
H1016  H     0.84156   0.43569   0.83020   0.00000  Uiso   1.00
O1017  O     0.79852   0.55039   0.69225   0.00000  Uiso   1.00
H1018  H     0.82505   0.56459   0.67003   0.00000  Uiso   1.00
Cl1019 Cl    0.75962   0.44128   0.81643   0.00000  Uiso   1.00
Cl1020 Cl    0.90706   0.55871   0.68355   0.00000  Uiso   1.00
C1021  C     0.00005   0.75416   0.75004   0.00000  Uiso   1.00
C1022  C     0.33328   0.91250   0.74997   0.00000  Uiso   1.00
C1023  C     0.19177   0.85796   0.54436   0.00000  Uiso   1.00
C1024  C     0.13871   0.82603   0.95259   0.00000  Uiso   1.00
C1025  C     0.24004   0.86332   0.52164   0.00000  Uiso   1.00
C1026  C     0.09029   0.82143   0.97513   0.00000  Uiso   1.00
C1027  C     0.29572   0.68789   0.78021   0.00000  Uiso   1.00
C1028  C     0.03761   0.97877   0.71980   0.00000  Uiso   1.00
C1029  C     0.29486   0.97783   0.77933   0.00000  Uiso   1.00
C1030  C     0.03848   0.68883   0.72070   0.00000  Uiso   1.00
C1031  C     0.33325   0.95719   0.75007   0.00000  Uiso   1.00
C1032  C     0.00008   0.70947   0.74994   0.00000  Uiso   1.00
C1033  C     0.18378   0.80811   0.77921   0.00000  Uiso   1.00
C1034  C     0.14954   0.85858   0.72081   0.00000  Uiso   1.00
C1035  C     0.13383   0.80807   0.77917   0.00000  Uiso   1.00
C1036  C     0.19951   0.85861   0.72084   0.00000  Uiso   1.00
C1037  C     0.30612   0.83373   0.83602   0.00000  Uiso   1.00
C1038  C     0.02722   0.83333   0.66394   0.00000  Uiso   1.00
C1039  C     0.29090   0.83762   0.88495   0.00000  Uiso   1.00
C1040  C     0.04230   0.83264   0.61470   0.00000  Uiso   1.00
C1041  C     0.30555   0.86007   0.95408   0.00000  Uiso   1.00
C1042  C     0.02570   0.82009   0.54358   0.00000  Uiso   1.00
C1043  C     0.32265   0.85190   0.90858   0.00000  Uiso   1.00
C1044  C     0.00950   0.82364   0.58996   0.00000  Uiso   1.00
C1045  C     0.24240   0.83052   0.90744   0.00000  Uiso   1.00
C1046  C     0.09099   0.83945   0.59248   0.00000  Uiso   1.00
C1047  C     0.22372   0.84013   0.95288   0.00000  Uiso   1.00
C1048  C     0.10815   0.83703   0.54557   0.00000  Uiso   1.00
C1049  C     0.25650   0.85438   0.97635   0.00000  Uiso   1.00
C1050  C     0.07465   0.82629   0.52131   0.00000  Uiso   1.00
C1051  C     0.17361   0.83619   0.97549   0.00000  Uiso   1.00
C1052  C     0.15772   0.84362   0.52239   0.00000  Uiso   1.00
Cu1053 Cu    0.04689   0.83334   0.75000   0.00000  Uiso   1.00
Cu1054 Cu    0.28645   0.83333   0.75000   0.00000  Uiso   1.00
H1055  H     0.26473   0.87462   0.53977   0.00000  Uiso   1.00
H1056  H     0.06495   0.81348   0.95621   0.00000  Uiso   1.00
H1057  H     0.11510   0.84534   0.61287   0.00000  Uiso   1.00
H1058  H     0.22000   0.81744   0.88841   0.00000  Uiso   1.00
H1059  H     0.30504   0.81817   0.60652   0.00000  Uiso   1.00
H1060  H     0.02694   0.85778   0.89169   0.00000  Uiso   1.00
H1061  H     0.33050   0.87172   0.97169   0.00000  Uiso   1.00
H1062  H     0.00003   0.81175   0.52519   0.00000  Uiso   1.00
H1063  H     0.18228   0.86657   0.57902   0.00000  Uiso   1.00
H1064  H     0.14720   0.82225   0.91685   0.00000  Uiso   1.00
N1065  N     0.11736   0.83334   0.74999   0.00000  Uiso   1.00
N1066  N     0.21597   0.83332   0.75001   0.00000  Uiso   1.00
O1067  O     0.03958   0.77322   0.75000   0.00000  Uiso   1.00
O1068  O     0.29375   0.89345   0.75000   0.00000  Uiso   1.00
O1069  O     0.29372   0.77321   0.75000   0.00000  Uiso   1.00
O1070  O     0.03961   0.89346   0.74999   0.00000  Uiso   1.00
O1071  O     0.01852   0.83334   0.81491   0.00000  Uiso   1.00
O1072  O     0.31481   0.83332   0.68508   0.00000  Uiso   1.00
O1073  O     0.27267   0.83333   0.81492   0.00000  Uiso   1.00
O1074  O     0.06067   0.83333   0.68508   0.00000  Uiso   1.00
O1075  O     0.26201   0.70997   0.81150   0.00000  Uiso   1.00
H1076  H     0.24965   0.69251   0.83884   0.00000  Uiso   1.00
O1077  O     0.07131   0.95669   0.68851   0.00000  Uiso   1.00
H1078  H     0.08369   0.97416   0.66117   0.00000  Uiso   1.00
O1079  O     0.25750   0.95485   0.80659   0.00000  Uiso   1.00
H1080  H     0.22740   0.97124   0.81210   0.00000  Uiso   1.00
O1081  O     0.07585   0.71181   0.69345   0.00000  Uiso   1.00
H1082  H     0.10595   0.69541   0.68795   0.00000  Uiso   1.00
O1083  O     0.20145   0.78299   0.80780   0.00000  Uiso   1.00
H1084  H     0.17489   0.76902   0.83020   0.00000  Uiso   1.00
O1085  O     0.13186   0.88372   0.69225   0.00000  Uiso   1.00
H1086  H     0.15838   0.89792   0.67003   0.00000  Uiso   1.00
Cl1087 Cl    0.09295   0.77461   0.81643   0.00000  Uiso   1.00
Cl1088 Cl    0.24039   0.89204   0.68355   0.00000  Uiso   1.00
C1089  C     0.33338   0.75416   0.75004   0.00000  Uiso   1.00
C1090  C     0.66662   0.91250   0.74997   0.00000  Uiso   1.00
C1091  C     0.52511   0.85796   0.54436   0.00000  Uiso   1.00
C1092  C     0.47205   0.82603   0.95259   0.00000  Uiso   1.00
C1093  C     0.57338   0.86332   0.52164   0.00000  Uiso   1.00
C1094  C     0.42363   0.82143   0.97513   0.00000  Uiso   1.00
C1095  C     0.62905   0.68789   0.78021   0.00000  Uiso   1.00
C1096  C     0.37094   0.97877   0.71980   0.00000  Uiso   1.00
C1097  C     0.62819   0.97783   0.77933   0.00000  Uiso   1.00
C1098  C     0.37181   0.68883   0.72070   0.00000  Uiso   1.00
C1099  C     0.66658   0.95719   0.75007   0.00000  Uiso   1.00
C1100  C     0.33341   0.70947   0.74994   0.00000  Uiso   1.00
C1101  C     0.51712   0.80811   0.77921   0.00000  Uiso   1.00
C1102  C     0.48287   0.85858   0.72081   0.00000  Uiso   1.00
C1103  C     0.46716   0.80807   0.77917   0.00000  Uiso   1.00
C1104  C     0.53284   0.85861   0.72084   0.00000  Uiso   1.00
C1105  C     0.63945   0.83373   0.83602   0.00000  Uiso   1.00
C1106  C     0.36055   0.83333   0.66394   0.00000  Uiso   1.00
C1107  C     0.62424   0.83762   0.88495   0.00000  Uiso   1.00
C1108  C     0.37563   0.83264   0.61470   0.00000  Uiso   1.00
C1109  C     0.63888   0.86007   0.95408   0.00000  Uiso   1.00
C1110  C     0.35903   0.82009   0.54358   0.00000  Uiso   1.00
C1111  C     0.65598   0.85190   0.90858   0.00000  Uiso   1.00
C1112  C     0.34284   0.82364   0.58996   0.00000  Uiso   1.00
C1113  C     0.57573   0.83052   0.90744   0.00000  Uiso   1.00
C1114  C     0.42432   0.83945   0.59248   0.00000  Uiso   1.00
C1115  C     0.55705   0.84013   0.95288   0.00000  Uiso   1.00
C1116  C     0.44148   0.83703   0.54557   0.00000  Uiso   1.00
C1117  C     0.58983   0.85438   0.97635   0.00000  Uiso   1.00
C1118  C     0.40798   0.82629   0.52131   0.00000  Uiso   1.00
C1119  C     0.50694   0.83619   0.97549   0.00000  Uiso   1.00
C1120  C     0.49105   0.84362   0.52239   0.00000  Uiso   1.00
Cu1121 Cu    0.38022   0.83334   0.75000   0.00000  Uiso   1.00
Cu1122 Cu    0.61978   0.83333   0.75000   0.00000  Uiso   1.00
H1123  H     0.59807   0.87462   0.53977   0.00000  Uiso   1.00
H1124  H     0.39828   0.81348   0.95621   0.00000  Uiso   1.00
H1125  H     0.44843   0.84534   0.61287   0.00000  Uiso   1.00
H1126  H     0.55334   0.81744   0.88841   0.00000  Uiso   1.00
H1127  H     0.63837   0.81817   0.60652   0.00000  Uiso   1.00
H1128  H     0.36028   0.85778   0.89169   0.00000  Uiso   1.00
H1129  H     0.66384   0.87172   0.97169   0.00000  Uiso   1.00
H1130  H     0.33336   0.81175   0.52519   0.00000  Uiso   1.00
H1131  H     0.51561   0.86657   0.57902   0.00000  Uiso   1.00
H1132  H     0.48054   0.82225   0.91685   0.00000  Uiso   1.00
N1133  N     0.45069   0.83334   0.74999   0.00000  Uiso   1.00
N1134  N     0.54931   0.83332   0.75001   0.00000  Uiso   1.00
O1135  O     0.37291   0.77322   0.75000   0.00000  Uiso   1.00
O1136  O     0.62709   0.89345   0.75000   0.00000  Uiso   1.00
O1137  O     0.62706   0.77321   0.75000   0.00000  Uiso   1.00
O1138  O     0.37294   0.89346   0.74999   0.00000  Uiso   1.00
O1139  O     0.35186   0.83334   0.81491   0.00000  Uiso   1.00
O1140  O     0.64814   0.83332   0.68508   0.00000  Uiso   1.00
O1141  O     0.60600   0.83333   0.81492   0.00000  Uiso   1.00
O1142  O     0.39400   0.83333   0.68508   0.00000  Uiso   1.00
O1143  O     0.59535   0.70997   0.81150   0.00000  Uiso   1.00
H1144  H     0.58298   0.69251   0.83884   0.00000  Uiso   1.00
O1145  O     0.40464   0.95669   0.68851   0.00000  Uiso   1.00
H1146  H     0.41702   0.97416   0.66117   0.00000  Uiso   1.00
O1147  O     0.59083   0.95485   0.80659   0.00000  Uiso   1.00
H1148  H     0.56073   0.97124   0.81210   0.00000  Uiso   1.00
O1149  O     0.40919   0.71181   0.69345   0.00000  Uiso   1.00
H1150  H     0.43929   0.69541   0.68795   0.00000  Uiso   1.00
O1151  O     0.53479   0.78299   0.80780   0.00000  Uiso   1.00
H1152  H     0.50823   0.76902   0.83020   0.00000  Uiso   1.00
O1153  O     0.46519   0.88372   0.69225   0.00000  Uiso   1.00
H1154  H     0.49171   0.89792   0.67003   0.00000  Uiso   1.00
Cl1155 Cl    0.42628   0.77461   0.81643   0.00000  Uiso   1.00
Cl1156 Cl    0.57373   0.89204   0.68355   0.00000  Uiso   1.00
C1157  C     0.66671   0.75416   0.75004   0.00000  Uiso   1.00
C1158  C     0.99995   0.91250   0.74997   0.00000  Uiso   1.00
C1159  C     0.85844   0.85796   0.54436   0.00000  Uiso   1.00
C1160  C     0.80538   0.82603   0.95259   0.00000  Uiso   1.00
C1161  C     0.90671   0.86332   0.52164   0.00000  Uiso   1.00
C1162  C     0.75696   0.82143   0.97513   0.00000  Uiso   1.00
C1163  C     0.96239   0.68789   0.78021   0.00000  Uiso   1.00
C1164  C     0.70428   0.97877   0.71980   0.00000  Uiso   1.00
C1165  C     0.96153   0.97783   0.77933   0.00000  Uiso   1.00
C1166  C     0.70515   0.68883   0.72070   0.00000  Uiso   1.00
C1167  C     0.99992   0.95719   0.75007   0.00000  Uiso   1.00
C1168  C     0.66675   0.70947   0.74994   0.00000  Uiso   1.00
C1169  C     0.85045   0.80811   0.77921   0.00000  Uiso   1.00
C1170  C     0.81621   0.85858   0.72081   0.00000  Uiso   1.00
C1171  C     0.80049   0.80807   0.77917   0.00000  Uiso   1.00
C1172  C     0.86617   0.85861   0.72084   0.00000  Uiso   1.00
C1173  C     0.97279   0.83373   0.83602   0.00000  Uiso   1.00
C1174  C     0.69389   0.83333   0.66394   0.00000  Uiso   1.00
C1175  C     0.95757   0.83762   0.88495   0.00000  Uiso   1.00
C1176  C     0.70897   0.83264   0.61470   0.00000  Uiso   1.00
C1177  C     0.97221   0.86007   0.95408   0.00000  Uiso   1.00
C1178  C     0.69236   0.82009   0.54358   0.00000  Uiso   1.00
C1179  C     0.98932   0.85190   0.90858   0.00000  Uiso   1.00
C1180  C     0.67617   0.82364   0.58996   0.00000  Uiso   1.00
C1181  C     0.90906   0.83052   0.90744   0.00000  Uiso   1.00
C1182  C     0.75765   0.83945   0.59248   0.00000  Uiso   1.00
C1183  C     0.89039   0.84013   0.95288   0.00000  Uiso   1.00
C1184  C     0.77481   0.83703   0.54557   0.00000  Uiso   1.00
C1185  C     0.92317   0.85438   0.97635   0.00000  Uiso   1.00
C1186  C     0.74132   0.82629   0.52131   0.00000  Uiso   1.00
C1187  C     0.84027   0.83619   0.97549   0.00000  Uiso   1.00
C1188  C     0.82439   0.84362   0.52239   0.00000  Uiso   1.00
Cu1189 Cu    0.71355   0.83334   0.75000   0.00000  Uiso   1.00
Cu1190 Cu    0.95311   0.83333   0.75000   0.00000  Uiso   1.00
H1191  H     0.93140   0.87462   0.53977   0.00000  Uiso   1.00
H1192  H     0.73162   0.81348   0.95621   0.00000  Uiso   1.00
H1193  H     0.78176   0.84534   0.61287   0.00000  Uiso   1.00
H1194  H     0.88667   0.81744   0.88841   0.00000  Uiso   1.00
H1195  H     0.97171   0.81817   0.60652   0.00000  Uiso   1.00
H1196  H     0.69361   0.85778   0.89169   0.00000  Uiso   1.00
H1197  H     0.99717   0.87172   0.97169   0.00000  Uiso   1.00
H1198  H     0.66670   0.81175   0.52519   0.00000  Uiso   1.00
H1199  H     0.84895   0.86657   0.57902   0.00000  Uiso   1.00
H1200  H     0.81387   0.82225   0.91685   0.00000  Uiso   1.00
N1201  N     0.78403   0.83334   0.74999   0.00000  Uiso   1.00
N1202  N     0.88264   0.83332   0.75001   0.00000  Uiso   1.00
O1203  O     0.70625   0.77322   0.75000   0.00000  Uiso   1.00
O1204  O     0.96042   0.89345   0.75000   0.00000  Uiso   1.00
O1205  O     0.96039   0.77321   0.75000   0.00000  Uiso   1.00
O1206  O     0.70628   0.89346   0.74999   0.00000  Uiso   1.00
O1207  O     0.68519   0.83334   0.81491   0.00000  Uiso   1.00
O1208  O     0.98148   0.83332   0.68508   0.00000  Uiso   1.00
O1209  O     0.93933   0.83333   0.81492   0.00000  Uiso   1.00
O1210  O     0.72733   0.83333   0.68508   0.00000  Uiso   1.00
O1211  O     0.92868   0.70997   0.81150   0.00000  Uiso   1.00
H1212  H     0.91631   0.69251   0.83884   0.00000  Uiso   1.00
O1213  O     0.73797   0.95669   0.68851   0.00000  Uiso   1.00
H1214  H     0.75035   0.97416   0.66117   0.00000  Uiso   1.00
O1215  O     0.92417   0.95485   0.80659   0.00000  Uiso   1.00
H1216  H     0.89406   0.97124   0.81210   0.00000  Uiso   1.00
O1217  O     0.74252   0.71181   0.69345   0.00000  Uiso   1.00
H1218  H     0.77262   0.69541   0.68795   0.00000  Uiso   1.00
O1219  O     0.86812   0.78299   0.80780   0.00000  Uiso   1.00
H1220  H     0.84156   0.76902   0.83020   0.00000  Uiso   1.00
O1221  O     0.79852   0.88372   0.69225   0.00000  Uiso   1.00
H1222  H     0.82505   0.89792   0.67003   0.00000  Uiso   1.00
Cl1223 Cl    0.75962   0.77461   0.81643   0.00000  Uiso   1.00
Cl1224 Cl    0.90706   0.89204   0.68355   0.00000  Uiso   1.00
loop_
_geom_bond_atom_site_label_1
_geom_bond_atom_site_label_2
_geom_bond_distance
_geom_bond_site_symmetry_2
_ccdc_geom_bond_type
C1     C12     1.448   .     S
C1     O47     1.295   .     A
C1     O185    1.294   1_455 S
C2     C11     1.448   .     S
C2     O48     1.295   .     A
C2     O118    1.294   .     S
C3     C5      1.387   .     A
C3     H43     1.076   .     S
C3     C32     1.417   .     A
C4     C31     1.417   .     A
C4     C6      1.386   .     A
C4     H44     1.076   .     S
C5     H35     1.085   .     S
C5     C641    1.390   1_554 S
C6     H36     1.084   .     S
C6     C642    1.390   .     S
C7     O55     1.383   .     S
C7     C417    1.407   1_545 S
C7     C80     1.404   .     S
C8     O57     1.383   .     S
C8     C214    1.407   .     S
C8     C147    1.404   1_455 S
C9     C11     1.404   .     A
C9     O59     1.382   .     S
C9     C211    1.407   .     S
C10    C12     1.404   .     A
C10    O61     1.382   .     S
C10    C416    1.407   1_545 S
C11    C76     1.404   .     S
C12    C143    1.404   1_455 S
C13    O63     1.380   .     S
C13    C15     1.436   .     A
C13    N46     1.365   .     A
C14    O65     1.380   .     S
C14    N45     1.365   .     A
C14    C16     1.436   .     A
C15    Cl67    1.764   .     S
C15    N45     1.378   .     A
C16    Cl68    1.764   .     S
C16    N46     1.378   .     A
C17    O53     1.298   .     A
C17    C19     1.467   .     S
C17    O119    1.302   .     S
C18    C20     1.468   .     S
C18    O54     1.299   .     A
C18    O188    1.302   1_455 S
C19    C23     1.398   .     A
C19    C25     1.399   .     A
C20    C24     1.399   .     A
C20    C26     1.400   .     A
C21    C29     1.404   .     A
C21    C23     1.392   .     A
C21    H41     1.083   .     S
C22    H42     1.083   .     S
C22    C24     1.392   .     A
C22    C30     1.404   .     A
C23    H108    1.083   .     S
C24    H175    1.083   1_455 S
C25    H38     1.075   .     S
C25    C27     1.406   .     A
C26    H37     1.074   .     S
C26    C28     1.406   .     A
C27    C29     1.418   .     A
C27    C31     1.427   .     A
C28    C30     1.418   .     A
C28    C32     1.428   .     A
C29    C617    1.390   .     S
C30    C618    1.390   1_554 S
C31    C644    1.425   .     S
C32    C643    1.425   1_554 S
Cu33   O51     1.954   .     S
Cu33   N45     2.025   .     S
Cu33   O47     1.960   .     S
Cu33   O54     1.940   .     S
Cu33   O50     1.958   .     S
Cu33   Cu170   2.695   1_455 S
Cu34   N46     2.025   .     S
Cu34   O53     1.940   .     S
Cu34   O48     1.960   .     S
Cu34   O49     1.958   .     S
Cu34   O52     1.954   .     S
Cu34   Cu101   2.695   .     S
H39    C92     1.083   .     S
H40    C159    1.083   1_455 S
O49    C69     1.294   .     S
O50    C138    1.294   1_455 S
O51    C153    1.302   1_455 S
O52    C86     1.302   .     S
O55    H56     0.990   .     S
O57    H58     0.990   .     S
O59    H60     0.990   .     S
O61    H62     0.990   .     S
O63    H64     0.986   .     S
O65    H66     0.986   .     S
C69    C80     1.448   .     S
C69    O115    1.295   .     A
C70    C79     1.448   .     S
C70    O116    1.295   .     A
C70    O186    1.294   .     S
C71    C73     1.387   .     A
C71    H111    1.076   .     S
C71    C100    1.417   .     A
C72    C99     1.417   .     A
C72    C74     1.386   .     A
C72    H112    1.076   .     S
C73    H103    1.085   .     S
C73    C709    1.390   1_554 S
C74    H104    1.084   .     S
C74    C710    1.390   .     S
C75    O123    1.383   .     S
C75    C485    1.407   1_545 S
C75    C148    1.404   .     S
C76    O125    1.383   .     S
C76    C282    1.407   .     S
C77    C79     1.404   .     A
C77    O127    1.382   .     S
C77    C279    1.407   .     S
C78    C80     1.404   .     A
C78    O129    1.382   .     S
C78    C484    1.407   1_545 S
C79    C144    1.404   .     S
C81    O131    1.380   .     S
C81    C83     1.436   .     A
C81    N114    1.365   .     A
C82    O133    1.380   .     S
C82    N113    1.365   .     A
C82    C84     1.436   .     A
C83    Cl135   1.764   .     S
C83    N113    1.378   .     A
C84    Cl136   1.764   .     S
C84    N114    1.378   .     A
C85    O121    1.298   .     A
C85    C87     1.467   .     S
C85    O187    1.302   .     S
C86    C88     1.468   .     S
C86    O122    1.299   .     A
C87    C91     1.398   .     A
C87    C93     1.399   .     A
C88    C92     1.399   .     A
C88    C94     1.400   .     A
C89    C97     1.404   .     A
C89    C91     1.392   .     A
C89    H109    1.083   .     S
C90    H110    1.083   .     S
C90    C92     1.392   .     A
C90    C98     1.404   .     A
C91    H176    1.083   .     S
C93    H106    1.075   .     S
C93    C95     1.406   .     A
C94    H105    1.074   .     S
C94    C96     1.406   .     A
C95    C97     1.418   .     A
C95    C99     1.427   .     A
C96    C98     1.418   .     A
C96    C100    1.428   .     A
C97    C685    1.390   .     S
C98    C686    1.390   1_554 S
C99    C712    1.425   .     S
C100   C711    1.425   1_554 S
Cu101  O119    1.954   .     S
Cu101  N113    2.025   .     S
Cu101  O115    1.960   .     S
Cu101  O122    1.940   .     S
Cu101  O118    1.958   .     S
Cu102  N114    2.025   .     S
Cu102  O121    1.940   .     S
Cu102  O116    1.960   .     S
Cu102  O117    1.958   .     S
Cu102  O120    1.954   .     S
Cu102  Cu169   2.695   .     S
H107   C160    1.083   .     S
O117   C137    1.294   .     S
O120   C154    1.302   .     S
O123   H124    0.990   .     S
O125   H126    0.990   .     S
O127   H128    0.990   .     S
O129   H130    0.990   .     S
O131   H132    0.986   .     S
O133   H134    0.986   .     S
C137   C148    1.448   .     S
C137   O183    1.295   .     A
C138   C147    1.448   .     S
C138   O184    1.295   .     A
C138   O50     1.294   1_655 S
C139   C141    1.387   .     A
C139   H179    1.076   .     S
C139   C168    1.417   .     A
C140   C167    1.417   .     A
C140   C142    1.386   .     A
C140   H180    1.076   .     S
C141   H171    1.085   .     S
C141   C777    1.390   1_554 S
C142   H172    1.084   .     S
C142   C778    1.390   .     S
C143   O191    1.383   .     S
C143   C553    1.407   1_545 S
C143   C12     1.404   1_655 S
C144   O193    1.383   .     S
C144   C350    1.407   .     S
C145   C147    1.404   .     A
C145   O195    1.382   .     S
C145   C347    1.407   .     S
C146   C148    1.404   .     A
C146   O197    1.382   .     S
C146   C552    1.407   1_545 S
C147   C8      1.404   1_655 S
C149   O199    1.380   .     S
C149   C151    1.436   .     A
C149   N182    1.365   .     A
C150   O201    1.380   .     S
C150   N181    1.365   .     A
C150   C152    1.436   .     A
C151   Cl203   1.764   .     S
C151   N181    1.378   .     A
C152   Cl204   1.764   .     S
C152   N182    1.378   .     A
C153   O189    1.298   .     A
C153   C155    1.467   .     S
C153   O51     1.302   1_655 S
C154   C156    1.468   .     S
C154   O190    1.299   .     A
C155   C159    1.398   .     A
C155   C161    1.399   .     A
C156   C160    1.399   .     A
C156   C162    1.400   .     A
C157   C165    1.404   .     A
C157   C159    1.392   .     A
C157   H177    1.083   .     S
C158   H178    1.083   .     S
C158   C160    1.392   .     A
C158   C166    1.404   .     A
C159   H40     1.083   1_655 S
C161   H174    1.075   .     S
C161   C163    1.406   .     A
C162   H173    1.074   .     S
C162   C164    1.406   .     A
C163   C165    1.418   .     A
C163   C167    1.427   .     A
C164   C166    1.418   .     A
C164   C168    1.428   .     A
C165   C753    1.390   .     S
C166   C754    1.390   1_554 S
C167   C780    1.425   .     S
C168   C779    1.425   1_554 S
Cu169  O187    1.954   .     S
Cu169  N181    2.025   .     S
Cu169  O183    1.960   .     S
Cu169  O190    1.940   .     S
Cu169  O186    1.958   .     S
Cu170  N182    2.025   .     S
Cu170  O189    1.940   .     S
Cu170  O184    1.960   .     S
Cu170  O185    1.958   .     S
Cu170  O188    1.954   .     S
Cu170  Cu33    2.695   1_655 S
H175   C24     1.083   1_655 S
O185   C1      1.294   1_655 S
O188   C18     1.302   1_655 S
O191   H192    0.990   .     S
O193   H194    0.990   .     S
O195   H196    0.990   .     S
O197   H198    0.990   .     S
O199   H200    0.986   .     S
O201   H202    0.986   .     S
C205   C216    1.448   .     S
C205   O251    1.295   .     A
C205   O389    1.294   1_455 S
C206   C215    1.448   .     S
C206   O252    1.295   .     A
C206   O322    1.294   .     S
C207   C209    1.387   .     A
C207   H247    1.076   .     S
C207   C236    1.417   .     A
C208   C235    1.417   .     A
C208   C210    1.386   .     A
C208   H248    1.076   .     S
C209   H239    1.085   .     S
C209   C845    1.390   1_554 S
C210   H240    1.084   .     S
C210   C846    1.390   .     S
C211   O259    1.383   .     S
C211   C284    1.404   .     S
C212   O261    1.383   .     S
C212   C418    1.407   .     S
C212   C351    1.404   1_455 S
C213   C215    1.404   .     A
C213   O263    1.382   .     S
C213   C415    1.407   .     S
C214   C216    1.404   .     A
C214   O265    1.382   .     S
C215   C280    1.404   .     S
C216   C347    1.404   1_455 S
C217   O267    1.380   .     S
C217   C219    1.436   .     A
C217   N250    1.365   .     A
C218   O269    1.380   .     S
C218   N249    1.365   .     A
C218   C220    1.436   .     A
C219   Cl271   1.764   .     S
C219   N249    1.378   .     A
C220   Cl272   1.764   .     S
C220   N250    1.378   .     A
C221   O257    1.298   .     A
C221   C223    1.467   .     S
C221   O323    1.302   .     S
C222   C224    1.468   .     S
C222   O258    1.299   .     A
C222   O392    1.302   1_455 S
C223   C227    1.398   .     A
C223   C229    1.399   .     A
C224   C228    1.399   .     A
C224   C230    1.400   .     A
C225   C233    1.404   .     A
C225   C227    1.392   .     A
C225   H245    1.083   .     S
C226   H246    1.083   .     S
C226   C228    1.392   .     A
C226   C234    1.404   .     A
C227   H312    1.083   .     S
C228   H379    1.083   1_455 S
C229   H242    1.075   .     S
C229   C231    1.406   .     A
C230   H241    1.074   .     S
C230   C232    1.406   .     A
C231   C233    1.418   .     A
C231   C235    1.427   .     A
C232   C234    1.418   .     A
C232   C236    1.428   .     A
C233   C821    1.390   .     S
C234   C822    1.390   1_554 S
C235   C848    1.425   .     S
C236   C847    1.425   1_554 S
Cu237  O255    1.954   .     S
Cu237  N249    2.025   .     S
Cu237  O251    1.960   .     S
Cu237  O258    1.940   .     S
Cu237  O254    1.958   .     S
Cu237  Cu374   2.695   1_455 S
Cu238  N250    2.025   .     S
Cu238  O257    1.940   .     S
Cu238  O252    1.960   .     S
Cu238  O253    1.958   .     S
Cu238  O256    1.954   .     S
Cu238  Cu305   2.695   .     S
H243   C296    1.083   .     S
H244   C363    1.083   1_455 S
O253   C273    1.294   .     S
O254   C342    1.294   1_455 S
O255   C357    1.302   1_455 S
O256   C290    1.302   .     S
O259   H260    0.990   .     S
O261   H262    0.990   .     S
O263   H264    0.990   .     S
O265   H266    0.990   .     S
O267   H268    0.986   .     S
O269   H270    0.986   .     S
C273   C284    1.448   .     S
C273   O319    1.295   .     A
C274   C283    1.448   .     S
C274   O320    1.295   .     A
C274   O390    1.294   .     S
C275   C277    1.387   .     A
C275   H315    1.076   .     S
C275   C304    1.417   .     A
C276   C303    1.417   .     A
C276   C278    1.386   .     A
C276   H316    1.076   .     S
C277   H307    1.085   .     S
C277   C913    1.390   1_554 S
C278   H308    1.084   .     S
C278   C914    1.390   .     S
C279   O327    1.383   .     S
C279   C352    1.404   .     S
C280   O329    1.383   .     S
C280   C486    1.407   .     S
C281   C283    1.404   .     A
C281   O331    1.382   .     S
C281   C483    1.407   .     S
C282   C284    1.404   .     A
C282   O333    1.382   .     S
C283   C348    1.404   .     S
C285   O335    1.380   .     S
C285   C287    1.436   .     A
C285   N318    1.365   .     A
C286   O337    1.380   .     S
C286   N317    1.365   .     A
C286   C288    1.436   .     A
C287   Cl339   1.764   .     S
C287   N317    1.378   .     A
C288   Cl340   1.764   .     S
C288   N318    1.378   .     A
C289   O325    1.298   .     A
C289   C291    1.467   .     S
C289   O391    1.302   .     S
C290   C292    1.468   .     S
C290   O326    1.299   .     A
C291   C295    1.398   .     A
C291   C297    1.399   .     A
C292   C296    1.399   .     A
C292   C298    1.400   .     A
C293   C301    1.404   .     A
C293   C295    1.392   .     A
C293   H313    1.083   .     S
C294   H314    1.083   .     S
C294   C296    1.392   .     A
C294   C302    1.404   .     A
C295   H380    1.083   .     S
C297   H310    1.075   .     S
C297   C299    1.406   .     A
C298   H309    1.074   .     S
C298   C300    1.406   .     A
C299   C301    1.418   .     A
C299   C303    1.427   .     A
C300   C302    1.418   .     A
C300   C304    1.428   .     A
C301   C889    1.390   .     S
C302   C890    1.390   1_554 S
C303   C916    1.425   .     S
C304   C915    1.425   1_554 S
Cu305  O323    1.954   .     S
Cu305  N317    2.025   .     S
Cu305  O319    1.960   .     S
Cu305  O326    1.940   .     S
Cu305  O322    1.958   .     S
Cu306  N318    2.025   .     S
Cu306  O325    1.940   .     S
Cu306  O320    1.960   .     S
Cu306  O321    1.958   .     S
Cu306  O324    1.954   .     S
Cu306  Cu373   2.695   .     S
H311   C364    1.083   .     S
O321   C341    1.294   .     S
O324   C358    1.302   .     S
O327   H328    0.990   .     S
O329   H330    0.990   .     S
O331   H332    0.990   .     S
O333   H334    0.990   .     S
O335   H336    0.986   .     S
O337   H338    0.986   .     S
C341   C352    1.448   .     S
C341   O387    1.295   .     A
C342   C351    1.448   .     S
C342   O388    1.295   .     A
C342   O254    1.294   1_655 S
C343   C345    1.387   .     A
C343   H383    1.076   .     S
C343   C372    1.417   .     A
C344   C371    1.417   .     A
C344   C346    1.386   .     A
C344   H384    1.076   .     S
C345   H375    1.085   .     S
C345   C981    1.390   1_554 S
C346   H376    1.084   .     S
C346   C982    1.390   .     S
C347   O395    1.383   .     S
C347   C216    1.404   1_655 S
C348   O397    1.383   .     S
C348   C554    1.407   .     S
C349   C351    1.404   .     A
C349   O399    1.382   .     S
C349   C551    1.407   .     S
C350   C352    1.404   .     A
C350   O401    1.382   .     S
C351   C212    1.404   1_655 S
C353   O403    1.380   .     S
C353   C355    1.436   .     A
C353   N386    1.365   .     A
C354   O405    1.380   .     S
C354   N385    1.365   .     A
C354   C356    1.436   .     A
C355   Cl407   1.764   .     S
C355   N385    1.378   .     A
C356   Cl408   1.764   .     S
C356   N386    1.378   .     A
C357   O393    1.298   .     A
C357   C359    1.467   .     S
C357   O255    1.302   1_655 S
C358   C360    1.468   .     S
C358   O394    1.299   .     A
C359   C363    1.398   .     A
C359   C365    1.399   .     A
C360   C364    1.399   .     A
C360   C366    1.400   .     A
C361   C369    1.404   .     A
C361   C363    1.392   .     A
C361   H381    1.083   .     S
C362   H382    1.083   .     S
C362   C364    1.392   .     A
C362   C370    1.404   .     A
C363   H244    1.083   1_655 S
C365   H378    1.075   .     S
C365   C367    1.406   .     A
C366   H377    1.074   .     S
C366   C368    1.406   .     A
C367   C369    1.418   .     A
C367   C371    1.427   .     A
C368   C370    1.418   .     A
C368   C372    1.428   .     A
C369   C957    1.390   .     S
C370   C958    1.390   1_554 S
C371   C984    1.425   .     S
C372   C983    1.425   1_554 S
Cu373  O391    1.954   .     S
Cu373  N385    2.025   .     S
Cu373  O387    1.960   .     S
Cu373  O394    1.940   .     S
Cu373  O390    1.958   .     S
Cu374  N386    2.025   .     S
Cu374  O393    1.940   .     S
Cu374  O388    1.960   .     S
Cu374  O389    1.958   .     S
Cu374  O392    1.954   .     S
Cu374  Cu237   2.695   1_655 S
H379   C228    1.083   1_655 S
O389   C205    1.294   1_655 S
O392   C222    1.302   1_655 S
O395   H396    0.990   .     S
O397   H398    0.990   .     S
O399   H400    0.990   .     S
O401   H402    0.990   .     S
O403   H404    0.986   .     S
O405   H406    0.986   .     S
C409   C420    1.448   .     S
C409   O455    1.295   .     A
C409   O593    1.294   1_455 S
C410   C419    1.448   .     S
C410   O456    1.295   .     A
C410   O526    1.294   .     S
C411   C413    1.387   .     A
C411   H451    1.076   .     S
C411   C440    1.417   .     A
C412   C439    1.417   .     A
C412   C414    1.386   .     A
C412   H452    1.076   .     S
C413   H443    1.085   .     S
C413   C1049   1.390   1_554 S
C414   H444    1.084   .     S
C414   C1050   1.390   .     S
C415   O463    1.383   .     S
C415   C488    1.404   .     S
C416   O465    1.383   .     S
C416   C10     1.407   1_565 S
C416   C555    1.404   1_455 S
C417   C419    1.404   .     A
C417   O467    1.382   .     S
C417   C7      1.407   1_565 S
C418   C420    1.404   .     A
C418   O469    1.382   .     S
C419   C484    1.404   .     S
C420   C551    1.404   1_455 S
C421   O471    1.380   .     S
C421   C423    1.436   .     A
C421   N454    1.365   .     A
C422   O473    1.380   .     S
C422   N453    1.365   .     A
C422   C424    1.436   .     A
C423   Cl475   1.764   .     S
C423   N453    1.378   .     A
C424   Cl476   1.764   .     S
C424   N454    1.378   .     A
C425   O461    1.298   .     A
C425   C427    1.467   .     S
C425   O527    1.302   .     S
C426   C428    1.468   .     S
C426   O462    1.299   .     A
C426   O596    1.302   1_455 S
C427   C431    1.398   .     A
C427   C433    1.399   .     A
C428   C432    1.399   .     A
C428   C434    1.400   .     A
C429   C437    1.404   .     A
C429   C431    1.392   .     A
C429   H449    1.083   .     S
C430   H450    1.083   .     S
C430   C432    1.392   .     A
C430   C438    1.404   .     A
C431   H516    1.083   .     S
C432   H583    1.083   1_455 S
C433   H446    1.075   .     S
C433   C435    1.406   .     A
C434   H445    1.074   .     S
C434   C436    1.406   .     A
C435   C437    1.418   .     A
C435   C439    1.427   .     A
C436   C438    1.418   .     A
C436   C440    1.428   .     A
C437   C1025   1.390   .     S
C438   C1026   1.390   1_554 S
C439   C1052   1.425   .     S
C440   C1051   1.425   1_554 S
Cu441  O459    1.954   .     S
Cu441  N453    2.025   .     S
Cu441  O455    1.960   .     S
Cu441  O462    1.940   .     S
Cu441  O458    1.958   .     S
Cu441  Cu578   2.695   1_455 S
Cu442  N454    2.025   .     S
Cu442  O461    1.940   .     S
Cu442  O456    1.960   .     S
Cu442  O457    1.958   .     S
Cu442  O460    1.954   .     S
Cu442  Cu509   2.695   .     S
H447   C500    1.083   .     S
H448   C567    1.083   1_455 S
O457   C477    1.294   .     S
O458   C546    1.294   1_455 S
O459   C561    1.302   1_455 S
O460   C494    1.302   .     S
O463   H464    0.990   .     S
O465   H466    0.990   .     S
O467   H468    0.990   .     S
O469   H470    0.990   .     S
O471   H472    0.986   .     S
O473   H474    0.986   .     S
C477   C488    1.448   .     S
C477   O523    1.295   .     A
C478   C487    1.448   .     S
C478   O524    1.295   .     A
C478   O594    1.294   .     S
C479   C481    1.387   .     A
C479   H519    1.076   .     S
C479   C508    1.417   .     A
C480   C507    1.417   .     A
C480   C482    1.386   .     A
C480   H520    1.076   .     S
C481   H511    1.085   .     S
C481   C1117   1.390   1_554 S
C482   H512    1.084   .     S
C482   C1118   1.390   .     S
C483   O531    1.383   .     S
C483   C556    1.404   .     S
C484   O533    1.383   .     S
C484   C78     1.407   1_565 S
C485   C487    1.404   .     A
C485   O535    1.382   .     S
C485   C75     1.407   1_565 S
C486   C488    1.404   .     A
C486   O537    1.382   .     S
C487   C552    1.404   .     S
C489   O539    1.380   .     S
C489   C491    1.436   .     A
C489   N522    1.365   .     A
C490   O541    1.380   .     S
C490   N521    1.365   .     A
C490   C492    1.436   .     A
C491   Cl543   1.764   .     S
C491   N521    1.378   .     A
C492   Cl544   1.764   .     S
C492   N522    1.378   .     A
C493   O529    1.298   .     A
C493   C495    1.467   .     S
C493   O595    1.302   .     S
C494   C496    1.468   .     S
C494   O530    1.299   .     A
C495   C499    1.398   .     A
C495   C501    1.399   .     A
C496   C500    1.399   .     A
C496   C502    1.400   .     A
C497   C505    1.404   .     A
C497   C499    1.392   .     A
C497   H517    1.083   .     S
C498   H518    1.083   .     S
C498   C500    1.392   .     A
C498   C506    1.404   .     A
C499   H584    1.083   .     S
C501   H514    1.075   .     S
C501   C503    1.406   .     A
C502   H513    1.074   .     S
C502   C504    1.406   .     A
C503   C505    1.418   .     A
C503   C507    1.427   .     A
C504   C506    1.418   .     A
C504   C508    1.428   .     A
C505   C1093   1.390   .     S
C506   C1094   1.390   1_554 S
C507   C1120   1.425   .     S
C508   C1119   1.425   1_554 S
Cu509  O527    1.954   .     S
Cu509  N521    2.025   .     S
Cu509  O523    1.960   .     S
Cu509  O530    1.940   .     S
Cu509  O526    1.958   .     S
Cu510  N522    2.025   .     S
Cu510  O529    1.940   .     S
Cu510  O524    1.960   .     S
Cu510  O525    1.958   .     S
Cu510  O528    1.954   .     S
Cu510  Cu577   2.695   .     S
H515   C568    1.083   .     S
O525   C545    1.294   .     S
O528   C562    1.302   .     S
O531   H532    0.990   .     S
O533   H534    0.990   .     S
O535   H536    0.990   .     S
O537   H538    0.990   .     S
O539   H540    0.986   .     S
O541   H542    0.986   .     S
C545   C556    1.448   .     S
C545   O591    1.295   .     A
C546   C555    1.448   .     S
C546   O592    1.295   .     A
C546   O458    1.294   1_655 S
C547   C549    1.387   .     A
C547   H587    1.076   .     S
C547   C576    1.417   .     A
C548   C575    1.417   .     A
C548   C550    1.386   .     A
C548   H588    1.076   .     S
C549   H579    1.085   .     S
C549   C1185   1.390   1_554 S
C550   H580    1.084   .     S
C550   C1186   1.390   .     S
C551   O599    1.383   .     S
C551   C420    1.404   1_655 S
C552   O601    1.383   .     S
C552   C146    1.407   1_565 S
C553   C555    1.404   .     A
C553   O603    1.382   .     S
C553   C143    1.407   1_565 S
C554   C556    1.404   .     A
C554   O605    1.382   .     S
C555   C416    1.404   1_655 S
C557   O607    1.380   .     S
C557   C559    1.436   .     A
C557   N590    1.365   .     A
C558   O609    1.380   .     S
C558   N589    1.365   .     A
C558   C560    1.436   .     A
C559   Cl611   1.764   .     S
C559   N589    1.378   .     A
C560   Cl612   1.764   .     S
C560   N590    1.378   .     A
C561   O597    1.298   .     A
C561   C563    1.467   .     S
C561   O459    1.302   1_655 S
C562   C564    1.468   .     S
C562   O598    1.299   .     A
C563   C567    1.398   .     A
C563   C569    1.399   .     A
C564   C568    1.399   .     A
C564   C570    1.400   .     A
C565   C573    1.404   .     A
C565   C567    1.392   .     A
C565   H585    1.083   .     S
C566   H586    1.083   .     S
C566   C568    1.392   .     A
C566   C574    1.404   .     A
C567   H448    1.083   1_655 S
C569   H582    1.075   .     S
C569   C571    1.406   .     A
C570   H581    1.074   .     S
C570   C572    1.406   .     A
C571   C573    1.418   .     A
C571   C575    1.427   .     A
C572   C574    1.418   .     A
C572   C576    1.428   .     A
C573   C1161   1.390   .     S
C574   C1162   1.390   1_554 S
C575   C1188   1.425   .     S
C576   C1187   1.425   1_554 S
Cu577  O595    1.954   .     S
Cu577  N589    2.025   .     S
Cu577  O591    1.960   .     S
Cu577  O598    1.940   .     S
Cu577  O594    1.958   .     S
Cu578  N590    2.025   .     S
Cu578  O597    1.940   .     S
Cu578  O592    1.960   .     S
Cu578  O593    1.958   .     S
Cu578  O596    1.954   .     S
Cu578  Cu441   2.695   1_655 S
H583   C432    1.083   1_655 S
O593   C409    1.294   1_655 S
O596   C426    1.302   1_655 S
O599   H600    0.990   .     S
O601   H602    0.990   .     S
O603   H604    0.990   .     S
O605   H606    0.990   .     S
O607   H608    0.986   .     S
O609   H610    0.986   .     S
C613   C624    1.448   .     S
C613   O659    1.295   .     A
C613   O797    1.294   1_455 S
C614   C623    1.448   .     S
C614   O660    1.295   .     A
C614   O730    1.294   .     S
C615   C617    1.387   .     A
C615   H655    1.076   .     S
C615   C644    1.417   .     A
C616   C643    1.417   .     A
C616   C618    1.386   .     A
C616   H656    1.076   .     S
C617   H647    1.085   .     S
C618   H648    1.084   .     S
C618   C30     1.390   1_556 S
C619   O667    1.383   .     S
C619   C1029   1.407   1_545 S
C619   C692    1.404   .     S
C620   O669    1.383   .     S
C620   C826    1.407   .     S
C620   C759    1.404   1_455 S
C621   C623    1.404   .     A
C621   O671    1.382   .     S
C621   C823    1.407   .     S
C622   C624    1.404   .     A
C622   O673    1.382   .     S
C622   C1028   1.407   1_545 S
C623   C688    1.404   .     S
C624   C755    1.404   1_455 S
C625   O675    1.380   .     S
C625   C627    1.436   .     A
C625   N658    1.365   .     A
C626   O677    1.380   .     S
C626   N657    1.365   .     A
C626   C628    1.436   .     A
C627   Cl679   1.764   .     S
C627   N657    1.378   .     A
C628   Cl680   1.764   .     S
C628   N658    1.378   .     A
C629   O665    1.298   .     A
C629   C631    1.467   .     S
C629   O731    1.302   .     S
C630   C632    1.468   .     S
C630   O666    1.299   .     A
C630   O800    1.302   1_455 S
C631   C635    1.398   .     A
C631   C637    1.399   .     A
C632   C636    1.399   .     A
C632   C638    1.400   .     A
C633   C641    1.404   .     A
C633   C635    1.392   .     A
C633   H653    1.083   .     S
C634   H654    1.083   .     S
C634   C636    1.392   .     A
C634   C642    1.404   .     A
C635   H720    1.083   .     S
C636   H787    1.083   1_455 S
C637   H650    1.075   .     S
C637   C639    1.406   .     A
C638   H649    1.074   .     S
C638   C640    1.406   .     A
C639   C641    1.418   .     A
C639   C643    1.427   .     A
C640   C642    1.418   .     A
C640   C644    1.428   .     A
C641   C5      1.390   1_556 S
C643   C32     1.425   1_556 S
Cu645  O663    1.954   .     S
Cu645  N657    2.025   .     S
Cu645  O659    1.960   .     S
Cu645  O666    1.940   .     S
Cu645  O662    1.958   .     S
Cu645  Cu782   2.695   1_455 S
Cu646  N658    2.025   .     S
Cu646  O665    1.940   .     S
Cu646  O660    1.960   .     S
Cu646  O661    1.958   .     S
Cu646  O664    1.954   .     S
Cu646  Cu713   2.695   .     S
H651   C704    1.083   .     S
H652   C771    1.083   1_455 S
O661   C681    1.294   .     S
O662   C750    1.294   1_455 S
O663   C765    1.302   1_455 S
O664   C698    1.302   .     S
O667   H668    0.990   .     S
O669   H670    0.990   .     S
O671   H672    0.990   .     S
O673   H674    0.990   .     S
O675   H676    0.986   .     S
O677   H678    0.986   .     S
C681   C692    1.448   .     S
C681   O727    1.295   .     A
C682   C691    1.448   .     S
C682   O728    1.295   .     A
C682   O798    1.294   .     S
C683   C685    1.387   .     A
C683   H723    1.076   .     S
C683   C712    1.417   .     A
C684   C711    1.417   .     A
C684   C686    1.386   .     A
C684   H724    1.076   .     S
C685   H715    1.085   .     S
C686   H716    1.084   .     S
C686   C98     1.390   1_556 S
C687   O735    1.383   .     S
C687   C1097   1.407   1_545 S
C687   C760    1.404   .     S
C688   O737    1.383   .     S
C688   C894    1.407   .     S
C689   C691    1.404   .     A
C689   O739    1.382   .     S
C689   C891    1.407   .     S
C690   C692    1.404   .     A
C690   O741    1.382   .     S
C690   C1096   1.407   1_545 S
C691   C756    1.404   .     S
C693   O743    1.380   .     S
C693   C695    1.436   .     A
C693   N726    1.365   .     A
C694   O745    1.380   .     S
C694   N725    1.365   .     A
C694   C696    1.436   .     A
C695   Cl747   1.764   .     S
C695   N725    1.378   .     A
C696   Cl748   1.764   .     S
C696   N726    1.378   .     A
C697   O733    1.298   .     A
C697   C699    1.467   .     S
C697   O799    1.302   .     S
C698   C700    1.468   .     S
C698   O734    1.299   .     A
C699   C703    1.398   .     A
C699   C705    1.399   .     A
C700   C704    1.399   .     A
C700   C706    1.400   .     A
C701   C709    1.404   .     A
C701   C703    1.392   .     A
C701   H721    1.083   .     S
C702   H722    1.083   .     S
C702   C704    1.392   .     A
C702   C710    1.404   .     A
C703   H788    1.083   .     S
C705   H718    1.075   .     S
C705   C707    1.406   .     A
C706   H717    1.074   .     S
C706   C708    1.406   .     A
C707   C709    1.418   .     A
C707   C711    1.427   .     A
C708   C710    1.418   .     A
C708   C712    1.428   .     A
C709   C73     1.390   1_556 S
C711   C100    1.425   1_556 S
Cu713  O731    1.954   .     S
Cu713  N725    2.025   .     S
Cu713  O727    1.960   .     S
Cu713  O734    1.940   .     S
Cu713  O730    1.958   .     S
Cu714  N726    2.025   .     S
Cu714  O733    1.940   .     S
Cu714  O728    1.960   .     S
Cu714  O729    1.958   .     S
Cu714  O732    1.954   .     S
Cu714  Cu781   2.695   .     S
H719   C772    1.083   .     S
O729   C749    1.294   .     S
O732   C766    1.302   .     S
O735   H736    0.990   .     S
O737   H738    0.990   .     S
O739   H740    0.990   .     S
O741   H742    0.990   .     S
O743   H744    0.986   .     S
O745   H746    0.986   .     S
C749   C760    1.448   .     S
C749   O795    1.295   .     A
C750   C759    1.448   .     S
C750   O796    1.295   .     A
C750   O662    1.294   1_655 S
C751   C753    1.387   .     A
C751   H791    1.076   .     S
C751   C780    1.417   .     A
C752   C779    1.417   .     A
C752   C754    1.386   .     A
C752   H792    1.076   .     S
C753   H783    1.085   .     S
C754   H784    1.084   .     S
C754   C166    1.390   1_556 S
C755   O803    1.383   .     S
C755   C1165   1.407   1_545 S
C755   C624    1.404   1_655 S
C756   O805    1.383   .     S
C756   C962    1.407   .     S
C757   C759    1.404   .     A
C757   O807    1.382   .     S
C757   C959    1.407   .     S
C758   C760    1.404   .     A
C758   O809    1.382   .     S
C758   C1164   1.407   1_545 S
C759   C620    1.404   1_655 S
C761   O811    1.380   .     S
C761   C763    1.436   .     A
C761   N794    1.365   .     A
C762   O813    1.380   .     S
C762   N793    1.365   .     A
C762   C764    1.436   .     A
C763   Cl815   1.764   .     S
C763   N793    1.378   .     A
C764   Cl816   1.764   .     S
C764   N794    1.378   .     A
C765   O801    1.298   .     A
C765   C767    1.467   .     S
C765   O663    1.302   1_655 S
C766   C768    1.468   .     S
C766   O802    1.299   .     A
C767   C771    1.398   .     A
C767   C773    1.399   .     A
C768   C772    1.399   .     A
C768   C774    1.400   .     A
C769   C777    1.404   .     A
C769   C771    1.392   .     A
C769   H789    1.083   .     S
C770   H790    1.083   .     S
C770   C772    1.392   .     A
C770   C778    1.404   .     A
C771   H652    1.083   1_655 S
C773   H786    1.075   .     S
C773   C775    1.406   .     A
C774   H785    1.074   .     S
C774   C776    1.406   .     A
C775   C777    1.418   .     A
C775   C779    1.427   .     A
C776   C778    1.418   .     A
C776   C780    1.428   .     A
C777   C141    1.390   1_556 S
C779   C168    1.425   1_556 S
Cu781  O799    1.954   .     S
Cu781  N793    2.025   .     S
Cu781  O795    1.960   .     S
Cu781  O802    1.940   .     S
Cu781  O798    1.958   .     S
Cu782  N794    2.025   .     S
Cu782  O801    1.940   .     S
Cu782  O796    1.960   .     S
Cu782  O797    1.958   .     S
Cu782  O800    1.954   .     S
Cu782  Cu645   2.695   1_655 S
H787   C636    1.083   1_655 S
O797   C613    1.294   1_655 S
O800   C630    1.302   1_655 S
O803   H804    0.990   .     S
O805   H806    0.990   .     S
O807   H808    0.990   .     S
O809   H810    0.990   .     S
O811   H812    0.986   .     S
O813   H814    0.986   .     S
C817   C828    1.448   .     S
C817   O863    1.295   .     A
C817   O1001   1.294   1_455 S
C818   C827    1.448   .     S
C818   O864    1.295   .     A
C818   O934    1.294   .     S
C819   C821    1.387   .     A
C819   H859    1.076   .     S
C819   C848    1.417   .     A
C820   C847    1.417   .     A
C820   C822    1.386   .     A
C820   H860    1.076   .     S
C821   H851    1.085   .     S
C822   H852    1.084   .     S
C822   C234    1.390   1_556 S
C823   O871    1.383   .     S
C823   C896    1.404   .     S
C824   O873    1.383   .     S
C824   C1030   1.407   .     S
C824   C963    1.404   1_455 S
C825   C827    1.404   .     A
C825   O875    1.382   .     S
C825   C1027   1.407   .     S
C826   C828    1.404   .     A
C826   O877    1.382   .     S
C827   C892    1.404   .     S
C828   C959    1.404   1_455 S
C829   O879    1.380   .     S
C829   C831    1.436   .     A
C829   N862    1.365   .     A
C830   O881    1.380   .     S
C830   N861    1.365   .     A
C830   C832    1.436   .     A
C831   Cl883   1.764   .     S
C831   N861    1.378   .     A
C832   Cl884   1.764   .     S
C832   N862    1.378   .     A
C833   O869    1.298   .     A
C833   C835    1.467   .     S
C833   O935    1.302   .     S
C834   C836    1.468   .     S
C834   O870    1.299   .     A
C834   O1004   1.302   1_455 S
C835   C839    1.398   .     A
C835   C841    1.399   .     A
C836   C840    1.399   .     A
C836   C842    1.400   .     A
C837   C845    1.404   .     A
C837   C839    1.392   .     A
C837   H857    1.083   .     S
C838   H858    1.083   .     S
C838   C840    1.392   .     A
C838   C846    1.404   .     A
C839   H924    1.083   .     S
C840   H991    1.083   1_455 S
C841   H854    1.075   .     S
C841   C843    1.406   .     A
C842   H853    1.074   .     S
C842   C844    1.406   .     A
C843   C845    1.418   .     A
C843   C847    1.427   .     A
C844   C846    1.418   .     A
C844   C848    1.428   .     A
C845   C209    1.390   1_556 S
C847   C236    1.425   1_556 S
Cu849  O867    1.954   .     S
Cu849  N861    2.025   .     S
Cu849  O863    1.960   .     S
Cu849  O870    1.940   .     S
Cu849  O866    1.958   .     S
Cu849  Cu986   2.695   1_455 S
Cu850  N862    2.025   .     S
Cu850  O869    1.940   .     S
Cu850  O864    1.960   .     S
Cu850  O865    1.958   .     S
Cu850  O868    1.954   .     S
Cu850  Cu917   2.695   .     S
H855   C908    1.083   .     S
H856   C975    1.083   1_455 S
O865   C885    1.294   .     S
O866   C954    1.294   1_455 S
O867   C969    1.302   1_455 S
O868   C902    1.302   .     S
O871   H872    0.990   .     S
O873   H874    0.990   .     S
O875   H876    0.990   .     S
O877   H878    0.990   .     S
O879   H880    0.986   .     S
O881   H882    0.986   .     S
C885   C896    1.448   .     S
C885   O931    1.295   .     A
C886   C895    1.448   .     S
C886   O932    1.295   .     A
C886   O1002   1.294   .     S
C887   C889    1.387   .     A
C887   H927    1.076   .     S
C887   C916    1.417   .     A
C888   C915    1.417   .     A
C888   C890    1.386   .     A
C888   H928    1.076   .     S
C889   H919    1.085   .     S
C890   H920    1.084   .     S
C890   C302    1.390   1_556 S
C891   O939    1.383   .     S
C891   C964    1.404   .     S
C892   O941    1.383   .     S
C892   C1098   1.407   .     S
C893   C895    1.404   .     A
C893   O943    1.382   .     S
C893   C1095   1.407   .     S
C894   C896    1.404   .     A
C894   O945    1.382   .     S
C895   C960    1.404   .     S
C897   O947    1.380   .     S
C897   C899    1.436   .     A
C897   N930    1.365   .     A
C898   O949    1.380   .     S
C898   N929    1.365   .     A
C898   C900    1.436   .     A
C899   Cl951   1.764   .     S
C899   N929    1.378   .     A
C900   Cl952   1.764   .     S
C900   N930    1.378   .     A
C901   O937    1.298   .     A
C901   C903    1.467   .     S
C901   O1003   1.302   .     S
C902   C904    1.468   .     S
C902   O938    1.299   .     A
C903   C907    1.398   .     A
C903   C909    1.399   .     A
C904   C908    1.399   .     A
C904   C910    1.400   .     A
C905   C913    1.404   .     A
C905   C907    1.392   .     A
C905   H925    1.083   .     S
C906   H926    1.083   .     S
C906   C908    1.392   .     A
C906   C914    1.404   .     A
C907   H992    1.083   .     S
C909   H922    1.075   .     S
C909   C911    1.406   .     A
C910   H921    1.074   .     S
C910   C912    1.406   .     A
C911   C913    1.418   .     A
C911   C915    1.427   .     A
C912   C914    1.418   .     A
C912   C916    1.428   .     A
C913   C277    1.390   1_556 S
C915   C304    1.425   1_556 S
Cu917  O935    1.954   .     S
Cu917  N929    2.025   .     S
Cu917  O931    1.960   .     S
Cu917  O938    1.940   .     S
Cu917  O934    1.958   .     S
Cu918  N930    2.025   .     S
Cu918  O937    1.940   .     S
Cu918  O932    1.960   .     S
Cu918  O933    1.958   .     S
Cu918  O936    1.954   .     S
Cu918  Cu985   2.695   .     S
H923   C976    1.083   .     S
O933   C953    1.294   .     S
O936   C970    1.302   .     S
O939   H940    0.990   .     S
O941   H942    0.990   .     S
O943   H944    0.990   .     S
O945   H946    0.990   .     S
O947   H948    0.986   .     S
O949   H950    0.986   .     S
C953   C964    1.448   .     S
C953   O999    1.295   .     A
C954   C963    1.448   .     S
C954   O1000   1.295   .     A
C954   O866    1.294   1_655 S
C955   C957    1.387   .     A
C955   H995    1.076   .     S
C955   C984    1.417   .     A
C956   C983    1.417   .     A
C956   C958    1.386   .     A
C956   H996    1.076   .     S
C957   H987    1.085   .     S
C958   H988    1.084   .     S
C958   C370    1.390   1_556 S
C959   O1007   1.383   .     S
C959   C828    1.404   1_655 S
C960   O1009   1.383   .     S
C960   C1166   1.407   .     S
C961   C963    1.404   .     A
C961   O1011   1.382   .     S
C961   C1163   1.407   .     S
C962   C964    1.404   .     A
C962   O1013   1.382   .     S
C963   C824    1.404   1_655 S
C965   O1015   1.380   .     S
C965   C967    1.436   .     A
C965   N998    1.365   .     A
C966   O1017   1.380   .     S
C966   N997    1.365   .     A
C966   C968    1.436   .     A
C967   Cl1019  1.764   .     S
C967   N997    1.378   .     A
C968   Cl1020  1.764   .     S
C968   N998    1.378   .     A
C969   O1005   1.298   .     A
C969   C971    1.467   .     S
C969   O867    1.302   1_655 S
C970   C972    1.468   .     S
C970   O1006   1.299   .     A
C971   C975    1.398   .     A
C971   C977    1.399   .     A
C972   C976    1.399   .     A
C972   C978    1.400   .     A
C973   C981    1.404   .     A
C973   C975    1.392   .     A
C973   H993    1.083   .     S
C974   H994    1.083   .     S
C974   C976    1.392   .     A
C974   C982    1.404   .     A
C975   H856    1.083   1_655 S
C977   H990    1.075   .     S
C977   C979    1.406   .     A
C978   H989    1.074   .     S
C978   C980    1.406   .     A
C979   C981    1.418   .     A
C979   C983    1.427   .     A
C980   C982    1.418   .     A
C980   C984    1.428   .     A
C981   C345    1.390   1_556 S
C983   C372    1.425   1_556 S
Cu985  O1003   1.954   .     S
Cu985  N997    2.025   .     S
Cu985  O999    1.960   .     S
Cu985  O1006   1.940   .     S
Cu985  O1002   1.958   .     S
Cu986  N998    2.025   .     S
Cu986  O1005   1.940   .     S
Cu986  O1000   1.960   .     S
Cu986  O1001   1.958   .     S
Cu986  O1004   1.954   .     S
Cu986  Cu849   2.695   1_655 S
H991   C840    1.083   1_655 S
O1001  C817    1.294   1_655 S
O1004  C834    1.302   1_655 S
O1007  H1008   0.990   .     S
O1009  H1010   0.990   .     S
O1011  H1012   0.990   .     S
O1013  H1014   0.990   .     S
O1015  H1016   0.986   .     S
O1017  H1018   0.986   .     S
C1021  C1032   1.448   .     S
C1021  O1067   1.295   .     A
C1021  O1205   1.294   1_455 S
C1022  C1031   1.448   .     S
C1022  O1068   1.295   .     A
C1022  O1138   1.294   .     S
C1023  C1025   1.387   .     A
C1023  H1063   1.076   .     S
C1023  C1052   1.417   .     A
C1024  C1051   1.417   .     A
C1024  C1026   1.386   .     A
C1024  H1064   1.076   .     S
C1025  H1055   1.085   .     S
C1026  H1056   1.084   .     S
C1026  C438    1.390   1_556 S
C1027  O1075   1.383   .     S
C1027  C1100   1.404   .     S
C1028  O1077   1.383   .     S
C1028  C622    1.407   1_565 S
C1028  C1167   1.404   1_455 S
C1029  C1031   1.404   .     A
C1029  O1079   1.382   .     S
C1029  C619    1.407   1_565 S
C1030  C1032   1.404   .     A
C1030  O1081   1.382   .     S
C1031  C1096   1.404   .     S
C1032  C1163   1.404   1_455 S
C1033  O1083   1.380   .     S
C1033  C1035   1.436   .     A
C1033  N1066   1.365   .     A
C1034  O1085   1.380   .     S
C1034  N1065   1.365   .     A
C1034  C1036   1.436   .     A
C1035  Cl1087  1.764   .     S
C1035  N1065   1.378   .     A
C1036  Cl1088  1.764   .     S
C1036  N1066   1.378   .     A
C1037  O1073   1.298   .     A
C1037  C1039   1.467   .     S
C1037  O1139   1.302   .     S
C1038  C1040   1.468   .     S
C1038  O1074   1.299   .     A
C1038  O1208   1.302   1_455 S
C1039  C1043   1.398   .     A
C1039  C1045   1.399   .     A
C1040  C1044   1.399   .     A
C1040  C1046   1.400   .     A
C1041  C1049   1.404   .     A
C1041  C1043   1.392   .     A
C1041  H1061   1.083   .     S
C1042  H1062   1.083   .     S
C1042  C1044   1.392   .     A
C1042  C1050   1.404   .     A
C1043  H1128   1.083   .     S
C1044  H1195   1.083   1_455 S
C1045  H1058   1.075   .     S
C1045  C1047   1.406   .     A
C1046  H1057   1.074   .     S
C1046  C1048   1.406   .     A
C1047  C1049   1.418   .     A
C1047  C1051   1.427   .     A
C1048  C1050   1.418   .     A
C1048  C1052   1.428   .     A
C1049  C413    1.390   1_556 S
C1051  C440    1.425   1_556 S
Cu1053 O1071   1.954   .     S
Cu1053 N1065   2.025   .     S
Cu1053 O1067   1.960   .     S
Cu1053 O1074   1.940   .     S
Cu1053 O1070   1.958   .     S
Cu1053 Cu1190  2.695   1_455 S
Cu1054 N1066   2.025   .     S
Cu1054 O1073   1.940   .     S
Cu1054 O1068   1.960   .     S
Cu1054 O1069   1.958   .     S
Cu1054 O1072   1.954   .     S
Cu1054 Cu1121  2.695   .     S
H1059  C1112   1.083   .     S
H1060  C1179   1.083   1_455 S
O1069  C1089   1.294   .     S
O1070  C1158   1.294   1_455 S
O1071  C1173   1.302   1_455 S
O1072  C1106   1.302   .     S
O1075  H1076   0.990   .     S
O1077  H1078   0.990   .     S
O1079  H1080   0.990   .     S
O1081  H1082   0.990   .     S
O1083  H1084   0.986   .     S
O1085  H1086   0.986   .     S
C1089  C1100   1.448   .     S
C1089  O1135   1.295   .     A
C1090  C1099   1.448   .     S
C1090  O1136   1.295   .     A
C1090  O1206   1.294   .     S
C1091  C1093   1.387   .     A
C1091  H1131   1.076   .     S
C1091  C1120   1.417   .     A
C1092  C1119   1.417   .     A
C1092  C1094   1.386   .     A
C1092  H1132   1.076   .     S
C1093  H1123   1.085   .     S
C1094  H1124   1.084   .     S
C1094  C506    1.390   1_556 S
C1095  O1143   1.383   .     S
C1095  C1168   1.404   .     S
C1096  O1145   1.383   .     S
C1096  C690    1.407   1_565 S
C1097  C1099   1.404   .     A
C1097  O1147   1.382   .     S
C1097  C687    1.407   1_565 S
C1098  C1100   1.404   .     A
C1098  O1149   1.382   .     S
C1099  C1164   1.404   .     S
C1101  O1151   1.380   .     S
C1101  C1103   1.436   .     A
C1101  N1134   1.365   .     A
C1102  O1153   1.380   .     S
C1102  N1133   1.365   .     A
C1102  C1104   1.436   .     A
C1103  Cl1155  1.764   .     S
C1103  N1133   1.378   .     A
C1104  Cl1156  1.764   .     S
C1104  N1134   1.378   .     A
C1105  O1141   1.298   .     A
C1105  C1107   1.467   .     S
C1105  O1207   1.302   .     S
C1106  C1108   1.468   .     S
C1106  O1142   1.299   .     A
C1107  C1111   1.398   .     A
C1107  C1113   1.399   .     A
C1108  C1112   1.399   .     A
C1108  C1114   1.400   .     A
C1109  C1117   1.404   .     A
C1109  C1111   1.392   .     A
C1109  H1129   1.083   .     S
C1110  H1130   1.083   .     S
C1110  C1112   1.392   .     A
C1110  C1118   1.404   .     A
C1111  H1196   1.083   .     S
C1113  H1126   1.075   .     S
C1113  C1115   1.406   .     A
C1114  H1125   1.074   .     S
C1114  C1116   1.406   .     A
C1115  C1117   1.418   .     A
C1115  C1119   1.427   .     A
C1116  C1118   1.418   .     A
C1116  C1120   1.428   .     A
C1117  C481    1.390   1_556 S
C1119  C508    1.425   1_556 S
Cu1121 O1139   1.954   .     S
Cu1121 N1133   2.025   .     S
Cu1121 O1135   1.960   .     S
Cu1121 O1142   1.940   .     S
Cu1121 O1138   1.958   .     S
Cu1122 N1134   2.025   .     S
Cu1122 O1141   1.940   .     S
Cu1122 O1136   1.960   .     S
Cu1122 O1137   1.958   .     S
Cu1122 O1140   1.954   .     S
Cu1122 Cu1189  2.695   .     S
H1127  C1180   1.083   .     S
O1137  C1157   1.294   .     S
O1140  C1174   1.302   .     S
O1143  H1144   0.990   .     S
O1145  H1146   0.990   .     S
O1147  H1148   0.990   .     S
O1149  H1150   0.990   .     S
O1151  H1152   0.986   .     S
O1153  H1154   0.986   .     S
C1157  C1168   1.448   .     S
C1157  O1203   1.295   .     A
C1158  C1167   1.448   .     S
C1158  O1204   1.295   .     A
C1158  O1070   1.294   1_655 S
C1159  C1161   1.387   .     A
C1159  H1199   1.076   .     S
C1159  C1188   1.417   .     A
C1160  C1187   1.417   .     A
C1160  C1162   1.386   .     A
C1160  H1200   1.076   .     S
C1161  H1191   1.085   .     S
C1162  H1192   1.084   .     S
C1162  C574    1.390   1_556 S
C1163  O1211   1.383   .     S
C1163  C1032   1.404   1_655 S
C1164  O1213   1.383   .     S
C1164  C758    1.407   1_565 S
C1165  C1167   1.404   .     A
C1165  O1215   1.382   .     S
C1165  C755    1.407   1_565 S
C1166  C1168   1.404   .     A
C1166  O1217   1.382   .     S
C1167  C1028   1.404   1_655 S
C1169  O1219   1.380   .     S
C1169  C1171   1.436   .     A
C1169  N1202   1.365   .     A
C1170  O1221   1.380   .     S
C1170  N1201   1.365   .     A
C1170  C1172   1.436   .     A
C1171  Cl1223  1.764   .     S
C1171  N1201   1.378   .     A
C1172  Cl1224  1.764   .     S
C1172  N1202   1.378   .     A
C1173  O1209   1.298   .     A
C1173  C1175   1.467   .     S
C1173  O1071   1.302   1_655 S
C1174  C1176   1.468   .     S
C1174  O1210   1.299   .     A
C1175  C1179   1.398   .     A
C1175  C1181   1.399   .     A
C1176  C1180   1.399   .     A
C1176  C1182   1.400   .     A
C1177  C1185   1.404   .     A
C1177  C1179   1.392   .     A
C1177  H1197   1.083   .     S
C1178  H1198   1.083   .     S
C1178  C1180   1.392   .     A
C1178  C1186   1.404   .     A
C1179  H1060   1.083   1_655 S
C1181  H1194   1.075   .     S
C1181  C1183   1.406   .     A
C1182  H1193   1.074   .     S
C1182  C1184   1.406   .     A
C1183  C1185   1.418   .     A
C1183  C1187   1.427   .     A
C1184  C1186   1.418   .     A
C1184  C1188   1.428   .     A
C1185  C549    1.390   1_556 S
C1187  C576    1.425   1_556 S
Cu1189 O1207   1.954   .     S
Cu1189 N1201   2.025   .     S
Cu1189 O1203   1.960   .     S
Cu1189 O1210   1.940   .     S
Cu1189 O1206   1.958   .     S
Cu1190 N1202   2.025   .     S
Cu1190 O1209   1.940   .     S
Cu1190 O1204   1.960   .     S
Cu1190 O1205   1.958   .     S
Cu1190 O1208   1.954   .     S
Cu1190 Cu1053  2.695   1_655 S
H1195  C1044   1.083   1_655 S
O1205  C1021   1.294   1_655 S
O1208  C1038   1.302   1_655 S
O1211  H1212   0.990   .     S
O1213  H1214   0.990   .     S
O1215  H1216   0.990   .     S
O1217  H1218   0.990   .     S
O1219  H1220   0.986   .     S
O1221  H1222   0.986   .     S
