data_str_m2_o10_o17_pcu_sym.113
_audit_creation_date              2020-01-03
_audit_creation_method            'Materials Studio'
_symmetry_space_group_name_H-M    'P1'
_symmetry_Int_Tables_number       1
_symmetry_cell_setting            triclinic
loop_
_symmetry_equiv_pos_as_xyz
  x,y,z
_cell_length_a                    30.1017
_cell_length_b                    26.0383
_cell_length_c                    22.3892
_cell_angle_alpha                 103.1785
_cell_angle_beta                  94.2076
_cell_angle_gamma                 92.9238
loop_
_atom_site_label
_atom_site_type_symbol
_atom_site_fract_x
_atom_site_fract_y
_atom_site_fract_z
_atom_site_U_iso_or_equiv
_atom_site_adp_type
_atom_site_occupancy
C1     C     0.24863   0.06655   0.15102   0.00000  Uiso   1.00
C2     C     0.25137   0.26678   0.18232   0.00000  Uiso   1.00
C3     C     0.01780   0.10053   0.07132   0.00000  Uiso   1.00
C4     C     0.48220   0.23281   0.26201   0.00000  Uiso   1.00
C5     C     0.24801   0.01051   0.14229   0.00000  Uiso   1.00
C6     C     0.25199   0.32283   0.19105   0.00000  Uiso   1.00
C7     C     0.16459   0.16795   0.16773   0.00000  Uiso   1.00
C8     C     0.33541   0.16538   0.16560   0.00000  Uiso   1.00
C9     C     0.41018   0.19803   0.21174   0.00000  Uiso   1.00
C10    C     0.08982   0.13531   0.12159   0.00000  Uiso   1.00
C11    C     0.38357   0.16421   0.16375   0.00000  Uiso   1.00
C12    C     0.11643   0.16913   0.16958   0.00000  Uiso   1.00
C13    C     0.40287   0.12972   0.11606   0.00000  Uiso   1.00
C14    C     0.09713   0.20362   0.21727   0.00000  Uiso   1.00
C15    C     0.44992   0.13096   0.11612   0.00000  Uiso   1.00
C16    C     0.05008   0.20238   0.21722   0.00000  Uiso   1.00
C17    C     0.47652   0.16581   0.16558   0.00000  Uiso   1.00
C18    C     0.02348   0.16752   0.16775   0.00000  Uiso   1.00
C19    C     0.45627   0.19894   0.21320   0.00000  Uiso   1.00
C20    C     0.04373   0.13440   0.12013   0.00000  Uiso   1.00
C21    C     0.47152   0.09865   0.06884   0.00000  Uiso   1.00
C22    C     0.02848   0.23469   0.26449   0.00000  Uiso   1.00
Cu23   Cu    0.25501   0.17246   0.22813   0.00000  Uiso   1.00
Cu24   Cu    0.24500   0.16087   0.10521   0.00000  Uiso   1.00
H25    H     0.39475   0.22416   0.24817   0.00000  Uiso   1.00
H26    H     0.10525   0.10918   0.08516   0.00000  Uiso   1.00
H27    H     0.03348   0.07529   0.03449   0.00000  Uiso   1.00
H28    H     0.46652   0.25805   0.29883   0.00000  Uiso   1.00
H29    H     0.24427   0.31978   0.09539   0.00000  Uiso   1.00
H30    H     0.25573   0.01355   0.23794   0.00000  Uiso   1.00
N31    N     0.23745   0.15214   0.01284   0.00000  Uiso   1.00
N32    N     0.26256   0.18119   0.32049   0.00000  Uiso   1.00
O33    O     0.25326   0.09538   0.20659   0.00000  Uiso   1.00
O34    O     0.24675   0.23796   0.12674   0.00000  Uiso   1.00
O35    O     0.24480   0.08559   0.10279   0.00000  Uiso   1.00
O36    O     0.25520   0.24774   0.23055   0.00000  Uiso   1.00
O37    O     0.18936   0.17155   0.21857   0.00000  Uiso   1.00
O38    O     0.31065   0.16179   0.11476   0.00000  Uiso   1.00
O39    O     0.18090   0.16176   0.11477   0.00000  Uiso   1.00
O40    O     0.31910   0.17157   0.21857   0.00000  Uiso   1.00
Cl41   Cl    0.36762   0.08289   0.06022   0.00000  Uiso   1.00
Cl42   Cl    0.13238   0.25044   0.27312   0.00000  Uiso   1.00
F43    F     0.44883   0.06544   0.01923   0.00000  Uiso   1.00
F44    F     0.05117   0.26790   0.31410   0.00000  Uiso   1.00
F45    F     0.20691   0.11880   0.30844   0.00000  Uiso   1.00
F46    F     0.29309   0.21453   0.02489   0.00000  Uiso   1.00
C47    C     0.74863   0.06655   0.15102   0.00000  Uiso   1.00
C48    C     0.75137   0.26678   0.18232   0.00000  Uiso   1.00
C49    C     0.51780   0.10053   0.07132   0.00000  Uiso   1.00
C50    C     0.98220   0.23281   0.26201   0.00000  Uiso   1.00
C51    C     0.74801   0.01051   0.14229   0.00000  Uiso   1.00
C52    C     0.75199   0.32283   0.19105   0.00000  Uiso   1.00
C53    C     0.66459   0.16795   0.16773   0.00000  Uiso   1.00
C54    C     0.83541   0.16538   0.16560   0.00000  Uiso   1.00
C55    C     0.91018   0.19803   0.21174   0.00000  Uiso   1.00
C56    C     0.58982   0.13531   0.12159   0.00000  Uiso   1.00
C57    C     0.88357   0.16421   0.16375   0.00000  Uiso   1.00
C58    C     0.61643   0.16913   0.16958   0.00000  Uiso   1.00
C59    C     0.90287   0.12972   0.11606   0.00000  Uiso   1.00
C60    C     0.59713   0.20362   0.21727   0.00000  Uiso   1.00
C61    C     0.94992   0.13096   0.11612   0.00000  Uiso   1.00
C62    C     0.55008   0.20238   0.21722   0.00000  Uiso   1.00
C63    C     0.97652   0.16581   0.16558   0.00000  Uiso   1.00
C64    C     0.52348   0.16752   0.16775   0.00000  Uiso   1.00
C65    C     0.95627   0.19894   0.21320   0.00000  Uiso   1.00
C66    C     0.54373   0.13440   0.12013   0.00000  Uiso   1.00
C67    C     0.97152   0.09865   0.06884   0.00000  Uiso   1.00
C68    C     0.52848   0.23469   0.26449   0.00000  Uiso   1.00
Cu69   Cu    0.75501   0.17246   0.22813   0.00000  Uiso   1.00
Cu70   Cu    0.74500   0.16087   0.10521   0.00000  Uiso   1.00
H71    H     0.89475   0.22416   0.24817   0.00000  Uiso   1.00
H72    H     0.60525   0.10918   0.08516   0.00000  Uiso   1.00
H73    H     0.53348   0.07529   0.03449   0.00000  Uiso   1.00
H74    H     0.96652   0.25805   0.29883   0.00000  Uiso   1.00
H75    H     0.74427   0.31978   0.09539   0.00000  Uiso   1.00
H76    H     0.75573   0.01355   0.23794   0.00000  Uiso   1.00
N77    N     0.73745   0.15214   0.01284   0.00000  Uiso   1.00
N78    N     0.76256   0.18119   0.32049   0.00000  Uiso   1.00
O79    O     0.75326   0.09538   0.20659   0.00000  Uiso   1.00
O80    O     0.74675   0.23796   0.12674   0.00000  Uiso   1.00
O81    O     0.74480   0.08559   0.10279   0.00000  Uiso   1.00
O82    O     0.75520   0.24774   0.23055   0.00000  Uiso   1.00
O83    O     0.68936   0.17155   0.21857   0.00000  Uiso   1.00
O84    O     0.81065   0.16179   0.11476   0.00000  Uiso   1.00
O85    O     0.68090   0.16176   0.11477   0.00000  Uiso   1.00
O86    O     0.81910   0.17157   0.21857   0.00000  Uiso   1.00
Cl87   Cl    0.86762   0.08289   0.06022   0.00000  Uiso   1.00
Cl88   Cl    0.63238   0.25044   0.27312   0.00000  Uiso   1.00
F89    F     0.94883   0.06544   0.01923   0.00000  Uiso   1.00
F90    F     0.55117   0.26790   0.31410   0.00000  Uiso   1.00
F91    F     0.70691   0.11880   0.30844   0.00000  Uiso   1.00
F92    F     0.79309   0.21453   0.02489   0.00000  Uiso   1.00
C93    C     0.24863   0.39989   0.15102   0.00000  Uiso   1.00
C94    C     0.25137   0.60012   0.18232   0.00000  Uiso   1.00
C95    C     0.01780   0.43386   0.07132   0.00000  Uiso   1.00
C96    C     0.48220   0.56614   0.26201   0.00000  Uiso   1.00
C97    C     0.24801   0.34384   0.14229   0.00000  Uiso   1.00
C98    C     0.25199   0.65616   0.19105   0.00000  Uiso   1.00
C99    C     0.16459   0.50128   0.16773   0.00000  Uiso   1.00
C100   C     0.33541   0.49872   0.16560   0.00000  Uiso   1.00
C101   C     0.41018   0.53136   0.21174   0.00000  Uiso   1.00
C102   C     0.08982   0.46864   0.12159   0.00000  Uiso   1.00
C103   C     0.38357   0.49754   0.16375   0.00000  Uiso   1.00
C104   C     0.11643   0.50246   0.16958   0.00000  Uiso   1.00
C105   C     0.40287   0.46305   0.11606   0.00000  Uiso   1.00
C106   C     0.09713   0.53695   0.21727   0.00000  Uiso   1.00
C107   C     0.44992   0.46429   0.11612   0.00000  Uiso   1.00
C108   C     0.05008   0.53571   0.21722   0.00000  Uiso   1.00
C109   C     0.47652   0.49915   0.16558   0.00000  Uiso   1.00
C110   C     0.02348   0.50085   0.16775   0.00000  Uiso   1.00
C111   C     0.45627   0.53227   0.21320   0.00000  Uiso   1.00
C112   C     0.04373   0.46773   0.12013   0.00000  Uiso   1.00
C113   C     0.47152   0.43198   0.06884   0.00000  Uiso   1.00
C114   C     0.02848   0.56802   0.26449   0.00000  Uiso   1.00
Cu115  Cu    0.25501   0.50579   0.22813   0.00000  Uiso   1.00
Cu116  Cu    0.24500   0.49421   0.10521   0.00000  Uiso   1.00
H117   H     0.39475   0.55749   0.24817   0.00000  Uiso   1.00
H118   H     0.10525   0.44251   0.08516   0.00000  Uiso   1.00
H119   H     0.03348   0.40863   0.03449   0.00000  Uiso   1.00
H120   H     0.46652   0.59138   0.29883   0.00000  Uiso   1.00
H121   H     0.24427   0.65311   0.09539   0.00000  Uiso   1.00
H122   H     0.25573   0.34689   0.23794   0.00000  Uiso   1.00
N123   N     0.23745   0.48547   0.01284   0.00000  Uiso   1.00
N124   N     0.26256   0.51453   0.32049   0.00000  Uiso   1.00
O125   O     0.25326   0.42871   0.20659   0.00000  Uiso   1.00
O126   O     0.24675   0.57129   0.12674   0.00000  Uiso   1.00
O127   O     0.24480   0.41892   0.10279   0.00000  Uiso   1.00
O128   O     0.25520   0.58108   0.23055   0.00000  Uiso   1.00
O129   O     0.18936   0.50488   0.21857   0.00000  Uiso   1.00
O130   O     0.31065   0.49512   0.11476   0.00000  Uiso   1.00
O131   O     0.18090   0.49510   0.11477   0.00000  Uiso   1.00
O132   O     0.31910   0.50490   0.21857   0.00000  Uiso   1.00
Cl133  Cl    0.36762   0.41622   0.06022   0.00000  Uiso   1.00
Cl134  Cl    0.13238   0.58377   0.27312   0.00000  Uiso   1.00
F135   F     0.44883   0.39877   0.01923   0.00000  Uiso   1.00
F136   F     0.05117   0.60123   0.31410   0.00000  Uiso   1.00
F137   F     0.20691   0.45214   0.30844   0.00000  Uiso   1.00
F138   F     0.29309   0.54786   0.02489   0.00000  Uiso   1.00
C139   C     0.74863   0.39989   0.15102   0.00000  Uiso   1.00
C140   C     0.75137   0.60012   0.18232   0.00000  Uiso   1.00
C141   C     0.51780   0.43386   0.07132   0.00000  Uiso   1.00
C142   C     0.98220   0.56614   0.26201   0.00000  Uiso   1.00
C143   C     0.74801   0.34384   0.14229   0.00000  Uiso   1.00
C144   C     0.75199   0.65616   0.19105   0.00000  Uiso   1.00
C145   C     0.66459   0.50128   0.16773   0.00000  Uiso   1.00
C146   C     0.83541   0.49872   0.16560   0.00000  Uiso   1.00
C147   C     0.91018   0.53136   0.21174   0.00000  Uiso   1.00
C148   C     0.58982   0.46864   0.12159   0.00000  Uiso   1.00
C149   C     0.88357   0.49754   0.16375   0.00000  Uiso   1.00
C150   C     0.61643   0.50246   0.16958   0.00000  Uiso   1.00
C151   C     0.90287   0.46305   0.11606   0.00000  Uiso   1.00
C152   C     0.59713   0.53695   0.21727   0.00000  Uiso   1.00
C153   C     0.94992   0.46429   0.11612   0.00000  Uiso   1.00
C154   C     0.55008   0.53571   0.21722   0.00000  Uiso   1.00
C155   C     0.97652   0.49915   0.16558   0.00000  Uiso   1.00
C156   C     0.52348   0.50085   0.16775   0.00000  Uiso   1.00
C157   C     0.95627   0.53227   0.21320   0.00000  Uiso   1.00
C158   C     0.54373   0.46773   0.12013   0.00000  Uiso   1.00
C159   C     0.97152   0.43198   0.06884   0.00000  Uiso   1.00
C160   C     0.52848   0.56802   0.26449   0.00000  Uiso   1.00
Cu161  Cu    0.75501   0.50579   0.22813   0.00000  Uiso   1.00
Cu162  Cu    0.74500   0.49421   0.10521   0.00000  Uiso   1.00
H163   H     0.89475   0.55749   0.24817   0.00000  Uiso   1.00
H164   H     0.60525   0.44251   0.08516   0.00000  Uiso   1.00
H165   H     0.53348   0.40863   0.03449   0.00000  Uiso   1.00
H166   H     0.96652   0.59138   0.29883   0.00000  Uiso   1.00
H167   H     0.74427   0.65311   0.09539   0.00000  Uiso   1.00
H168   H     0.75573   0.34689   0.23794   0.00000  Uiso   1.00
N169   N     0.73745   0.48547   0.01284   0.00000  Uiso   1.00
N170   N     0.76256   0.51453   0.32049   0.00000  Uiso   1.00
O171   O     0.75326   0.42871   0.20659   0.00000  Uiso   1.00
O172   O     0.74675   0.57129   0.12674   0.00000  Uiso   1.00
O173   O     0.74480   0.41892   0.10279   0.00000  Uiso   1.00
O174   O     0.75520   0.58108   0.23055   0.00000  Uiso   1.00
O175   O     0.68936   0.50488   0.21857   0.00000  Uiso   1.00
O176   O     0.81065   0.49512   0.11476   0.00000  Uiso   1.00
O177   O     0.68090   0.49510   0.11477   0.00000  Uiso   1.00
O178   O     0.81910   0.50490   0.21857   0.00000  Uiso   1.00
Cl179  Cl    0.86762   0.41622   0.06022   0.00000  Uiso   1.00
Cl180  Cl    0.63238   0.58377   0.27312   0.00000  Uiso   1.00
F181   F     0.94883   0.39877   0.01923   0.00000  Uiso   1.00
F182   F     0.55117   0.60123   0.31410   0.00000  Uiso   1.00
F183   F     0.70691   0.45214   0.30844   0.00000  Uiso   1.00
F184   F     0.79309   0.54786   0.02489   0.00000  Uiso   1.00
C185   C     0.24863   0.73322   0.15102   0.00000  Uiso   1.00
C186   C     0.25137   0.93345   0.18232   0.00000  Uiso   1.00
C187   C     0.01780   0.76720   0.07132   0.00000  Uiso   1.00
C188   C     0.48220   0.89948   0.26201   0.00000  Uiso   1.00
C189   C     0.24801   0.67717   0.14229   0.00000  Uiso   1.00
C190   C     0.25199   0.98949   0.19105   0.00000  Uiso   1.00
C191   C     0.16459   0.83462   0.16773   0.00000  Uiso   1.00
C192   C     0.33541   0.83205   0.16560   0.00000  Uiso   1.00
C193   C     0.41018   0.86469   0.21174   0.00000  Uiso   1.00
C194   C     0.08982   0.80197   0.12159   0.00000  Uiso   1.00
C195   C     0.38357   0.83087   0.16375   0.00000  Uiso   1.00
C196   C     0.11643   0.83579   0.16958   0.00000  Uiso   1.00
C197   C     0.40287   0.79638   0.11606   0.00000  Uiso   1.00
C198   C     0.09713   0.87028   0.21727   0.00000  Uiso   1.00
C199   C     0.44992   0.79763   0.11612   0.00000  Uiso   1.00
C200   C     0.05008   0.86904   0.21722   0.00000  Uiso   1.00
C201   C     0.47652   0.83248   0.16558   0.00000  Uiso   1.00
C202   C     0.02348   0.83419   0.16775   0.00000  Uiso   1.00
C203   C     0.45627   0.86561   0.21320   0.00000  Uiso   1.00
C204   C     0.04373   0.80106   0.12013   0.00000  Uiso   1.00
C205   C     0.47152   0.76531   0.06884   0.00000  Uiso   1.00
C206   C     0.02848   0.90136   0.26449   0.00000  Uiso   1.00
Cu207  Cu    0.25501   0.83913   0.22813   0.00000  Uiso   1.00
Cu208  Cu    0.24500   0.82754   0.10521   0.00000  Uiso   1.00
H209   H     0.39475   0.89083   0.24817   0.00000  Uiso   1.00
H210   H     0.10525   0.77584   0.08516   0.00000  Uiso   1.00
H211   H     0.03348   0.74196   0.03449   0.00000  Uiso   1.00
H212   H     0.46652   0.92471   0.29883   0.00000  Uiso   1.00
H213   H     0.24427   0.98645   0.09539   0.00000  Uiso   1.00
H214   H     0.25573   0.68022   0.23794   0.00000  Uiso   1.00
N215   N     0.23745   0.81881   0.01284   0.00000  Uiso   1.00
N216   N     0.26256   0.84786   0.32049   0.00000  Uiso   1.00
O217   O     0.25326   0.76204   0.20659   0.00000  Uiso   1.00
O218   O     0.24675   0.90462   0.12674   0.00000  Uiso   1.00
O219   O     0.24480   0.75226   0.10279   0.00000  Uiso   1.00
O220   O     0.25520   0.91441   0.23055   0.00000  Uiso   1.00
O221   O     0.18936   0.83821   0.21857   0.00000  Uiso   1.00
O222   O     0.31065   0.82845   0.11476   0.00000  Uiso   1.00
O223   O     0.18090   0.82843   0.11477   0.00000  Uiso   1.00
O224   O     0.31910   0.83824   0.21857   0.00000  Uiso   1.00
Cl225  Cl    0.36762   0.74956   0.06022   0.00000  Uiso   1.00
Cl226  Cl    0.13238   0.91711   0.27312   0.00000  Uiso   1.00
F227   F     0.44883   0.73211   0.01923   0.00000  Uiso   1.00
F228   F     0.05117   0.93457   0.31410   0.00000  Uiso   1.00
F229   F     0.20691   0.78547   0.30844   0.00000  Uiso   1.00
F230   F     0.29309   0.88120   0.02489   0.00000  Uiso   1.00
C231   C     0.74863   0.73322   0.15102   0.00000  Uiso   1.00
C232   C     0.75137   0.93345   0.18232   0.00000  Uiso   1.00
C233   C     0.51780   0.76720   0.07132   0.00000  Uiso   1.00
C234   C     0.98220   0.89948   0.26201   0.00000  Uiso   1.00
C235   C     0.74801   0.67717   0.14229   0.00000  Uiso   1.00
C236   C     0.75199   0.98949   0.19105   0.00000  Uiso   1.00
C237   C     0.66459   0.83462   0.16773   0.00000  Uiso   1.00
C238   C     0.83541   0.83205   0.16560   0.00000  Uiso   1.00
C239   C     0.91018   0.86469   0.21174   0.00000  Uiso   1.00
C240   C     0.58982   0.80197   0.12159   0.00000  Uiso   1.00
C241   C     0.88357   0.83087   0.16375   0.00000  Uiso   1.00
C242   C     0.61643   0.83579   0.16958   0.00000  Uiso   1.00
C243   C     0.90287   0.79638   0.11606   0.00000  Uiso   1.00
C244   C     0.59713   0.87028   0.21727   0.00000  Uiso   1.00
C245   C     0.94992   0.79763   0.11612   0.00000  Uiso   1.00
C246   C     0.55008   0.86904   0.21722   0.00000  Uiso   1.00
C247   C     0.97652   0.83248   0.16558   0.00000  Uiso   1.00
C248   C     0.52348   0.83419   0.16775   0.00000  Uiso   1.00
C249   C     0.95627   0.86561   0.21320   0.00000  Uiso   1.00
C250   C     0.54373   0.80106   0.12013   0.00000  Uiso   1.00
C251   C     0.97152   0.76531   0.06884   0.00000  Uiso   1.00
C252   C     0.52848   0.90136   0.26449   0.00000  Uiso   1.00
Cu253  Cu    0.75501   0.83913   0.22813   0.00000  Uiso   1.00
Cu254  Cu    0.74500   0.82754   0.10521   0.00000  Uiso   1.00
H255   H     0.89475   0.89083   0.24817   0.00000  Uiso   1.00
H256   H     0.60525   0.77584   0.08516   0.00000  Uiso   1.00
H257   H     0.53348   0.74196   0.03449   0.00000  Uiso   1.00
H258   H     0.96652   0.92471   0.29883   0.00000  Uiso   1.00
H259   H     0.74427   0.98645   0.09539   0.00000  Uiso   1.00
H260   H     0.75573   0.68022   0.23794   0.00000  Uiso   1.00
N261   N     0.73745   0.81881   0.01284   0.00000  Uiso   1.00
N262   N     0.76256   0.84786   0.32049   0.00000  Uiso   1.00
O263   O     0.75326   0.76204   0.20659   0.00000  Uiso   1.00
O264   O     0.74675   0.90462   0.12674   0.00000  Uiso   1.00
O265   O     0.74480   0.75226   0.10279   0.00000  Uiso   1.00
O266   O     0.75520   0.91441   0.23055   0.00000  Uiso   1.00
O267   O     0.68936   0.83821   0.21857   0.00000  Uiso   1.00
O268   O     0.81065   0.82845   0.11476   0.00000  Uiso   1.00
O269   O     0.68090   0.82843   0.11477   0.00000  Uiso   1.00
O270   O     0.81910   0.83824   0.21857   0.00000  Uiso   1.00
Cl271  Cl    0.86762   0.74956   0.06022   0.00000  Uiso   1.00
Cl272  Cl    0.63238   0.91711   0.27312   0.00000  Uiso   1.00
F273   F     0.94883   0.73211   0.01923   0.00000  Uiso   1.00
F274   F     0.55117   0.93457   0.31410   0.00000  Uiso   1.00
F275   F     0.70691   0.78547   0.30844   0.00000  Uiso   1.00
F276   F     0.79309   0.88120   0.02489   0.00000  Uiso   1.00
C277   C     0.24863   0.06655   0.48435   0.00000  Uiso   1.00
C278   C     0.25137   0.26678   0.51565   0.00000  Uiso   1.00
C279   C     0.01780   0.10053   0.40465   0.00000  Uiso   1.00
C280   C     0.48220   0.23281   0.59535   0.00000  Uiso   1.00
C281   C     0.24801   0.01051   0.47562   0.00000  Uiso   1.00
C282   C     0.25199   0.32283   0.52438   0.00000  Uiso   1.00
C283   C     0.16459   0.16795   0.50106   0.00000  Uiso   1.00
C284   C     0.33541   0.16538   0.49894   0.00000  Uiso   1.00
C285   C     0.41018   0.19803   0.54507   0.00000  Uiso   1.00
C286   C     0.08982   0.13531   0.45492   0.00000  Uiso   1.00
C287   C     0.38357   0.16421   0.49709   0.00000  Uiso   1.00
C288   C     0.11643   0.16913   0.50291   0.00000  Uiso   1.00
C289   C     0.40287   0.12972   0.44940   0.00000  Uiso   1.00
C290   C     0.09713   0.20362   0.55060   0.00000  Uiso   1.00
C291   C     0.44992   0.13096   0.44945   0.00000  Uiso   1.00
C292   C     0.05008   0.20238   0.55055   0.00000  Uiso   1.00
C293   C     0.47652   0.16581   0.49892   0.00000  Uiso   1.00
C294   C     0.02348   0.16752   0.50108   0.00000  Uiso   1.00
C295   C     0.45627   0.19894   0.54653   0.00000  Uiso   1.00
C296   C     0.04373   0.13440   0.45346   0.00000  Uiso   1.00
C297   C     0.47152   0.09865   0.40218   0.00000  Uiso   1.00
C298   C     0.02848   0.23469   0.59782   0.00000  Uiso   1.00
Cu299  Cu    0.25501   0.17246   0.56146   0.00000  Uiso   1.00
Cu300  Cu    0.24500   0.16087   0.43854   0.00000  Uiso   1.00
H301   H     0.39475   0.22416   0.58150   0.00000  Uiso   1.00
H302   H     0.10525   0.10918   0.41850   0.00000  Uiso   1.00
H303   H     0.03348   0.07529   0.36783   0.00000  Uiso   1.00
H304   H     0.46652   0.25805   0.63217   0.00000  Uiso   1.00
H305   H     0.24427   0.31978   0.42873   0.00000  Uiso   1.00
H306   H     0.25573   0.01355   0.57127   0.00000  Uiso   1.00
N307   N     0.23745   0.15214   0.34617   0.00000  Uiso   1.00
N308   N     0.26256   0.18119   0.65383   0.00000  Uiso   1.00
O309   O     0.25326   0.09538   0.53992   0.00000  Uiso   1.00
O310   O     0.24675   0.23796   0.46008   0.00000  Uiso   1.00
O311   O     0.24480   0.08559   0.43612   0.00000  Uiso   1.00
O312   O     0.25520   0.24774   0.56388   0.00000  Uiso   1.00
O313   O     0.18936   0.17155   0.55191   0.00000  Uiso   1.00
O314   O     0.31065   0.16179   0.44809   0.00000  Uiso   1.00
O315   O     0.18090   0.16176   0.44810   0.00000  Uiso   1.00
O316   O     0.31910   0.17157   0.55190   0.00000  Uiso   1.00
Cl317  Cl    0.36762   0.08289   0.39355   0.00000  Uiso   1.00
Cl318  Cl    0.13238   0.25044   0.60645   0.00000  Uiso   1.00
F319   F     0.44883   0.06544   0.35256   0.00000  Uiso   1.00
F320   F     0.05117   0.26790   0.64743   0.00000  Uiso   1.00
F321   F     0.20691   0.11880   0.64178   0.00000  Uiso   1.00
F322   F     0.29309   0.21453   0.35822   0.00000  Uiso   1.00
C323   C     0.74863   0.06655   0.48435   0.00000  Uiso   1.00
C324   C     0.75137   0.26678   0.51565   0.00000  Uiso   1.00
C325   C     0.51780   0.10053   0.40465   0.00000  Uiso   1.00
C326   C     0.98220   0.23281   0.59535   0.00000  Uiso   1.00
C327   C     0.74801   0.01051   0.47562   0.00000  Uiso   1.00
C328   C     0.75199   0.32283   0.52438   0.00000  Uiso   1.00
C329   C     0.66459   0.16795   0.50106   0.00000  Uiso   1.00
C330   C     0.83541   0.16538   0.49894   0.00000  Uiso   1.00
C331   C     0.91018   0.19803   0.54507   0.00000  Uiso   1.00
C332   C     0.58982   0.13531   0.45492   0.00000  Uiso   1.00
C333   C     0.88357   0.16421   0.49709   0.00000  Uiso   1.00
C334   C     0.61643   0.16913   0.50291   0.00000  Uiso   1.00
C335   C     0.90287   0.12972   0.44940   0.00000  Uiso   1.00
C336   C     0.59713   0.20362   0.55060   0.00000  Uiso   1.00
C337   C     0.94992   0.13096   0.44945   0.00000  Uiso   1.00
C338   C     0.55008   0.20238   0.55055   0.00000  Uiso   1.00
C339   C     0.97652   0.16581   0.49892   0.00000  Uiso   1.00
C340   C     0.52348   0.16752   0.50108   0.00000  Uiso   1.00
C341   C     0.95627   0.19894   0.54653   0.00000  Uiso   1.00
C342   C     0.54373   0.13440   0.45346   0.00000  Uiso   1.00
C343   C     0.97152   0.09865   0.40218   0.00000  Uiso   1.00
C344   C     0.52848   0.23469   0.59782   0.00000  Uiso   1.00
Cu345  Cu    0.75501   0.17246   0.56146   0.00000  Uiso   1.00
Cu346  Cu    0.74500   0.16087   0.43854   0.00000  Uiso   1.00
H347   H     0.89475   0.22416   0.58150   0.00000  Uiso   1.00
H348   H     0.60525   0.10918   0.41850   0.00000  Uiso   1.00
H349   H     0.53348   0.07529   0.36783   0.00000  Uiso   1.00
H350   H     0.96652   0.25805   0.63217   0.00000  Uiso   1.00
H351   H     0.74427   0.31978   0.42873   0.00000  Uiso   1.00
H352   H     0.75573   0.01355   0.57127   0.00000  Uiso   1.00
N353   N     0.73745   0.15214   0.34617   0.00000  Uiso   1.00
N354   N     0.76256   0.18119   0.65383   0.00000  Uiso   1.00
O355   O     0.75326   0.09538   0.53992   0.00000  Uiso   1.00
O356   O     0.74675   0.23796   0.46008   0.00000  Uiso   1.00
O357   O     0.74480   0.08559   0.43612   0.00000  Uiso   1.00
O358   O     0.75520   0.24774   0.56388   0.00000  Uiso   1.00
O359   O     0.68936   0.17155   0.55191   0.00000  Uiso   1.00
O360   O     0.81065   0.16179   0.44809   0.00000  Uiso   1.00
O361   O     0.68090   0.16176   0.44810   0.00000  Uiso   1.00
O362   O     0.81910   0.17157   0.55190   0.00000  Uiso   1.00
Cl363  Cl    0.86762   0.08289   0.39355   0.00000  Uiso   1.00
Cl364  Cl    0.63238   0.25044   0.60645   0.00000  Uiso   1.00
F365   F     0.94883   0.06544   0.35256   0.00000  Uiso   1.00
F366   F     0.55117   0.26790   0.64743   0.00000  Uiso   1.00
F367   F     0.70691   0.11880   0.64178   0.00000  Uiso   1.00
F368   F     0.79309   0.21453   0.35822   0.00000  Uiso   1.00
C369   C     0.24863   0.39989   0.48435   0.00000  Uiso   1.00
C370   C     0.25137   0.60012   0.51565   0.00000  Uiso   1.00
C371   C     0.01780   0.43386   0.40465   0.00000  Uiso   1.00
C372   C     0.48220   0.56614   0.59535   0.00000  Uiso   1.00
C373   C     0.24801   0.34384   0.47562   0.00000  Uiso   1.00
C374   C     0.25199   0.65616   0.52438   0.00000  Uiso   1.00
C375   C     0.16459   0.50128   0.50106   0.00000  Uiso   1.00
C376   C     0.33541   0.49872   0.49894   0.00000  Uiso   1.00
C377   C     0.41018   0.53136   0.54507   0.00000  Uiso   1.00
C378   C     0.08982   0.46864   0.45492   0.00000  Uiso   1.00
C379   C     0.38357   0.49754   0.49709   0.00000  Uiso   1.00
C380   C     0.11643   0.50246   0.50291   0.00000  Uiso   1.00
C381   C     0.40287   0.46305   0.44940   0.00000  Uiso   1.00
C382   C     0.09713   0.53695   0.55060   0.00000  Uiso   1.00
C383   C     0.44992   0.46429   0.44945   0.00000  Uiso   1.00
C384   C     0.05008   0.53571   0.55055   0.00000  Uiso   1.00
C385   C     0.47652   0.49915   0.49892   0.00000  Uiso   1.00
C386   C     0.02348   0.50085   0.50108   0.00000  Uiso   1.00
C387   C     0.45627   0.53227   0.54653   0.00000  Uiso   1.00
C388   C     0.04373   0.46773   0.45346   0.00000  Uiso   1.00
C389   C     0.47152   0.43198   0.40218   0.00000  Uiso   1.00
C390   C     0.02848   0.56802   0.59782   0.00000  Uiso   1.00
Cu391  Cu    0.25501   0.50579   0.56146   0.00000  Uiso   1.00
Cu392  Cu    0.24500   0.49421   0.43854   0.00000  Uiso   1.00
H393   H     0.39475   0.55749   0.58150   0.00000  Uiso   1.00
H394   H     0.10525   0.44251   0.41850   0.00000  Uiso   1.00
H395   H     0.03348   0.40863   0.36783   0.00000  Uiso   1.00
H396   H     0.46652   0.59138   0.63217   0.00000  Uiso   1.00
H397   H     0.24427   0.65311   0.42873   0.00000  Uiso   1.00
H398   H     0.25573   0.34689   0.57127   0.00000  Uiso   1.00
N399   N     0.23745   0.48547   0.34617   0.00000  Uiso   1.00
N400   N     0.26256   0.51453   0.65383   0.00000  Uiso   1.00
O401   O     0.25326   0.42871   0.53992   0.00000  Uiso   1.00
O402   O     0.24675   0.57129   0.46008   0.00000  Uiso   1.00
O403   O     0.24480   0.41892   0.43612   0.00000  Uiso   1.00
O404   O     0.25520   0.58108   0.56388   0.00000  Uiso   1.00
O405   O     0.18936   0.50488   0.55191   0.00000  Uiso   1.00
O406   O     0.31065   0.49512   0.44809   0.00000  Uiso   1.00
O407   O     0.18090   0.49510   0.44810   0.00000  Uiso   1.00
O408   O     0.31910   0.50490   0.55190   0.00000  Uiso   1.00
Cl409  Cl    0.36762   0.41622   0.39355   0.00000  Uiso   1.00
Cl410  Cl    0.13238   0.58377   0.60645   0.00000  Uiso   1.00
F411   F     0.44883   0.39877   0.35256   0.00000  Uiso   1.00
F412   F     0.05117   0.60123   0.64743   0.00000  Uiso   1.00
F413   F     0.20691   0.45214   0.64178   0.00000  Uiso   1.00
F414   F     0.29309   0.54786   0.35822   0.00000  Uiso   1.00
C415   C     0.74863   0.39989   0.48435   0.00000  Uiso   1.00
C416   C     0.75137   0.60012   0.51565   0.00000  Uiso   1.00
C417   C     0.51780   0.43386   0.40465   0.00000  Uiso   1.00
C418   C     0.98220   0.56614   0.59535   0.00000  Uiso   1.00
C419   C     0.74801   0.34384   0.47562   0.00000  Uiso   1.00
C420   C     0.75199   0.65616   0.52438   0.00000  Uiso   1.00
C421   C     0.66459   0.50128   0.50106   0.00000  Uiso   1.00
C422   C     0.83541   0.49872   0.49894   0.00000  Uiso   1.00
C423   C     0.91018   0.53136   0.54507   0.00000  Uiso   1.00
C424   C     0.58982   0.46864   0.45492   0.00000  Uiso   1.00
C425   C     0.88357   0.49754   0.49709   0.00000  Uiso   1.00
C426   C     0.61643   0.50246   0.50291   0.00000  Uiso   1.00
C427   C     0.90287   0.46305   0.44940   0.00000  Uiso   1.00
C428   C     0.59713   0.53695   0.55060   0.00000  Uiso   1.00
C429   C     0.94992   0.46429   0.44945   0.00000  Uiso   1.00
C430   C     0.55008   0.53571   0.55055   0.00000  Uiso   1.00
C431   C     0.97652   0.49915   0.49892   0.00000  Uiso   1.00
C432   C     0.52348   0.50085   0.50108   0.00000  Uiso   1.00
C433   C     0.95627   0.53227   0.54653   0.00000  Uiso   1.00
C434   C     0.54373   0.46773   0.45346   0.00000  Uiso   1.00
C435   C     0.97152   0.43198   0.40218   0.00000  Uiso   1.00
C436   C     0.52848   0.56802   0.59782   0.00000  Uiso   1.00
Cu437  Cu    0.75501   0.50579   0.56146   0.00000  Uiso   1.00
Cu438  Cu    0.74500   0.49421   0.43854   0.00000  Uiso   1.00
H439   H     0.89475   0.55749   0.58150   0.00000  Uiso   1.00
H440   H     0.60525   0.44251   0.41850   0.00000  Uiso   1.00
H441   H     0.53348   0.40863   0.36783   0.00000  Uiso   1.00
H442   H     0.96652   0.59138   0.63217   0.00000  Uiso   1.00
H443   H     0.74427   0.65311   0.42873   0.00000  Uiso   1.00
H444   H     0.75573   0.34689   0.57127   0.00000  Uiso   1.00
N445   N     0.73745   0.48547   0.34617   0.00000  Uiso   1.00
N446   N     0.76256   0.51453   0.65383   0.00000  Uiso   1.00
O447   O     0.75326   0.42871   0.53992   0.00000  Uiso   1.00
O448   O     0.74675   0.57129   0.46008   0.00000  Uiso   1.00
O449   O     0.74480   0.41892   0.43612   0.00000  Uiso   1.00
O450   O     0.75520   0.58108   0.56388   0.00000  Uiso   1.00
O451   O     0.68936   0.50488   0.55191   0.00000  Uiso   1.00
O452   O     0.81065   0.49512   0.44809   0.00000  Uiso   1.00
O453   O     0.68090   0.49510   0.44810   0.00000  Uiso   1.00
O454   O     0.81910   0.50490   0.55190   0.00000  Uiso   1.00
Cl455  Cl    0.86762   0.41622   0.39355   0.00000  Uiso   1.00
Cl456  Cl    0.63238   0.58377   0.60645   0.00000  Uiso   1.00
F457   F     0.94883   0.39877   0.35256   0.00000  Uiso   1.00
F458   F     0.55117   0.60123   0.64743   0.00000  Uiso   1.00
F459   F     0.70691   0.45214   0.64178   0.00000  Uiso   1.00
F460   F     0.79309   0.54786   0.35822   0.00000  Uiso   1.00
C461   C     0.24863   0.73322   0.48435   0.00000  Uiso   1.00
C462   C     0.25137   0.93345   0.51565   0.00000  Uiso   1.00
C463   C     0.01780   0.76720   0.40465   0.00000  Uiso   1.00
C464   C     0.48220   0.89948   0.59535   0.00000  Uiso   1.00
C465   C     0.24801   0.67717   0.47562   0.00000  Uiso   1.00
C466   C     0.25199   0.98949   0.52438   0.00000  Uiso   1.00
C467   C     0.16459   0.83462   0.50106   0.00000  Uiso   1.00
C468   C     0.33541   0.83205   0.49894   0.00000  Uiso   1.00
C469   C     0.41018   0.86469   0.54507   0.00000  Uiso   1.00
C470   C     0.08982   0.80197   0.45492   0.00000  Uiso   1.00
C471   C     0.38357   0.83087   0.49709   0.00000  Uiso   1.00
C472   C     0.11643   0.83579   0.50291   0.00000  Uiso   1.00
C473   C     0.40287   0.79638   0.44940   0.00000  Uiso   1.00
C474   C     0.09713   0.87028   0.55060   0.00000  Uiso   1.00
C475   C     0.44992   0.79763   0.44945   0.00000  Uiso   1.00
C476   C     0.05008   0.86904   0.55055   0.00000  Uiso   1.00
C477   C     0.47652   0.83248   0.49892   0.00000  Uiso   1.00
C478   C     0.02348   0.83419   0.50108   0.00000  Uiso   1.00
C479   C     0.45627   0.86561   0.54653   0.00000  Uiso   1.00
C480   C     0.04373   0.80106   0.45346   0.00000  Uiso   1.00
C481   C     0.47152   0.76531   0.40218   0.00000  Uiso   1.00
C482   C     0.02848   0.90136   0.59782   0.00000  Uiso   1.00
Cu483  Cu    0.25501   0.83913   0.56146   0.00000  Uiso   1.00
Cu484  Cu    0.24500   0.82754   0.43854   0.00000  Uiso   1.00
H485   H     0.39475   0.89083   0.58150   0.00000  Uiso   1.00
H486   H     0.10525   0.77584   0.41850   0.00000  Uiso   1.00
H487   H     0.03348   0.74196   0.36783   0.00000  Uiso   1.00
H488   H     0.46652   0.92471   0.63217   0.00000  Uiso   1.00
H489   H     0.24427   0.98645   0.42873   0.00000  Uiso   1.00
H490   H     0.25573   0.68022   0.57127   0.00000  Uiso   1.00
N491   N     0.23745   0.81881   0.34617   0.00000  Uiso   1.00
N492   N     0.26256   0.84786   0.65383   0.00000  Uiso   1.00
O493   O     0.25326   0.76204   0.53992   0.00000  Uiso   1.00
O494   O     0.24675   0.90462   0.46008   0.00000  Uiso   1.00
O495   O     0.24480   0.75226   0.43612   0.00000  Uiso   1.00
O496   O     0.25520   0.91441   0.56388   0.00000  Uiso   1.00
O497   O     0.18936   0.83821   0.55191   0.00000  Uiso   1.00
O498   O     0.31065   0.82845   0.44809   0.00000  Uiso   1.00
O499   O     0.18090   0.82843   0.44810   0.00000  Uiso   1.00
O500   O     0.31910   0.83824   0.55190   0.00000  Uiso   1.00
Cl501  Cl    0.36762   0.74956   0.39355   0.00000  Uiso   1.00
Cl502  Cl    0.13238   0.91711   0.60645   0.00000  Uiso   1.00
F503   F     0.44883   0.73211   0.35256   0.00000  Uiso   1.00
F504   F     0.05117   0.93457   0.64743   0.00000  Uiso   1.00
F505   F     0.20691   0.78547   0.64178   0.00000  Uiso   1.00
F506   F     0.29309   0.88120   0.35822   0.00000  Uiso   1.00
C507   C     0.74863   0.73322   0.48435   0.00000  Uiso   1.00
C508   C     0.75137   0.93345   0.51565   0.00000  Uiso   1.00
C509   C     0.51780   0.76720   0.40465   0.00000  Uiso   1.00
C510   C     0.98220   0.89948   0.59535   0.00000  Uiso   1.00
C511   C     0.74801   0.67717   0.47562   0.00000  Uiso   1.00
C512   C     0.75199   0.98949   0.52438   0.00000  Uiso   1.00
C513   C     0.66459   0.83462   0.50106   0.00000  Uiso   1.00
C514   C     0.83541   0.83205   0.49894   0.00000  Uiso   1.00
C515   C     0.91018   0.86469   0.54507   0.00000  Uiso   1.00
C516   C     0.58982   0.80197   0.45492   0.00000  Uiso   1.00
C517   C     0.88357   0.83087   0.49709   0.00000  Uiso   1.00
C518   C     0.61643   0.83579   0.50291   0.00000  Uiso   1.00
C519   C     0.90287   0.79638   0.44940   0.00000  Uiso   1.00
C520   C     0.59713   0.87028   0.55060   0.00000  Uiso   1.00
C521   C     0.94992   0.79763   0.44945   0.00000  Uiso   1.00
C522   C     0.55008   0.86904   0.55055   0.00000  Uiso   1.00
C523   C     0.97652   0.83248   0.49892   0.00000  Uiso   1.00
C524   C     0.52348   0.83419   0.50108   0.00000  Uiso   1.00
C525   C     0.95627   0.86561   0.54653   0.00000  Uiso   1.00
C526   C     0.54373   0.80106   0.45346   0.00000  Uiso   1.00
C527   C     0.97152   0.76531   0.40218   0.00000  Uiso   1.00
C528   C     0.52848   0.90136   0.59782   0.00000  Uiso   1.00
Cu529  Cu    0.75501   0.83913   0.56146   0.00000  Uiso   1.00
Cu530  Cu    0.74500   0.82754   0.43854   0.00000  Uiso   1.00
H531   H     0.89475   0.89083   0.58150   0.00000  Uiso   1.00
H532   H     0.60525   0.77584   0.41850   0.00000  Uiso   1.00
H533   H     0.53348   0.74196   0.36783   0.00000  Uiso   1.00
H534   H     0.96652   0.92471   0.63217   0.00000  Uiso   1.00
H535   H     0.74427   0.98645   0.42873   0.00000  Uiso   1.00
H536   H     0.75573   0.68022   0.57127   0.00000  Uiso   1.00
N537   N     0.73745   0.81881   0.34617   0.00000  Uiso   1.00
N538   N     0.76256   0.84786   0.65383   0.00000  Uiso   1.00
O539   O     0.75326   0.76204   0.53992   0.00000  Uiso   1.00
O540   O     0.74675   0.90462   0.46008   0.00000  Uiso   1.00
O541   O     0.74480   0.75226   0.43612   0.00000  Uiso   1.00
O542   O     0.75520   0.91441   0.56388   0.00000  Uiso   1.00
O543   O     0.68936   0.83821   0.55191   0.00000  Uiso   1.00
O544   O     0.81065   0.82845   0.44809   0.00000  Uiso   1.00
O545   O     0.68090   0.82843   0.44810   0.00000  Uiso   1.00
O546   O     0.81910   0.83824   0.55190   0.00000  Uiso   1.00
Cl547  Cl    0.86762   0.74956   0.39355   0.00000  Uiso   1.00
Cl548  Cl    0.63238   0.91711   0.60645   0.00000  Uiso   1.00
F549   F     0.94883   0.73211   0.35256   0.00000  Uiso   1.00
F550   F     0.55117   0.93457   0.64743   0.00000  Uiso   1.00
F551   F     0.70691   0.78547   0.64178   0.00000  Uiso   1.00
F552   F     0.79309   0.88120   0.35822   0.00000  Uiso   1.00
C553   C     0.24863   0.06655   0.81768   0.00000  Uiso   1.00
C554   C     0.25137   0.26678   0.84898   0.00000  Uiso   1.00
C555   C     0.01780   0.10053   0.73798   0.00000  Uiso   1.00
C556   C     0.48220   0.23281   0.92868   0.00000  Uiso   1.00
C557   C     0.24801   0.01051   0.80895   0.00000  Uiso   1.00
C558   C     0.25199   0.32283   0.85771   0.00000  Uiso   1.00
C559   C     0.16459   0.16795   0.83440   0.00000  Uiso   1.00
C560   C     0.33541   0.16538   0.83227   0.00000  Uiso   1.00
C561   C     0.41018   0.19803   0.87841   0.00000  Uiso   1.00
C562   C     0.08982   0.13531   0.78826   0.00000  Uiso   1.00
C563   C     0.38357   0.16421   0.83042   0.00000  Uiso   1.00
C564   C     0.11643   0.16913   0.83625   0.00000  Uiso   1.00
C565   C     0.40287   0.12972   0.78273   0.00000  Uiso   1.00
C566   C     0.09713   0.20362   0.88394   0.00000  Uiso   1.00
C567   C     0.44992   0.13096   0.78278   0.00000  Uiso   1.00
C568   C     0.05008   0.20238   0.88388   0.00000  Uiso   1.00
C569   C     0.47652   0.16581   0.83225   0.00000  Uiso   1.00
C570   C     0.02348   0.16752   0.83441   0.00000  Uiso   1.00
C571   C     0.45627   0.19894   0.87987   0.00000  Uiso   1.00
C572   C     0.04373   0.13440   0.78680   0.00000  Uiso   1.00
C573   C     0.47152   0.09865   0.73551   0.00000  Uiso   1.00
C574   C     0.02848   0.23469   0.93115   0.00000  Uiso   1.00
Cu575  Cu    0.25501   0.17246   0.89479   0.00000  Uiso   1.00
Cu576  Cu    0.24500   0.16087   0.77187   0.00000  Uiso   1.00
H577   H     0.39475   0.22416   0.91483   0.00000  Uiso   1.00
H578   H     0.10525   0.10918   0.75183   0.00000  Uiso   1.00
H579   H     0.03348   0.07529   0.70116   0.00000  Uiso   1.00
H580   H     0.46652   0.25805   0.96550   0.00000  Uiso   1.00
H581   H     0.24427   0.31978   0.76206   0.00000  Uiso   1.00
H582   H     0.25573   0.01355   0.90461   0.00000  Uiso   1.00
N583   N     0.23745   0.15214   0.67951   0.00000  Uiso   1.00
N584   N     0.26256   0.18119   0.98716   0.00000  Uiso   1.00
O585   O     0.25326   0.09538   0.87326   0.00000  Uiso   1.00
O586   O     0.24675   0.23796   0.79341   0.00000  Uiso   1.00
O587   O     0.24480   0.08559   0.76945   0.00000  Uiso   1.00
O588   O     0.25520   0.24774   0.89721   0.00000  Uiso   1.00
O589   O     0.18936   0.17155   0.88524   0.00000  Uiso   1.00
O590   O     0.31065   0.16179   0.78143   0.00000  Uiso   1.00
O591   O     0.18090   0.16176   0.78143   0.00000  Uiso   1.00
O592   O     0.31910   0.17157   0.88523   0.00000  Uiso   1.00
Cl593  Cl    0.36762   0.08289   0.72689   0.00000  Uiso   1.00
Cl594  Cl    0.13238   0.25044   0.93979   0.00000  Uiso   1.00
F595   F     0.44883   0.06544   0.68590   0.00000  Uiso   1.00
F596   F     0.05117   0.26790   0.98077   0.00000  Uiso   1.00
F597   F     0.20691   0.11880   0.97511   0.00000  Uiso   1.00
F598   F     0.29309   0.21453   0.69156   0.00000  Uiso   1.00
C599   C     0.74863   0.06655   0.81768   0.00000  Uiso   1.00
C600   C     0.75137   0.26678   0.84898   0.00000  Uiso   1.00
C601   C     0.51780   0.10053   0.73798   0.00000  Uiso   1.00
C602   C     0.98220   0.23281   0.92868   0.00000  Uiso   1.00
C603   C     0.74801   0.01051   0.80895   0.00000  Uiso   1.00
C604   C     0.75199   0.32283   0.85771   0.00000  Uiso   1.00
C605   C     0.66459   0.16795   0.83440   0.00000  Uiso   1.00
C606   C     0.83541   0.16538   0.83227   0.00000  Uiso   1.00
C607   C     0.91018   0.19803   0.87841   0.00000  Uiso   1.00
C608   C     0.58982   0.13531   0.78826   0.00000  Uiso   1.00
C609   C     0.88357   0.16421   0.83042   0.00000  Uiso   1.00
C610   C     0.61643   0.16913   0.83625   0.00000  Uiso   1.00
C611   C     0.90287   0.12972   0.78273   0.00000  Uiso   1.00
C612   C     0.59713   0.20362   0.88394   0.00000  Uiso   1.00
C613   C     0.94992   0.13096   0.78278   0.00000  Uiso   1.00
C614   C     0.55008   0.20238   0.88388   0.00000  Uiso   1.00
C615   C     0.97652   0.16581   0.83225   0.00000  Uiso   1.00
C616   C     0.52348   0.16752   0.83441   0.00000  Uiso   1.00
C617   C     0.95627   0.19894   0.87987   0.00000  Uiso   1.00
C618   C     0.54373   0.13440   0.78680   0.00000  Uiso   1.00
C619   C     0.97152   0.09865   0.73551   0.00000  Uiso   1.00
C620   C     0.52848   0.23469   0.93115   0.00000  Uiso   1.00
Cu621  Cu    0.75501   0.17246   0.89479   0.00000  Uiso   1.00
Cu622  Cu    0.74500   0.16087   0.77187   0.00000  Uiso   1.00
H623   H     0.89475   0.22416   0.91483   0.00000  Uiso   1.00
H624   H     0.60525   0.10918   0.75183   0.00000  Uiso   1.00
H625   H     0.53348   0.07529   0.70116   0.00000  Uiso   1.00
H626   H     0.96652   0.25805   0.96550   0.00000  Uiso   1.00
H627   H     0.74427   0.31978   0.76206   0.00000  Uiso   1.00
H628   H     0.75573   0.01355   0.90461   0.00000  Uiso   1.00
N629   N     0.73745   0.15214   0.67951   0.00000  Uiso   1.00
N630   N     0.76256   0.18119   0.98716   0.00000  Uiso   1.00
O631   O     0.75326   0.09538   0.87326   0.00000  Uiso   1.00
O632   O     0.74675   0.23796   0.79341   0.00000  Uiso   1.00
O633   O     0.74480   0.08559   0.76945   0.00000  Uiso   1.00
O634   O     0.75520   0.24774   0.89721   0.00000  Uiso   1.00
O635   O     0.68936   0.17155   0.88524   0.00000  Uiso   1.00
O636   O     0.81065   0.16179   0.78143   0.00000  Uiso   1.00
O637   O     0.68090   0.16176   0.78143   0.00000  Uiso   1.00
O638   O     0.81910   0.17157   0.88523   0.00000  Uiso   1.00
Cl639  Cl    0.86762   0.08289   0.72689   0.00000  Uiso   1.00
Cl640  Cl    0.63238   0.25044   0.93979   0.00000  Uiso   1.00
F641   F     0.94883   0.06544   0.68590   0.00000  Uiso   1.00
F642   F     0.55117   0.26790   0.98077   0.00000  Uiso   1.00
F643   F     0.70691   0.11880   0.97511   0.00000  Uiso   1.00
F644   F     0.79309   0.21453   0.69156   0.00000  Uiso   1.00
C645   C     0.24863   0.39989   0.81768   0.00000  Uiso   1.00
C646   C     0.25137   0.60012   0.84898   0.00000  Uiso   1.00
C647   C     0.01780   0.43386   0.73798   0.00000  Uiso   1.00
C648   C     0.48220   0.56614   0.92868   0.00000  Uiso   1.00
C649   C     0.24801   0.34384   0.80895   0.00000  Uiso   1.00
C650   C     0.25199   0.65616   0.85771   0.00000  Uiso   1.00
C651   C     0.16459   0.50128   0.83440   0.00000  Uiso   1.00
C652   C     0.33541   0.49872   0.83227   0.00000  Uiso   1.00
C653   C     0.41018   0.53136   0.87841   0.00000  Uiso   1.00
C654   C     0.08982   0.46864   0.78826   0.00000  Uiso   1.00
C655   C     0.38357   0.49754   0.83042   0.00000  Uiso   1.00
C656   C     0.11643   0.50246   0.83625   0.00000  Uiso   1.00
C657   C     0.40287   0.46305   0.78273   0.00000  Uiso   1.00
C658   C     0.09713   0.53695   0.88394   0.00000  Uiso   1.00
C659   C     0.44992   0.46429   0.78278   0.00000  Uiso   1.00
C660   C     0.05008   0.53571   0.88388   0.00000  Uiso   1.00
C661   C     0.47652   0.49915   0.83225   0.00000  Uiso   1.00
C662   C     0.02348   0.50085   0.83441   0.00000  Uiso   1.00
C663   C     0.45627   0.53227   0.87987   0.00000  Uiso   1.00
C664   C     0.04373   0.46773   0.78680   0.00000  Uiso   1.00
C665   C     0.47152   0.43198   0.73551   0.00000  Uiso   1.00
C666   C     0.02848   0.56802   0.93115   0.00000  Uiso   1.00
Cu667  Cu    0.25501   0.50579   0.89479   0.00000  Uiso   1.00
Cu668  Cu    0.24500   0.49421   0.77187   0.00000  Uiso   1.00
H669   H     0.39475   0.55749   0.91483   0.00000  Uiso   1.00
H670   H     0.10525   0.44251   0.75183   0.00000  Uiso   1.00
H671   H     0.03348   0.40863   0.70116   0.00000  Uiso   1.00
H672   H     0.46652   0.59138   0.96550   0.00000  Uiso   1.00
H673   H     0.24427   0.65311   0.76206   0.00000  Uiso   1.00
H674   H     0.25573   0.34689   0.90461   0.00000  Uiso   1.00
N675   N     0.23745   0.48547   0.67951   0.00000  Uiso   1.00
N676   N     0.26256   0.51453   0.98716   0.00000  Uiso   1.00
O677   O     0.25326   0.42871   0.87326   0.00000  Uiso   1.00
O678   O     0.24675   0.57129   0.79341   0.00000  Uiso   1.00
O679   O     0.24480   0.41892   0.76945   0.00000  Uiso   1.00
O680   O     0.25520   0.58108   0.89721   0.00000  Uiso   1.00
O681   O     0.18936   0.50488   0.88524   0.00000  Uiso   1.00
O682   O     0.31065   0.49512   0.78143   0.00000  Uiso   1.00
O683   O     0.18090   0.49510   0.78143   0.00000  Uiso   1.00
O684   O     0.31910   0.50490   0.88523   0.00000  Uiso   1.00
Cl685  Cl    0.36762   0.41622   0.72689   0.00000  Uiso   1.00
Cl686  Cl    0.13238   0.58377   0.93979   0.00000  Uiso   1.00
F687   F     0.44883   0.39877   0.68590   0.00000  Uiso   1.00
F688   F     0.05117   0.60123   0.98077   0.00000  Uiso   1.00
F689   F     0.20691   0.45214   0.97511   0.00000  Uiso   1.00
F690   F     0.29309   0.54786   0.69156   0.00000  Uiso   1.00
C691   C     0.74863   0.39989   0.81768   0.00000  Uiso   1.00
C692   C     0.75137   0.60012   0.84898   0.00000  Uiso   1.00
C693   C     0.51780   0.43386   0.73798   0.00000  Uiso   1.00
C694   C     0.98220   0.56614   0.92868   0.00000  Uiso   1.00
C695   C     0.74801   0.34384   0.80895   0.00000  Uiso   1.00
C696   C     0.75199   0.65616   0.85771   0.00000  Uiso   1.00
C697   C     0.66459   0.50128   0.83440   0.00000  Uiso   1.00
C698   C     0.83541   0.49872   0.83227   0.00000  Uiso   1.00
C699   C     0.91018   0.53136   0.87841   0.00000  Uiso   1.00
C700   C     0.58982   0.46864   0.78826   0.00000  Uiso   1.00
C701   C     0.88357   0.49754   0.83042   0.00000  Uiso   1.00
C702   C     0.61643   0.50246   0.83625   0.00000  Uiso   1.00
C703   C     0.90287   0.46305   0.78273   0.00000  Uiso   1.00
C704   C     0.59713   0.53695   0.88394   0.00000  Uiso   1.00
C705   C     0.94992   0.46429   0.78278   0.00000  Uiso   1.00
C706   C     0.55008   0.53571   0.88388   0.00000  Uiso   1.00
C707   C     0.97652   0.49915   0.83225   0.00000  Uiso   1.00
C708   C     0.52348   0.50085   0.83441   0.00000  Uiso   1.00
C709   C     0.95627   0.53227   0.87987   0.00000  Uiso   1.00
C710   C     0.54373   0.46773   0.78680   0.00000  Uiso   1.00
C711   C     0.97152   0.43198   0.73551   0.00000  Uiso   1.00
C712   C     0.52848   0.56802   0.93115   0.00000  Uiso   1.00
Cu713  Cu    0.75501   0.50579   0.89479   0.00000  Uiso   1.00
Cu714  Cu    0.74500   0.49421   0.77187   0.00000  Uiso   1.00
H715   H     0.89475   0.55749   0.91483   0.00000  Uiso   1.00
H716   H     0.60525   0.44251   0.75183   0.00000  Uiso   1.00
H717   H     0.53348   0.40863   0.70116   0.00000  Uiso   1.00
H718   H     0.96652   0.59138   0.96550   0.00000  Uiso   1.00
H719   H     0.74427   0.65311   0.76206   0.00000  Uiso   1.00
H720   H     0.75573   0.34689   0.90461   0.00000  Uiso   1.00
N721   N     0.73745   0.48547   0.67951   0.00000  Uiso   1.00
N722   N     0.76256   0.51453   0.98716   0.00000  Uiso   1.00
O723   O     0.75326   0.42871   0.87326   0.00000  Uiso   1.00
O724   O     0.74675   0.57129   0.79341   0.00000  Uiso   1.00
O725   O     0.74480   0.41892   0.76945   0.00000  Uiso   1.00
O726   O     0.75520   0.58108   0.89721   0.00000  Uiso   1.00
O727   O     0.68936   0.50488   0.88524   0.00000  Uiso   1.00
O728   O     0.81065   0.49512   0.78143   0.00000  Uiso   1.00
O729   O     0.68090   0.49510   0.78143   0.00000  Uiso   1.00
O730   O     0.81910   0.50490   0.88523   0.00000  Uiso   1.00
Cl731  Cl    0.86762   0.41622   0.72689   0.00000  Uiso   1.00
Cl732  Cl    0.63238   0.58377   0.93979   0.00000  Uiso   1.00
F733   F     0.94883   0.39877   0.68590   0.00000  Uiso   1.00
F734   F     0.55117   0.60123   0.98077   0.00000  Uiso   1.00
F735   F     0.70691   0.45214   0.97511   0.00000  Uiso   1.00
F736   F     0.79309   0.54786   0.69156   0.00000  Uiso   1.00
C737   C     0.24863   0.73322   0.81768   0.00000  Uiso   1.00
C738   C     0.25137   0.93345   0.84898   0.00000  Uiso   1.00
C739   C     0.01780   0.76720   0.73798   0.00000  Uiso   1.00
C740   C     0.48220   0.89948   0.92868   0.00000  Uiso   1.00
C741   C     0.24801   0.67717   0.80895   0.00000  Uiso   1.00
C742   C     0.25199   0.98949   0.85771   0.00000  Uiso   1.00
C743   C     0.16459   0.83462   0.83440   0.00000  Uiso   1.00
C744   C     0.33541   0.83205   0.83227   0.00000  Uiso   1.00
C745   C     0.41018   0.86469   0.87841   0.00000  Uiso   1.00
C746   C     0.08982   0.80197   0.78826   0.00000  Uiso   1.00
C747   C     0.38357   0.83087   0.83042   0.00000  Uiso   1.00
C748   C     0.11643   0.83579   0.83625   0.00000  Uiso   1.00
C749   C     0.40287   0.79638   0.78273   0.00000  Uiso   1.00
C750   C     0.09713   0.87028   0.88394   0.00000  Uiso   1.00
C751   C     0.44992   0.79763   0.78278   0.00000  Uiso   1.00
C752   C     0.05008   0.86904   0.88388   0.00000  Uiso   1.00
C753   C     0.47652   0.83248   0.83225   0.00000  Uiso   1.00
C754   C     0.02348   0.83419   0.83441   0.00000  Uiso   1.00
C755   C     0.45627   0.86561   0.87987   0.00000  Uiso   1.00
C756   C     0.04373   0.80106   0.78680   0.00000  Uiso   1.00
C757   C     0.47152   0.76531   0.73551   0.00000  Uiso   1.00
C758   C     0.02848   0.90136   0.93115   0.00000  Uiso   1.00
Cu759  Cu    0.25501   0.83913   0.89479   0.00000  Uiso   1.00
Cu760  Cu    0.24500   0.82754   0.77187   0.00000  Uiso   1.00
H761   H     0.39475   0.89083   0.91483   0.00000  Uiso   1.00
H762   H     0.10525   0.77584   0.75183   0.00000  Uiso   1.00
H763   H     0.03348   0.74196   0.70116   0.00000  Uiso   1.00
H764   H     0.46652   0.92471   0.96550   0.00000  Uiso   1.00
H765   H     0.24427   0.98645   0.76206   0.00000  Uiso   1.00
H766   H     0.25573   0.68022   0.90461   0.00000  Uiso   1.00
N767   N     0.23745   0.81881   0.67951   0.00000  Uiso   1.00
N768   N     0.26256   0.84786   0.98716   0.00000  Uiso   1.00
O769   O     0.25326   0.76204   0.87326   0.00000  Uiso   1.00
O770   O     0.24675   0.90462   0.79341   0.00000  Uiso   1.00
O771   O     0.24480   0.75226   0.76945   0.00000  Uiso   1.00
O772   O     0.25520   0.91441   0.89721   0.00000  Uiso   1.00
O773   O     0.18936   0.83821   0.88524   0.00000  Uiso   1.00
O774   O     0.31065   0.82845   0.78143   0.00000  Uiso   1.00
O775   O     0.18090   0.82843   0.78143   0.00000  Uiso   1.00
O776   O     0.31910   0.83824   0.88523   0.00000  Uiso   1.00
Cl777  Cl    0.36762   0.74956   0.72689   0.00000  Uiso   1.00
Cl778  Cl    0.13238   0.91711   0.93979   0.00000  Uiso   1.00
F779   F     0.44883   0.73211   0.68590   0.00000  Uiso   1.00
F780   F     0.05117   0.93457   0.98077   0.00000  Uiso   1.00
F781   F     0.20691   0.78547   0.97511   0.00000  Uiso   1.00
F782   F     0.29309   0.88120   0.69156   0.00000  Uiso   1.00
C783   C     0.74863   0.73322   0.81768   0.00000  Uiso   1.00
C784   C     0.75137   0.93345   0.84898   0.00000  Uiso   1.00
C785   C     0.51780   0.76720   0.73798   0.00000  Uiso   1.00
C786   C     0.98220   0.89948   0.92868   0.00000  Uiso   1.00
C787   C     0.74801   0.67717   0.80895   0.00000  Uiso   1.00
C788   C     0.75199   0.98949   0.85771   0.00000  Uiso   1.00
C789   C     0.66459   0.83462   0.83440   0.00000  Uiso   1.00
C790   C     0.83541   0.83205   0.83227   0.00000  Uiso   1.00
C791   C     0.91018   0.86469   0.87841   0.00000  Uiso   1.00
C792   C     0.58982   0.80197   0.78826   0.00000  Uiso   1.00
C793   C     0.88357   0.83087   0.83042   0.00000  Uiso   1.00
C794   C     0.61643   0.83579   0.83625   0.00000  Uiso   1.00
C795   C     0.90287   0.79638   0.78273   0.00000  Uiso   1.00
C796   C     0.59713   0.87028   0.88394   0.00000  Uiso   1.00
C797   C     0.94992   0.79763   0.78278   0.00000  Uiso   1.00
C798   C     0.55008   0.86904   0.88388   0.00000  Uiso   1.00
C799   C     0.97652   0.83248   0.83225   0.00000  Uiso   1.00
C800   C     0.52348   0.83419   0.83441   0.00000  Uiso   1.00
C801   C     0.95627   0.86561   0.87987   0.00000  Uiso   1.00
C802   C     0.54373   0.80106   0.78680   0.00000  Uiso   1.00
C803   C     0.97152   0.76531   0.73551   0.00000  Uiso   1.00
C804   C     0.52848   0.90136   0.93115   0.00000  Uiso   1.00
Cu805  Cu    0.75501   0.83913   0.89479   0.00000  Uiso   1.00
Cu806  Cu    0.74500   0.82754   0.77187   0.00000  Uiso   1.00
H807   H     0.89475   0.89083   0.91483   0.00000  Uiso   1.00
H808   H     0.60525   0.77584   0.75183   0.00000  Uiso   1.00
H809   H     0.53348   0.74196   0.70116   0.00000  Uiso   1.00
H810   H     0.96652   0.92471   0.96550   0.00000  Uiso   1.00
H811   H     0.74427   0.98645   0.76206   0.00000  Uiso   1.00
H812   H     0.75573   0.68022   0.90461   0.00000  Uiso   1.00
N813   N     0.73745   0.81881   0.67951   0.00000  Uiso   1.00
N814   N     0.76256   0.84786   0.98716   0.00000  Uiso   1.00
O815   O     0.75326   0.76204   0.87326   0.00000  Uiso   1.00
O816   O     0.74675   0.90462   0.79341   0.00000  Uiso   1.00
O817   O     0.74480   0.75226   0.76945   0.00000  Uiso   1.00
O818   O     0.75520   0.91441   0.89721   0.00000  Uiso   1.00
O819   O     0.68936   0.83821   0.88524   0.00000  Uiso   1.00
O820   O     0.81065   0.82845   0.78143   0.00000  Uiso   1.00
O821   O     0.68090   0.82843   0.78143   0.00000  Uiso   1.00
O822   O     0.81910   0.83824   0.88523   0.00000  Uiso   1.00
Cl823  Cl    0.86762   0.74956   0.72689   0.00000  Uiso   1.00
Cl824  Cl    0.63238   0.91711   0.93979   0.00000  Uiso   1.00
F825   F     0.94883   0.73211   0.68590   0.00000  Uiso   1.00
F826   F     0.55117   0.93457   0.98077   0.00000  Uiso   1.00
F827   F     0.70691   0.78547   0.97511   0.00000  Uiso   1.00
F828   F     0.79309   0.88120   0.69156   0.00000  Uiso   1.00
loop_
_geom_bond_atom_site_label_1
_geom_bond_atom_site_label_2
_geom_bond_distance
_geom_bond_site_symmetry_2
_ccdc_geom_bond_type
C1     O33     1.292   .     A
C1     C5      1.426   .     S
C1     O35     1.287   .     A
C2     O34     1.292   .     A
C2     C6      1.426   .     S
C2     O36     1.287   .     A
C3     H27     1.085   .     S
C3     C20     1.395   .     A
C3     C67     1.388   1_455 S
C4     H28     1.084   .     S
C4     C19     1.395   .     A
C4     C68     1.388   .     S
C5     C190    1.329   1_545 S
C5     H213    1.088   1_545 S
C6     C97     1.329   .     S
C6     H122    1.088   .     S
C7     O37     1.296   .     A
C7     C12     1.455   .     S
C7     O39     1.296   .     A
C8     O38     1.296   .     A
C8     C11     1.455   .     S
C8     O40     1.296   .     A
C9     C11     1.393   .     A
C9     H25     1.086   .     S
C9     C19     1.384   .     A
C10    H26     1.086   .     S
C10    C12     1.393   .     A
C10    C20     1.384   .     A
C11    C13     1.411   .     A
C12    C14     1.411   .     A
C13    Cl41    1.776   .     S
C13    C15     1.415   .     A
C14    Cl42    1.776   .     S
C14    C16     1.415   .     A
C15    C21     1.415   .     A
C15    C17     1.424   .     A
C16    C18     1.424   .     A
C16    C22     1.415   .     A
C17    C19     1.408   .     A
C17    C64     1.409   .     S
C18    C20     1.408   .     A
C18    C63     1.409   1_455 S
C21    F43     1.356   .     S
C21    C49     1.388   .     S
C22    F44     1.356   .     S
C22    C50     1.388   1_455 S
Cu23   Cu24    2.692   .     S
Cu23   N32     2.023   .     S
Cu23   O37     1.970   .     S
Cu23   O40     1.957   .     S
Cu23   O36     1.948   .     S
Cu23   O33     1.951   .     S
Cu24   O38     1.970   .     S
Cu24   N31     2.023   .     S
Cu24   O35     1.948   .     S
Cu24   O39     1.957   .     S
Cu24   O34     1.951   .     S
H29    C97     1.088   .     S
H30    C190    1.088   1_545 S
N31    N584    1.295   1_554 S
N31    F597    1.335   1_554 S
N32    N307    1.295   .     S
N32    F322    1.335   .     S
F45    N307    1.335   .     S
F46    N584    1.335   1_554 S
C47    O79     1.292   .     A
C47    C51     1.426   .     S
C47    O81     1.287   .     A
C48    O80     1.292   .     A
C48    C52     1.426   .     S
C48    O82     1.287   .     A
C49    H73     1.085   .     S
C49    C66     1.395   .     A
C50    H74     1.084   .     S
C50    C65     1.395   .     A
C50    C22     1.388   1_655 S
C51    C236    1.329   1_545 S
C51    H259    1.088   1_545 S
C52    C143    1.329   .     S
C52    H168    1.088   .     S
C53    O83     1.296   .     A
C53    C58     1.455   .     S
C53    O85     1.296   .     A
C54    O84     1.296   .     A
C54    C57     1.455   .     S
C54    O86     1.296   .     A
C55    C57     1.393   .     A
C55    H71     1.086   .     S
C55    C65     1.384   .     A
C56    H72     1.086   .     S
C56    C58     1.393   .     A
C56    C66     1.384   .     A
C57    C59     1.411   .     A
C58    C60     1.411   .     A
C59    Cl87    1.776   .     S
C59    C61     1.415   .     A
C60    Cl88    1.776   .     S
C60    C62     1.415   .     A
C61    C67     1.415   .     A
C61    C63     1.424   .     A
C62    C64     1.424   .     A
C62    C68     1.415   .     A
C63    C65     1.408   .     A
C63    C18     1.409   1_655 S
C64    C66     1.408   .     A
C67    F89     1.356   .     S
C67    C3      1.388   1_655 S
C68    F90     1.356   .     S
Cu69   Cu70    2.692   .     S
Cu69   N78     2.023   .     S
Cu69   O83     1.970   .     S
Cu69   O86     1.957   .     S
Cu69   O82     1.948   .     S
Cu69   O79     1.951   .     S
Cu70   O84     1.970   .     S
Cu70   N77     2.023   .     S
Cu70   O81     1.948   .     S
Cu70   O85     1.957   .     S
Cu70   O80     1.951   .     S
H75    C143    1.088   .     S
H76    C236    1.088   1_545 S
N77    N630    1.295   1_554 S
N77    F643    1.335   1_554 S
N78    N353    1.295   .     S
N78    F368    1.335   .     S
F91    N353    1.335   .     S
F92    N630    1.335   1_554 S
C93    O125    1.292   .     A
C93    C97     1.426   .     S
C93    O127    1.287   .     A
C94    O126    1.292   .     A
C94    C98     1.426   .     S
C94    O128    1.287   .     A
C95    H119    1.085   .     S
C95    C112    1.395   .     A
C95    C159    1.388   1_455 S
C96    H120    1.084   .     S
C96    C111    1.395   .     A
C96    C160    1.388   .     S
C98    C189    1.329   .     S
C98    H214    1.088   .     S
C99    O129    1.296   .     A
C99    C104    1.455   .     S
C99    O131    1.296   .     A
C100   O130    1.296   .     A
C100   C103    1.455   .     S
C100   O132    1.296   .     A
C101   C103    1.393   .     A
C101   H117    1.086   .     S
C101   C111    1.384   .     A
C102   H118    1.086   .     S
C102   C104    1.393   .     A
C102   C112    1.384   .     A
C103   C105    1.411   .     A
C104   C106    1.411   .     A
C105   Cl133   1.776   .     S
C105   C107    1.415   .     A
C106   Cl134   1.776   .     S
C106   C108    1.415   .     A
C107   C113    1.415   .     A
C107   C109    1.424   .     A
C108   C110    1.424   .     A
C108   C114    1.415   .     A
C109   C111    1.408   .     A
C109   C156    1.409   .     S
C110   C112    1.408   .     A
C110   C155    1.409   1_455 S
C113   F135    1.356   .     S
C113   C141    1.388   .     S
C114   F136    1.356   .     S
C114   C142    1.388   1_455 S
Cu115  Cu116   2.692   .     S
Cu115  N124    2.023   .     S
Cu115  O129    1.970   .     S
Cu115  O132    1.957   .     S
Cu115  O128    1.948   .     S
Cu115  O125    1.951   .     S
Cu116  O130    1.970   .     S
Cu116  N123    2.023   .     S
Cu116  O127    1.948   .     S
Cu116  O131    1.957   .     S
Cu116  O126    1.951   .     S
H121   C189    1.088   .     S
N123   N676    1.295   1_554 S
N123   F689    1.335   1_554 S
N124   N399    1.295   .     S
N124   F414    1.335   .     S
F137   N399    1.335   .     S
F138   N676    1.335   1_554 S
C139   O171    1.292   .     A
C139   C143    1.426   .     S
C139   O173    1.287   .     A
C140   O172    1.292   .     A
C140   C144    1.426   .     S
C140   O174    1.287   .     A
C141   H165    1.085   .     S
C141   C158    1.395   .     A
C142   H166    1.084   .     S
C142   C157    1.395   .     A
C142   C114    1.388   1_655 S
C144   C235    1.329   .     S
C144   H260    1.088   .     S
C145   O175    1.296   .     A
C145   C150    1.455   .     S
C145   O177    1.296   .     A
C146   O176    1.296   .     A
C146   C149    1.455   .     S
C146   O178    1.296   .     A
C147   C149    1.393   .     A
C147   H163    1.086   .     S
C147   C157    1.384   .     A
C148   H164    1.086   .     S
C148   C150    1.393   .     A
C148   C158    1.384   .     A
C149   C151    1.411   .     A
C150   C152    1.411   .     A
C151   Cl179   1.776   .     S
C151   C153    1.415   .     A
C152   Cl180   1.776   .     S
C152   C154    1.415   .     A
C153   C159    1.415   .     A
C153   C155    1.424   .     A
C154   C156    1.424   .     A
C154   C160    1.415   .     A
C155   C157    1.408   .     A
C155   C110    1.409   1_655 S
C156   C158    1.408   .     A
C159   F181    1.356   .     S
C159   C95     1.388   1_655 S
C160   F182    1.356   .     S
Cu161  Cu162   2.692   .     S
Cu161  N170    2.023   .     S
Cu161  O175    1.970   .     S
Cu161  O178    1.957   .     S
Cu161  O174    1.948   .     S
Cu161  O171    1.951   .     S
Cu162  O176    1.970   .     S
Cu162  N169    2.023   .     S
Cu162  O173    1.948   .     S
Cu162  O177    1.957   .     S
Cu162  O172    1.951   .     S
H167   C235    1.088   .     S
N169   N722    1.295   1_554 S
N169   F735    1.335   1_554 S
N170   N445    1.295   .     S
N170   F460    1.335   .     S
F183   N445    1.335   .     S
F184   N722    1.335   1_554 S
C185   O217    1.292   .     A
C185   C189    1.426   .     S
C185   O219    1.287   .     A
C186   O218    1.292   .     A
C186   C190    1.426   .     S
C186   O220    1.287   .     A
C187   H211    1.085   .     S
C187   C204    1.395   .     A
C187   C251    1.388   1_455 S
C188   H212    1.084   .     S
C188   C203    1.395   .     A
C188   C252    1.388   .     S
C190   C5      1.329   1_565 S
C190   H30     1.088   1_565 S
C191   O221    1.296   .     A
C191   C196    1.455   .     S
C191   O223    1.296   .     A
C192   O222    1.296   .     A
C192   C195    1.455   .     S
C192   O224    1.296   .     A
C193   C195    1.393   .     A
C193   H209    1.086   .     S
C193   C203    1.384   .     A
C194   H210    1.086   .     S
C194   C196    1.393   .     A
C194   C204    1.384   .     A
C195   C197    1.411   .     A
C196   C198    1.411   .     A
C197   Cl225   1.776   .     S
C197   C199    1.415   .     A
C198   Cl226   1.776   .     S
C198   C200    1.415   .     A
C199   C205    1.415   .     A
C199   C201    1.424   .     A
C200   C202    1.424   .     A
C200   C206    1.415   .     A
C201   C203    1.408   .     A
C201   C248    1.409   .     S
C202   C204    1.408   .     A
C202   C247    1.409   1_455 S
C205   F227    1.356   .     S
C205   C233    1.388   .     S
C206   F228    1.356   .     S
C206   C234    1.388   1_455 S
Cu207  Cu208   2.692   .     S
Cu207  N216    2.023   .     S
Cu207  O221    1.970   .     S
Cu207  O224    1.957   .     S
Cu207  O220    1.948   .     S
Cu207  O217    1.951   .     S
Cu208  O222    1.970   .     S
Cu208  N215    2.023   .     S
Cu208  O219    1.948   .     S
Cu208  O223    1.957   .     S
Cu208  O218    1.951   .     S
H213   C5      1.088   1_565 S
N215   N768    1.295   1_554 S
N215   F781    1.335   1_554 S
N216   N491    1.295   .     S
N216   F506    1.335   .     S
F229   N491    1.335   .     S
F230   N768    1.335   1_554 S
C231   O263    1.292   .     A
C231   C235    1.426   .     S
C231   O265    1.287   .     A
C232   O264    1.292   .     A
C232   C236    1.426   .     S
C232   O266    1.287   .     A
C233   H257    1.085   .     S
C233   C250    1.395   .     A
C234   H258    1.084   .     S
C234   C249    1.395   .     A
C234   C206    1.388   1_655 S
C236   C51     1.329   1_565 S
C236   H76     1.088   1_565 S
C237   O267    1.296   .     A
C237   C242    1.455   .     S
C237   O269    1.296   .     A
C238   O268    1.296   .     A
C238   C241    1.455   .     S
C238   O270    1.296   .     A
C239   C241    1.393   .     A
C239   H255    1.086   .     S
C239   C249    1.384   .     A
C240   H256    1.086   .     S
C240   C242    1.393   .     A
C240   C250    1.384   .     A
C241   C243    1.411   .     A
C242   C244    1.411   .     A
C243   Cl271   1.776   .     S
C243   C245    1.415   .     A
C244   Cl272   1.776   .     S
C244   C246    1.415   .     A
C245   C251    1.415   .     A
C245   C247    1.424   .     A
C246   C248    1.424   .     A
C246   C252    1.415   .     A
C247   C249    1.408   .     A
C247   C202    1.409   1_655 S
C248   C250    1.408   .     A
C251   F273    1.356   .     S
C251   C187    1.388   1_655 S
C252   F274    1.356   .     S
Cu253  Cu254   2.692   .     S
Cu253  N262    2.023   .     S
Cu253  O267    1.970   .     S
Cu253  O270    1.957   .     S
Cu253  O266    1.948   .     S
Cu253  O263    1.951   .     S
Cu254  O268    1.970   .     S
Cu254  N261    2.023   .     S
Cu254  O265    1.948   .     S
Cu254  O269    1.957   .     S
Cu254  O264    1.951   .     S
H259   C51     1.088   1_565 S
N261   N814    1.295   1_554 S
N261   F827    1.335   1_554 S
N262   N537    1.295   .     S
N262   F552    1.335   .     S
F275   N537    1.335   .     S
F276   N814    1.335   1_554 S
C277   O309    1.292   .     A
C277   C281    1.426   .     S
C277   O311    1.287   .     A
C278   O310    1.292   .     A
C278   C282    1.426   .     S
C278   O312    1.287   .     A
C279   H303    1.085   .     S
C279   C296    1.395   .     A
C279   C343    1.388   1_455 S
C280   H304    1.084   .     S
C280   C295    1.395   .     A
C280   C344    1.388   .     S
C281   C466    1.329   1_545 S
C281   H489    1.088   1_545 S
C282   C373    1.329   .     S
C282   H398    1.088   .     S
C283   O313    1.296   .     A
C283   C288    1.455   .     S
C283   O315    1.296   .     A
C284   O314    1.296   .     A
C284   C287    1.455   .     S
C284   O316    1.296   .     A
C285   C287    1.393   .     A
C285   H301    1.086   .     S
C285   C295    1.384   .     A
C286   H302    1.086   .     S
C286   C288    1.393   .     A
C286   C296    1.384   .     A
C287   C289    1.411   .     A
C288   C290    1.411   .     A
C289   Cl317   1.776   .     S
C289   C291    1.415   .     A
C290   Cl318   1.776   .     S
C290   C292    1.415   .     A
C291   C297    1.415   .     A
C291   C293    1.424   .     A
C292   C294    1.424   .     A
C292   C298    1.415   .     A
C293   C295    1.408   .     A
C293   C340    1.409   .     S
C294   C296    1.408   .     A
C294   C339    1.409   1_455 S
C297   F319    1.356   .     S
C297   C325    1.388   .     S
C298   F320    1.356   .     S
C298   C326    1.388   1_455 S
Cu299  Cu300   2.692   .     S
Cu299  N308    2.023   .     S
Cu299  O313    1.970   .     S
Cu299  O316    1.957   .     S
Cu299  O312    1.948   .     S
Cu299  O309    1.951   .     S
Cu300  O314    1.970   .     S
Cu300  N307    2.023   .     S
Cu300  O311    1.948   .     S
Cu300  O315    1.957   .     S
Cu300  O310    1.951   .     S
H305   C373    1.088   .     S
H306   C466    1.088   1_545 S
N308   N583    1.295   .     S
N308   F598    1.335   .     S
F321   N583    1.335   .     S
C323   O355    1.292   .     A
C323   C327    1.426   .     S
C323   O357    1.287   .     A
C324   O356    1.292   .     A
C324   C328    1.426   .     S
C324   O358    1.287   .     A
C325   H349    1.085   .     S
C325   C342    1.395   .     A
C326   H350    1.084   .     S
C326   C341    1.395   .     A
C326   C298    1.388   1_655 S
C327   C512    1.329   1_545 S
C327   H535    1.088   1_545 S
C328   C419    1.329   .     S
C328   H444    1.088   .     S
C329   O359    1.296   .     A
C329   C334    1.455   .     S
C329   O361    1.296   .     A
C330   O360    1.296   .     A
C330   C333    1.455   .     S
C330   O362    1.296   .     A
C331   C333    1.393   .     A
C331   H347    1.086   .     S
C331   C341    1.384   .     A
C332   H348    1.086   .     S
C332   C334    1.393   .     A
C332   C342    1.384   .     A
C333   C335    1.411   .     A
C334   C336    1.411   .     A
C335   Cl363   1.776   .     S
C335   C337    1.415   .     A
C336   Cl364   1.776   .     S
C336   C338    1.415   .     A
C337   C343    1.415   .     A
C337   C339    1.424   .     A
C338   C340    1.424   .     A
C338   C344    1.415   .     A
C339   C341    1.408   .     A
C339   C294    1.409   1_655 S
C340   C342    1.408   .     A
C343   F365    1.356   .     S
C343   C279    1.388   1_655 S
C344   F366    1.356   .     S
Cu345  Cu346   2.692   .     S
Cu345  N354    2.023   .     S
Cu345  O359    1.970   .     S
Cu345  O362    1.957   .     S
Cu345  O358    1.948   .     S
Cu345  O355    1.951   .     S
Cu346  O360    1.970   .     S
Cu346  N353    2.023   .     S
Cu346  O357    1.948   .     S
Cu346  O361    1.957   .     S
Cu346  O356    1.951   .     S
H351   C419    1.088   .     S
H352   C512    1.088   1_545 S
N354   N629    1.295   .     S
N354   F644    1.335   .     S
F367   N629    1.335   .     S
C369   O401    1.292   .     A
C369   C373    1.426   .     S
C369   O403    1.287   .     A
C370   O402    1.292   .     A
C370   C374    1.426   .     S
C370   O404    1.287   .     A
C371   H395    1.085   .     S
C371   C388    1.395   .     A
C371   C435    1.388   1_455 S
C372   H396    1.084   .     S
C372   C387    1.395   .     A
C372   C436    1.388   .     S
C374   C465    1.329   .     S
C374   H490    1.088   .     S
C375   O405    1.296   .     A
C375   C380    1.455   .     S
C375   O407    1.296   .     A
C376   O406    1.296   .     A
C376   C379    1.455   .     S
C376   O408    1.296   .     A
C377   C379    1.393   .     A
C377   H393    1.086   .     S
C377   C387    1.384   .     A
C378   H394    1.086   .     S
C378   C380    1.393   .     A
C378   C388    1.384   .     A
C379   C381    1.411   .     A
C380   C382    1.411   .     A
C381   Cl409   1.776   .     S
C381   C383    1.415   .     A
C382   Cl410   1.776   .     S
C382   C384    1.415   .     A
C383   C389    1.415   .     A
C383   C385    1.424   .     A
C384   C386    1.424   .     A
C384   C390    1.415   .     A
C385   C387    1.408   .     A
C385   C432    1.409   .     S
C386   C388    1.408   .     A
C386   C431    1.409   1_455 S
C389   F411    1.356   .     S
C389   C417    1.388   .     S
C390   F412    1.356   .     S
C390   C418    1.388   1_455 S
Cu391  Cu392   2.692   .     S
Cu391  N400    2.023   .     S
Cu391  O405    1.970   .     S
Cu391  O408    1.957   .     S
Cu391  O404    1.948   .     S
Cu391  O401    1.951   .     S
Cu392  O406    1.970   .     S
Cu392  N399    2.023   .     S
Cu392  O403    1.948   .     S
Cu392  O407    1.957   .     S
Cu392  O402    1.951   .     S
H397   C465    1.088   .     S
N400   N675    1.295   .     S
N400   F690    1.335   .     S
F413   N675    1.335   .     S
C415   O447    1.292   .     A
C415   C419    1.426   .     S
C415   O449    1.287   .     A
C416   O448    1.292   .     A
C416   C420    1.426   .     S
C416   O450    1.287   .     A
C417   H441    1.085   .     S
C417   C434    1.395   .     A
C418   H442    1.084   .     S
C418   C433    1.395   .     A
C418   C390    1.388   1_655 S
C420   C511    1.329   .     S
C420   H536    1.088   .     S
C421   O451    1.296   .     A
C421   C426    1.455   .     S
C421   O453    1.296   .     A
C422   O452    1.296   .     A
C422   C425    1.455   .     S
C422   O454    1.296   .     A
C423   C425    1.393   .     A
C423   H439    1.086   .     S
C423   C433    1.384   .     A
C424   H440    1.086   .     S
C424   C426    1.393   .     A
C424   C434    1.384   .     A
C425   C427    1.411   .     A
C426   C428    1.411   .     A
C427   Cl455   1.776   .     S
C427   C429    1.415   .     A
C428   Cl456   1.776   .     S
C428   C430    1.415   .     A
C429   C435    1.415   .     A
C429   C431    1.424   .     A
C430   C432    1.424   .     A
C430   C436    1.415   .     A
C431   C433    1.408   .     A
C431   C386    1.409   1_655 S
C432   C434    1.408   .     A
C435   F457    1.356   .     S
C435   C371    1.388   1_655 S
C436   F458    1.356   .     S
Cu437  Cu438   2.692   .     S
Cu437  N446    2.023   .     S
Cu437  O451    1.970   .     S
Cu437  O454    1.957   .     S
Cu437  O450    1.948   .     S
Cu437  O447    1.951   .     S
Cu438  O452    1.970   .     S
Cu438  N445    2.023   .     S
Cu438  O449    1.948   .     S
Cu438  O453    1.957   .     S
Cu438  O448    1.951   .     S
H443   C511    1.088   .     S
N446   N721    1.295   .     S
N446   F736    1.335   .     S
F459   N721    1.335   .     S
C461   O493    1.292   .     A
C461   C465    1.426   .     S
C461   O495    1.287   .     A
C462   O494    1.292   .     A
C462   C466    1.426   .     S
C462   O496    1.287   .     A
C463   H487    1.085   .     S
C463   C480    1.395   .     A
C463   C527    1.388   1_455 S
C464   H488    1.084   .     S
C464   C479    1.395   .     A
C464   C528    1.388   .     S
C466   C281    1.329   1_565 S
C466   H306    1.088   1_565 S
C467   O497    1.296   .     A
C467   C472    1.455   .     S
C467   O499    1.296   .     A
C468   O498    1.296   .     A
C468   C471    1.455   .     S
C468   O500    1.296   .     A
C469   C471    1.393   .     A
C469   H485    1.086   .     S
C469   C479    1.384   .     A
C470   H486    1.086   .     S
C470   C472    1.393   .     A
C470   C480    1.384   .     A
C471   C473    1.411   .     A
C472   C474    1.411   .     A
C473   Cl501   1.776   .     S
C473   C475    1.415   .     A
C474   Cl502   1.776   .     S
C474   C476    1.415   .     A
C475   C481    1.415   .     A
C475   C477    1.424   .     A
C476   C478    1.424   .     A
C476   C482    1.415   .     A
C477   C479    1.408   .     A
C477   C524    1.409   .     S
C478   C480    1.408   .     A
C478   C523    1.409   1_455 S
C481   F503    1.356   .     S
C481   C509    1.388   .     S
C482   F504    1.356   .     S
C482   C510    1.388   1_455 S
Cu483  Cu484   2.692   .     S
Cu483  N492    2.023   .     S
Cu483  O497    1.970   .     S
Cu483  O500    1.957   .     S
Cu483  O496    1.948   .     S
Cu483  O493    1.951   .     S
Cu484  O498    1.970   .     S
Cu484  N491    2.023   .     S
Cu484  O495    1.948   .     S
Cu484  O499    1.957   .     S
Cu484  O494    1.951   .     S
H489   C281    1.088   1_565 S
N492   N767    1.295   .     S
N492   F782    1.335   .     S
F505   N767    1.335   .     S
C507   O539    1.292   .     A
C507   C511    1.426   .     S
C507   O541    1.287   .     A
C508   O540    1.292   .     A
C508   C512    1.426   .     S
C508   O542    1.287   .     A
C509   H533    1.085   .     S
C509   C526    1.395   .     A
C510   H534    1.084   .     S
C510   C525    1.395   .     A
C510   C482    1.388   1_655 S
C512   C327    1.329   1_565 S
C512   H352    1.088   1_565 S
C513   O543    1.296   .     A
C513   C518    1.455   .     S
C513   O545    1.296   .     A
C514   O544    1.296   .     A
C514   C517    1.455   .     S
C514   O546    1.296   .     A
C515   C517    1.393   .     A
C515   H531    1.086   .     S
C515   C525    1.384   .     A
C516   H532    1.086   .     S
C516   C518    1.393   .     A
C516   C526    1.384   .     A
C517   C519    1.411   .     A
C518   C520    1.411   .     A
C519   Cl547   1.776   .     S
C519   C521    1.415   .     A
C520   Cl548   1.776   .     S
C520   C522    1.415   .     A
C521   C527    1.415   .     A
C521   C523    1.424   .     A
C522   C524    1.424   .     A
C522   C528    1.415   .     A
C523   C525    1.408   .     A
C523   C478    1.409   1_655 S
C524   C526    1.408   .     A
C527   F549    1.356   .     S
C527   C463    1.388   1_655 S
C528   F550    1.356   .     S
Cu529  Cu530   2.692   .     S
Cu529  N538    2.023   .     S
Cu529  O543    1.970   .     S
Cu529  O546    1.957   .     S
Cu529  O542    1.948   .     S
Cu529  O539    1.951   .     S
Cu530  O544    1.970   .     S
Cu530  N537    2.023   .     S
Cu530  O541    1.948   .     S
Cu530  O545    1.957   .     S
Cu530  O540    1.951   .     S
H535   C327    1.088   1_565 S
N538   N813    1.295   .     S
N538   F828    1.335   .     S
F551   N813    1.335   .     S
C553   O585    1.292   .     A
C553   C557    1.426   .     S
C553   O587    1.287   .     A
C554   O586    1.292   .     A
C554   C558    1.426   .     S
C554   O588    1.287   .     A
C555   H579    1.085   .     S
C555   C572    1.395   .     A
C555   C619    1.388   1_455 S
C556   H580    1.084   .     S
C556   C571    1.395   .     A
C556   C620    1.388   .     S
C557   C742    1.329   1_545 S
C557   H765    1.088   1_545 S
C558   C649    1.329   .     S
C558   H674    1.088   .     S
C559   O589    1.296   .     A
C559   C564    1.455   .     S
C559   O591    1.296   .     A
C560   O590    1.296   .     A
C560   C563    1.455   .     S
C560   O592    1.296   .     A
C561   C563    1.393   .     A
C561   H577    1.086   .     S
C561   C571    1.384   .     A
C562   H578    1.086   .     S
C562   C564    1.393   .     A
C562   C572    1.384   .     A
C563   C565    1.411   .     A
C564   C566    1.411   .     A
C565   Cl593   1.776   .     S
C565   C567    1.415   .     A
C566   Cl594   1.776   .     S
C566   C568    1.415   .     A
C567   C573    1.415   .     A
C567   C569    1.424   .     A
C568   C570    1.424   .     A
C568   C574    1.415   .     A
C569   C571    1.408   .     A
C569   C616    1.409   .     S
C570   C572    1.408   .     A
C570   C615    1.409   1_455 S
C573   F595    1.356   .     S
C573   C601    1.388   .     S
C574   F596    1.356   .     S
C574   C602    1.388   1_455 S
Cu575  Cu576   2.692   .     S
Cu575  N584    2.023   .     S
Cu575  O589    1.970   .     S
Cu575  O592    1.957   .     S
Cu575  O588    1.948   .     S
Cu575  O585    1.951   .     S
Cu576  O590    1.970   .     S
Cu576  N583    2.023   .     S
Cu576  O587    1.948   .     S
Cu576  O591    1.957   .     S
Cu576  O586    1.951   .     S
H581   C649    1.088   .     S
H582   C742    1.088   1_545 S
N584   N31     1.295   1_556 S
N584   F46     1.335   1_556 S
F597   N31     1.335   1_556 S
C599   O631    1.292   .     A
C599   C603    1.426   .     S
C599   O633    1.287   .     A
C600   O632    1.292   .     A
C600   C604    1.426   .     S
C600   O634    1.287   .     A
C601   H625    1.085   .     S
C601   C618    1.395   .     A
C602   H626    1.084   .     S
C602   C617    1.395   .     A
C602   C574    1.388   1_655 S
C603   C788    1.329   1_545 S
C603   H811    1.088   1_545 S
C604   C695    1.329   .     S
C604   H720    1.088   .     S
C605   O635    1.296   .     A
C605   C610    1.455   .     S
C605   O637    1.296   .     A
C606   O636    1.296   .     A
C606   C609    1.455   .     S
C606   O638    1.296   .     A
C607   C609    1.393   .     A
C607   H623    1.086   .     S
C607   C617    1.384   .     A
C608   H624    1.086   .     S
C608   C610    1.393   .     A
C608   C618    1.384   .     A
C609   C611    1.411   .     A
C610   C612    1.411   .     A
C611   Cl639   1.776   .     S
C611   C613    1.415   .     A
C612   Cl640   1.776   .     S
C612   C614    1.415   .     A
C613   C619    1.415   .     A
C613   C615    1.424   .     A
C614   C616    1.424   .     A
C614   C620    1.415   .     A
C615   C617    1.408   .     A
C615   C570    1.409   1_655 S
C616   C618    1.408   .     A
C619   F641    1.356   .     S
C619   C555    1.388   1_655 S
C620   F642    1.356   .     S
Cu621  Cu622   2.692   .     S
Cu621  N630    2.023   .     S
Cu621  O635    1.970   .     S
Cu621  O638    1.957   .     S
Cu621  O634    1.948   .     S
Cu621  O631    1.951   .     S
Cu622  O636    1.970   .     S
Cu622  N629    2.023   .     S
Cu622  O633    1.948   .     S
Cu622  O637    1.957   .     S
Cu622  O632    1.951   .     S
H627   C695    1.088   .     S
H628   C788    1.088   1_545 S
N630   N77     1.295   1_556 S
N630   F92     1.335   1_556 S
F643   N77     1.335   1_556 S
C645   O677    1.292   .     A
C645   C649    1.426   .     S
C645   O679    1.287   .     A
C646   O678    1.292   .     A
C646   C650    1.426   .     S
C646   O680    1.287   .     A
C647   H671    1.085   .     S
C647   C664    1.395   .     A
C647   C711    1.388   1_455 S
C648   H672    1.084   .     S
C648   C663    1.395   .     A
C648   C712    1.388   .     S
C650   C741    1.329   .     S
C650   H766    1.088   .     S
C651   O681    1.296   .     A
C651   C656    1.455   .     S
C651   O683    1.296   .     A
C652   O682    1.296   .     A
C652   C655    1.455   .     S
C652   O684    1.296   .     A
C653   C655    1.393   .     A
C653   H669    1.086   .     S
C653   C663    1.384   .     A
C654   H670    1.086   .     S
C654   C656    1.393   .     A
C654   C664    1.384   .     A
C655   C657    1.411   .     A
C656   C658    1.411   .     A
C657   Cl685   1.776   .     S
C657   C659    1.415   .     A
C658   Cl686   1.776   .     S
C658   C660    1.415   .     A
C659   C665    1.415   .     A
C659   C661    1.424   .     A
C660   C662    1.424   .     A
C660   C666    1.415   .     A
C661   C663    1.408   .     A
C661   C708    1.409   .     S
C662   C664    1.408   .     A
C662   C707    1.409   1_455 S
C665   F687    1.356   .     S
C665   C693    1.388   .     S
C666   F688    1.356   .     S
C666   C694    1.388   1_455 S
Cu667  Cu668   2.692   .     S
Cu667  N676    2.023   .     S
Cu667  O681    1.970   .     S
Cu667  O684    1.957   .     S
Cu667  O680    1.948   .     S
Cu667  O677    1.951   .     S
Cu668  O682    1.970   .     S
Cu668  N675    2.023   .     S
Cu668  O679    1.948   .     S
Cu668  O683    1.957   .     S
Cu668  O678    1.951   .     S
H673   C741    1.088   .     S
N676   N123    1.295   1_556 S
N676   F138    1.335   1_556 S
F689   N123    1.335   1_556 S
C691   O723    1.292   .     A
C691   C695    1.426   .     S
C691   O725    1.287   .     A
C692   O724    1.292   .     A
C692   C696    1.426   .     S
C692   O726    1.287   .     A
C693   H717    1.085   .     S
C693   C710    1.395   .     A
C694   H718    1.084   .     S
C694   C709    1.395   .     A
C694   C666    1.388   1_655 S
C696   C787    1.329   .     S
C696   H812    1.088   .     S
C697   O727    1.296   .     A
C697   C702    1.455   .     S
C697   O729    1.296   .     A
C698   O728    1.296   .     A
C698   C701    1.455   .     S
C698   O730    1.296   .     A
C699   C701    1.393   .     A
C699   H715    1.086   .     S
C699   C709    1.384   .     A
C700   H716    1.086   .     S
C700   C702    1.393   .     A
C700   C710    1.384   .     A
C701   C703    1.411   .     A
C702   C704    1.411   .     A
C703   Cl731   1.776   .     S
C703   C705    1.415   .     A
C704   Cl732   1.776   .     S
C704   C706    1.415   .     A
C705   C711    1.415   .     A
C705   C707    1.424   .     A
C706   C708    1.424   .     A
C706   C712    1.415   .     A
C707   C709    1.408   .     A
C707   C662    1.409   1_655 S
C708   C710    1.408   .     A
C711   F733    1.356   .     S
C711   C647    1.388   1_655 S
C712   F734    1.356   .     S
Cu713  Cu714   2.692   .     S
Cu713  N722    2.023   .     S
Cu713  O727    1.970   .     S
Cu713  O730    1.957   .     S
Cu713  O726    1.948   .     S
Cu713  O723    1.951   .     S
Cu714  O728    1.970   .     S
Cu714  N721    2.023   .     S
Cu714  O725    1.948   .     S
Cu714  O729    1.957   .     S
Cu714  O724    1.951   .     S
H719   C787    1.088   .     S
N722   N169    1.295   1_556 S
N722   F184    1.335   1_556 S
F735   N169    1.335   1_556 S
C737   O769    1.292   .     A
C737   C741    1.426   .     S
C737   O771    1.287   .     A
C738   O770    1.292   .     A
C738   C742    1.426   .     S
C738   O772    1.287   .     A
C739   H763    1.085   .     S
C739   C756    1.395   .     A
C739   C803    1.388   1_455 S
C740   H764    1.084   .     S
C740   C755    1.395   .     A
C740   C804    1.388   .     S
C742   C557    1.329   1_565 S
C742   H582    1.088   1_565 S
C743   O773    1.296   .     A
C743   C748    1.455   .     S
C743   O775    1.296   .     A
C744   O774    1.296   .     A
C744   C747    1.455   .     S
C744   O776    1.296   .     A
C745   C747    1.393   .     A
C745   H761    1.086   .     S
C745   C755    1.384   .     A
C746   H762    1.086   .     S
C746   C748    1.393   .     A
C746   C756    1.384   .     A
C747   C749    1.411   .     A
C748   C750    1.411   .     A
C749   Cl777   1.776   .     S
C749   C751    1.415   .     A
C750   Cl778   1.776   .     S
C750   C752    1.415   .     A
C751   C757    1.415   .     A
C751   C753    1.424   .     A
C752   C754    1.424   .     A
C752   C758    1.415   .     A
C753   C755    1.408   .     A
C753   C800    1.409   .     S
C754   C756    1.408   .     A
C754   C799    1.409   1_455 S
C757   F779    1.356   .     S
C757   C785    1.388   .     S
C758   F780    1.356   .     S
C758   C786    1.388   1_455 S
Cu759  Cu760   2.692   .     S
Cu759  N768    2.023   .     S
Cu759  O773    1.970   .     S
Cu759  O776    1.957   .     S
Cu759  O772    1.948   .     S
Cu759  O769    1.951   .     S
Cu760  O774    1.970   .     S
Cu760  N767    2.023   .     S
Cu760  O771    1.948   .     S
Cu760  O775    1.957   .     S
Cu760  O770    1.951   .     S
H765   C557    1.088   1_565 S
N768   N215    1.295   1_556 S
N768   F230    1.335   1_556 S
F781   N215    1.335   1_556 S
C783   O815    1.292   .     A
C783   C787    1.426   .     S
C783   O817    1.287   .     A
C784   O816    1.292   .     A
C784   C788    1.426   .     S
C784   O818    1.287   .     A
C785   H809    1.085   .     S
C785   C802    1.395   .     A
C786   H810    1.084   .     S
C786   C801    1.395   .     A
C786   C758    1.388   1_655 S
C788   C603    1.329   1_565 S
C788   H628    1.088   1_565 S
C789   O819    1.296   .     A
C789   C794    1.455   .     S
C789   O821    1.296   .     A
C790   O820    1.296   .     A
C790   C793    1.455   .     S
C790   O822    1.296   .     A
C791   C793    1.393   .     A
C791   H807    1.086   .     S
C791   C801    1.384   .     A
C792   H808    1.086   .     S
C792   C794    1.393   .     A
C792   C802    1.384   .     A
C793   C795    1.411   .     A
C794   C796    1.411   .     A
C795   Cl823   1.776   .     S
C795   C797    1.415   .     A
C796   Cl824   1.776   .     S
C796   C798    1.415   .     A
C797   C803    1.415   .     A
C797   C799    1.424   .     A
C798   C800    1.424   .     A
C798   C804    1.415   .     A
C799   C801    1.408   .     A
C799   C754    1.409   1_655 S
C800   C802    1.408   .     A
C803   F825    1.356   .     S
C803   C739    1.388   1_655 S
C804   F826    1.356   .     S
Cu805  Cu806   2.692   .     S
Cu805  N814    2.023   .     S
Cu805  O819    1.970   .     S
Cu805  O822    1.957   .     S
Cu805  O818    1.948   .     S
Cu805  O815    1.951   .     S
Cu806  O820    1.970   .     S
Cu806  N813    2.023   .     S
Cu806  O817    1.948   .     S
Cu806  O821    1.957   .     S
Cu806  O816    1.951   .     S
H811   C603    1.088   1_565 S
N814   N261    1.295   1_556 S
N814   F276    1.335   1_556 S
F827   N261    1.335   1_556 S
