data_str_m2_o10_o17_pcu_sym.164
_audit_creation_date              2020-01-03
_audit_creation_method            'Materials Studio'
_symmetry_space_group_name_H-M    'P1'
_symmetry_Int_Tables_number       1
_symmetry_cell_setting            triclinic
loop_
_symmetry_equiv_pos_as_xyz
  x,y,z
_cell_length_a                    29.9677
_cell_length_b                    26.0245
_cell_length_c                    22.3621
_cell_angle_alpha                 102.9214
_cell_angle_beta                  93.9224
_cell_angle_gamma                 92.4993
loop_
_atom_site_label
_atom_site_type_symbol
_atom_site_fract_x
_atom_site_fract_y
_atom_site_fract_z
_atom_site_U_iso_or_equiv
_atom_site_adp_type
_atom_site_occupancy
C1     C     0.24877   0.06660   0.15109   0.00000  Uiso   1.00
C2     C     0.25123   0.26674   0.18224   0.00000  Uiso   1.00
C3     C     0.01577   0.06954   0.14092   0.00000  Uiso   1.00
C4     C     0.48423   0.26379   0.19242   0.00000  Uiso   1.00
C5     C     0.24806   0.01061   0.14235   0.00000  Uiso   1.00
C6     C     0.25194   0.32272   0.19099   0.00000  Uiso   1.00
C7     C     0.16463   0.16602   0.16754   0.00000  Uiso   1.00
C8     C     0.33537   0.16731   0.16579   0.00000  Uiso   1.00
C9     C     0.40924   0.21787   0.17743   0.00000  Uiso   1.00
C10    C     0.09076   0.11547   0.15590   0.00000  Uiso   1.00
C11    C     0.38347   0.16930   0.16401   0.00000  Uiso   1.00
C12    C     0.11653   0.16403   0.16932   0.00000  Uiso   1.00
C13    C     0.40346   0.12119   0.15098   0.00000  Uiso   1.00
C14    C     0.09654   0.21215   0.18235   0.00000  Uiso   1.00
C15    C     0.44972   0.11987   0.15194   0.00000  Uiso   1.00
C16    C     0.05028   0.21346   0.18139   0.00000  Uiso   1.00
C17    C     0.47651   0.16755   0.16596   0.00000  Uiso   1.00
C18    C     0.02349   0.16579   0.16738   0.00000  Uiso   1.00
C19    C     0.45644   0.21688   0.17860   0.00000  Uiso   1.00
C20    C     0.04356   0.11645   0.15473   0.00000  Uiso   1.00
C21    C     0.46946   0.07135   0.13956   0.00000  Uiso   1.00
C22    C     0.03054   0.26198   0.19377   0.00000  Uiso   1.00
Cu23   Cu    0.25501   0.17246   0.22813   0.00000  Uiso   1.00
Cu24   Cu    0.24500   0.16087   0.10521   0.00000  Uiso   1.00
H25    H     0.38272   0.08455   0.14096   0.00000  Uiso   1.00
H26    H     0.11728   0.24878   0.19237   0.00000  Uiso   1.00
H27    H     0.44899   0.03460   0.12876   0.00000  Uiso   1.00
H28    H     0.05101   0.29874   0.20457   0.00000  Uiso   1.00
H29    H     0.02929   0.03099   0.13082   0.00000  Uiso   1.00
H30    H     0.47071   0.30235   0.20251   0.00000  Uiso   1.00
H31    H     0.24430   0.32008   0.09549   0.00000  Uiso   1.00
H32    H     0.25570   0.01325   0.23785   0.00000  Uiso   1.00
H33    H     0.21502   0.12591   0.31627   0.00000  Uiso   1.00
H34    H     0.28498   0.20742   0.01706   0.00000  Uiso   1.00
N35    N     0.23745   0.15214   0.01284   0.00000  Uiso   1.00
N36    N     0.26256   0.18119   0.32049   0.00000  Uiso   1.00
O37    O     0.25326   0.09538   0.20659   0.00000  Uiso   1.00
O38    O     0.24675   0.23796   0.12674   0.00000  Uiso   1.00
O39    O     0.24480   0.08559   0.10279   0.00000  Uiso   1.00
O40    O     0.25520   0.24774   0.23055   0.00000  Uiso   1.00
O41    O     0.18936   0.17155   0.21857   0.00000  Uiso   1.00
O42    O     0.31065   0.16179   0.11476   0.00000  Uiso   1.00
O43    O     0.18090   0.16176   0.11477   0.00000  Uiso   1.00
O44    O     0.31910   0.17157   0.21857   0.00000  Uiso   1.00
C45    C     0.38692   0.27008   0.19023   0.00000  Uiso   1.00
H46    H     0.34987   0.26565   0.18678   0.00000  Uiso   1.00
H47    H     0.39791   0.29289   0.23750   0.00000  Uiso   1.00
H48    H     0.39622   0.29323   0.15636   0.00000  Uiso   1.00
C49    C     0.11308   0.06326   0.14310   0.00000  Uiso   1.00
H50    H     0.15013   0.06768   0.14656   0.00000  Uiso   1.00
H51    H     0.10378   0.04011   0.17698   0.00000  Uiso   1.00
H52    H     0.10209   0.04045   0.09584   0.00000  Uiso   1.00
C53    C     0.74877   0.06660   0.15109   0.00000  Uiso   1.00
C54    C     0.75123   0.26674   0.18224   0.00000  Uiso   1.00
C55    C     0.51577   0.06954   0.14092   0.00000  Uiso   1.00
C56    C     0.98423   0.26379   0.19242   0.00000  Uiso   1.00
C57    C     0.74806   0.01061   0.14235   0.00000  Uiso   1.00
C58    C     0.75194   0.32272   0.19099   0.00000  Uiso   1.00
C59    C     0.66463   0.16602   0.16754   0.00000  Uiso   1.00
C60    C     0.83537   0.16731   0.16579   0.00000  Uiso   1.00
C61    C     0.90924   0.21787   0.17743   0.00000  Uiso   1.00
C62    C     0.59076   0.11547   0.15590   0.00000  Uiso   1.00
C63    C     0.88347   0.16930   0.16401   0.00000  Uiso   1.00
C64    C     0.61653   0.16403   0.16932   0.00000  Uiso   1.00
C65    C     0.90346   0.12119   0.15098   0.00000  Uiso   1.00
C66    C     0.59654   0.21215   0.18235   0.00000  Uiso   1.00
C67    C     0.94972   0.11987   0.15194   0.00000  Uiso   1.00
C68    C     0.55028   0.21346   0.18139   0.00000  Uiso   1.00
C69    C     0.97651   0.16755   0.16596   0.00000  Uiso   1.00
C70    C     0.52349   0.16579   0.16738   0.00000  Uiso   1.00
C71    C     0.95644   0.21688   0.17860   0.00000  Uiso   1.00
C72    C     0.54356   0.11645   0.15473   0.00000  Uiso   1.00
C73    C     0.96946   0.07135   0.13956   0.00000  Uiso   1.00
C74    C     0.53054   0.26198   0.19377   0.00000  Uiso   1.00
Cu75   Cu    0.75501   0.17246   0.22813   0.00000  Uiso   1.00
Cu76   Cu    0.74500   0.16087   0.10521   0.00000  Uiso   1.00
H77    H     0.88272   0.08455   0.14096   0.00000  Uiso   1.00
H78    H     0.61728   0.24878   0.19237   0.00000  Uiso   1.00
H79    H     0.94899   0.03460   0.12876   0.00000  Uiso   1.00
H80    H     0.55101   0.29874   0.20457   0.00000  Uiso   1.00
H81    H     0.52929   0.03099   0.13082   0.00000  Uiso   1.00
H82    H     0.97071   0.30235   0.20251   0.00000  Uiso   1.00
H83    H     0.74430   0.32008   0.09549   0.00000  Uiso   1.00
H84    H     0.75570   0.01325   0.23785   0.00000  Uiso   1.00
H85    H     0.71502   0.12591   0.31627   0.00000  Uiso   1.00
H86    H     0.78498   0.20742   0.01706   0.00000  Uiso   1.00
N87    N     0.73745   0.15214   0.01284   0.00000  Uiso   1.00
N88    N     0.76256   0.18119   0.32049   0.00000  Uiso   1.00
O89    O     0.75326   0.09538   0.20659   0.00000  Uiso   1.00
O90    O     0.74675   0.23796   0.12674   0.00000  Uiso   1.00
O91    O     0.74480   0.08559   0.10279   0.00000  Uiso   1.00
O92    O     0.75520   0.24774   0.23055   0.00000  Uiso   1.00
O93    O     0.68936   0.17155   0.21857   0.00000  Uiso   1.00
O94    O     0.81065   0.16179   0.11476   0.00000  Uiso   1.00
O95    O     0.68090   0.16176   0.11477   0.00000  Uiso   1.00
O96    O     0.81910   0.17157   0.21857   0.00000  Uiso   1.00
C97    C     0.88692   0.27008   0.19023   0.00000  Uiso   1.00
H98    H     0.84987   0.26565   0.18678   0.00000  Uiso   1.00
H99    H     0.89791   0.29289   0.23750   0.00000  Uiso   1.00
H100   H     0.89622   0.29323   0.15636   0.00000  Uiso   1.00
C101   C     0.61308   0.06326   0.14310   0.00000  Uiso   1.00
H102   H     0.65013   0.06768   0.14656   0.00000  Uiso   1.00
H103   H     0.60378   0.04011   0.17698   0.00000  Uiso   1.00
H104   H     0.60209   0.04045   0.09584   0.00000  Uiso   1.00
C105   C     0.24877   0.39993   0.15109   0.00000  Uiso   1.00
C106   C     0.25123   0.60007   0.18224   0.00000  Uiso   1.00
C107   C     0.01577   0.40288   0.14092   0.00000  Uiso   1.00
C108   C     0.48423   0.59712   0.19242   0.00000  Uiso   1.00
C109   C     0.24806   0.34395   0.14235   0.00000  Uiso   1.00
C110   C     0.25194   0.65605   0.19099   0.00000  Uiso   1.00
C111   C     0.16463   0.49935   0.16754   0.00000  Uiso   1.00
C112   C     0.33537   0.50065   0.16579   0.00000  Uiso   1.00
C113   C     0.40924   0.55120   0.17743   0.00000  Uiso   1.00
C114   C     0.09076   0.44880   0.15590   0.00000  Uiso   1.00
C115   C     0.38347   0.50263   0.16401   0.00000  Uiso   1.00
C116   C     0.11653   0.49737   0.16932   0.00000  Uiso   1.00
C117   C     0.40346   0.45452   0.15098   0.00000  Uiso   1.00
C118   C     0.09654   0.54548   0.18235   0.00000  Uiso   1.00
C119   C     0.44972   0.45320   0.15194   0.00000  Uiso   1.00
C120   C     0.05028   0.54679   0.18139   0.00000  Uiso   1.00
C121   C     0.47651   0.50088   0.16596   0.00000  Uiso   1.00
C122   C     0.02349   0.49912   0.16738   0.00000  Uiso   1.00
C123   C     0.45644   0.55021   0.17860   0.00000  Uiso   1.00
C124   C     0.04356   0.44979   0.15473   0.00000  Uiso   1.00
C125   C     0.46946   0.40469   0.13956   0.00000  Uiso   1.00
C126   C     0.03054   0.59531   0.19377   0.00000  Uiso   1.00
Cu127  Cu    0.25501   0.50579   0.22813   0.00000  Uiso   1.00
Cu128  Cu    0.24500   0.49421   0.10521   0.00000  Uiso   1.00
H129   H     0.38272   0.41788   0.14096   0.00000  Uiso   1.00
H130   H     0.11728   0.58212   0.19237   0.00000  Uiso   1.00
H131   H     0.44899   0.36793   0.12876   0.00000  Uiso   1.00
H132   H     0.05101   0.63207   0.20457   0.00000  Uiso   1.00
H133   H     0.02929   0.36432   0.13082   0.00000  Uiso   1.00
H134   H     0.47071   0.63568   0.20251   0.00000  Uiso   1.00
H135   H     0.24430   0.65342   0.09549   0.00000  Uiso   1.00
H136   H     0.25570   0.34658   0.23785   0.00000  Uiso   1.00
H137   H     0.21502   0.45924   0.31627   0.00000  Uiso   1.00
H138   H     0.28498   0.54076   0.01706   0.00000  Uiso   1.00
N139   N     0.23745   0.48547   0.01284   0.00000  Uiso   1.00
N140   N     0.26256   0.51453   0.32049   0.00000  Uiso   1.00
O141   O     0.25326   0.42871   0.20659   0.00000  Uiso   1.00
O142   O     0.24675   0.57129   0.12674   0.00000  Uiso   1.00
O143   O     0.24480   0.41892   0.10279   0.00000  Uiso   1.00
O144   O     0.25520   0.58108   0.23055   0.00000  Uiso   1.00
O145   O     0.18936   0.50488   0.21857   0.00000  Uiso   1.00
O146   O     0.31065   0.49512   0.11476   0.00000  Uiso   1.00
O147   O     0.18090   0.49510   0.11477   0.00000  Uiso   1.00
O148   O     0.31910   0.50490   0.21857   0.00000  Uiso   1.00
C149   C     0.38692   0.60341   0.19023   0.00000  Uiso   1.00
H150   H     0.34987   0.59899   0.18678   0.00000  Uiso   1.00
H151   H     0.39791   0.62622   0.23750   0.00000  Uiso   1.00
H152   H     0.39622   0.62656   0.15636   0.00000  Uiso   1.00
C153   C     0.11308   0.39659   0.14310   0.00000  Uiso   1.00
H154   H     0.15013   0.40101   0.14656   0.00000  Uiso   1.00
H155   H     0.10378   0.37344   0.17698   0.00000  Uiso   1.00
H156   H     0.10209   0.37378   0.09584   0.00000  Uiso   1.00
C157   C     0.74877   0.39993   0.15109   0.00000  Uiso   1.00
C158   C     0.75123   0.60007   0.18224   0.00000  Uiso   1.00
C159   C     0.51577   0.40288   0.14092   0.00000  Uiso   1.00
C160   C     0.98423   0.59712   0.19242   0.00000  Uiso   1.00
C161   C     0.74806   0.34395   0.14235   0.00000  Uiso   1.00
C162   C     0.75194   0.65605   0.19099   0.00000  Uiso   1.00
C163   C     0.66463   0.49935   0.16754   0.00000  Uiso   1.00
C164   C     0.83537   0.50065   0.16579   0.00000  Uiso   1.00
C165   C     0.90924   0.55120   0.17743   0.00000  Uiso   1.00
C166   C     0.59076   0.44880   0.15590   0.00000  Uiso   1.00
C167   C     0.88347   0.50263   0.16401   0.00000  Uiso   1.00
C168   C     0.61653   0.49737   0.16932   0.00000  Uiso   1.00
C169   C     0.90346   0.45452   0.15098   0.00000  Uiso   1.00
C170   C     0.59654   0.54548   0.18235   0.00000  Uiso   1.00
C171   C     0.94972   0.45320   0.15194   0.00000  Uiso   1.00
C172   C     0.55028   0.54679   0.18139   0.00000  Uiso   1.00
C173   C     0.97651   0.50088   0.16596   0.00000  Uiso   1.00
C174   C     0.52349   0.49912   0.16738   0.00000  Uiso   1.00
C175   C     0.95644   0.55021   0.17860   0.00000  Uiso   1.00
C176   C     0.54356   0.44979   0.15473   0.00000  Uiso   1.00
C177   C     0.96946   0.40469   0.13956   0.00000  Uiso   1.00
C178   C     0.53054   0.59531   0.19377   0.00000  Uiso   1.00
Cu179  Cu    0.75501   0.50579   0.22813   0.00000  Uiso   1.00
Cu180  Cu    0.74500   0.49421   0.10521   0.00000  Uiso   1.00
H181   H     0.88272   0.41788   0.14096   0.00000  Uiso   1.00
H182   H     0.61728   0.58212   0.19237   0.00000  Uiso   1.00
H183   H     0.94899   0.36793   0.12876   0.00000  Uiso   1.00
H184   H     0.55101   0.63207   0.20457   0.00000  Uiso   1.00
H185   H     0.52929   0.36432   0.13082   0.00000  Uiso   1.00
H186   H     0.97071   0.63568   0.20251   0.00000  Uiso   1.00
H187   H     0.74430   0.65342   0.09549   0.00000  Uiso   1.00
H188   H     0.75570   0.34658   0.23785   0.00000  Uiso   1.00
H189   H     0.71502   0.45924   0.31627   0.00000  Uiso   1.00
H190   H     0.78498   0.54076   0.01706   0.00000  Uiso   1.00
N191   N     0.73745   0.48547   0.01284   0.00000  Uiso   1.00
N192   N     0.76256   0.51453   0.32049   0.00000  Uiso   1.00
O193   O     0.75326   0.42871   0.20659   0.00000  Uiso   1.00
O194   O     0.74675   0.57129   0.12674   0.00000  Uiso   1.00
O195   O     0.74480   0.41892   0.10279   0.00000  Uiso   1.00
O196   O     0.75520   0.58108   0.23055   0.00000  Uiso   1.00
O197   O     0.68936   0.50488   0.21857   0.00000  Uiso   1.00
O198   O     0.81065   0.49512   0.11476   0.00000  Uiso   1.00
O199   O     0.68090   0.49510   0.11477   0.00000  Uiso   1.00
O200   O     0.81910   0.50490   0.21857   0.00000  Uiso   1.00
C201   C     0.88692   0.60341   0.19023   0.00000  Uiso   1.00
H202   H     0.84987   0.59899   0.18678   0.00000  Uiso   1.00
H203   H     0.89791   0.62622   0.23750   0.00000  Uiso   1.00
H204   H     0.89622   0.62656   0.15636   0.00000  Uiso   1.00
C205   C     0.61308   0.39659   0.14310   0.00000  Uiso   1.00
H206   H     0.65013   0.40101   0.14656   0.00000  Uiso   1.00
H207   H     0.60378   0.37344   0.17698   0.00000  Uiso   1.00
H208   H     0.60209   0.37378   0.09584   0.00000  Uiso   1.00
C209   C     0.24877   0.73326   0.15109   0.00000  Uiso   1.00
C210   C     0.25123   0.93340   0.18224   0.00000  Uiso   1.00
C211   C     0.01577   0.73621   0.14092   0.00000  Uiso   1.00
C212   C     0.48423   0.93046   0.19242   0.00000  Uiso   1.00
C213   C     0.24806   0.67728   0.14235   0.00000  Uiso   1.00
C214   C     0.25194   0.98939   0.19099   0.00000  Uiso   1.00
C215   C     0.16463   0.83269   0.16754   0.00000  Uiso   1.00
C216   C     0.33537   0.83398   0.16579   0.00000  Uiso   1.00
C217   C     0.40924   0.88453   0.17743   0.00000  Uiso   1.00
C218   C     0.09076   0.78213   0.15590   0.00000  Uiso   1.00
C219   C     0.38347   0.83597   0.16401   0.00000  Uiso   1.00
C220   C     0.11653   0.83070   0.16932   0.00000  Uiso   1.00
C221   C     0.40346   0.78785   0.15098   0.00000  Uiso   1.00
C222   C     0.09654   0.87881   0.18235   0.00000  Uiso   1.00
C223   C     0.44972   0.78654   0.15194   0.00000  Uiso   1.00
C224   C     0.05028   0.88013   0.18139   0.00000  Uiso   1.00
C225   C     0.47651   0.83421   0.16596   0.00000  Uiso   1.00
C226   C     0.02349   0.83245   0.16738   0.00000  Uiso   1.00
C227   C     0.45644   0.88355   0.17860   0.00000  Uiso   1.00
C228   C     0.04356   0.78312   0.15473   0.00000  Uiso   1.00
C229   C     0.46946   0.73802   0.13956   0.00000  Uiso   1.00
C230   C     0.03054   0.92864   0.19377   0.00000  Uiso   1.00
Cu231  Cu    0.25501   0.83913   0.22813   0.00000  Uiso   1.00
Cu232  Cu    0.24500   0.82754   0.10521   0.00000  Uiso   1.00
H233   H     0.38272   0.75122   0.14096   0.00000  Uiso   1.00
H234   H     0.11728   0.91545   0.19237   0.00000  Uiso   1.00
H235   H     0.44899   0.70126   0.12876   0.00000  Uiso   1.00
H236   H     0.05101   0.96540   0.20457   0.00000  Uiso   1.00
H237   H     0.02929   0.69765   0.13082   0.00000  Uiso   1.00
H238   H     0.47071   0.96901   0.20251   0.00000  Uiso   1.00
H239   H     0.24430   0.98675   0.09549   0.00000  Uiso   1.00
H240   H     0.25570   0.67992   0.23785   0.00000  Uiso   1.00
H241   H     0.21502   0.79258   0.31627   0.00000  Uiso   1.00
H242   H     0.28498   0.87409   0.01706   0.00000  Uiso   1.00
N243   N     0.23745   0.81881   0.01284   0.00000  Uiso   1.00
N244   N     0.26256   0.84786   0.32049   0.00000  Uiso   1.00
O245   O     0.25326   0.76204   0.20659   0.00000  Uiso   1.00
O246   O     0.24675   0.90462   0.12674   0.00000  Uiso   1.00
O247   O     0.24480   0.75226   0.10279   0.00000  Uiso   1.00
O248   O     0.25520   0.91441   0.23055   0.00000  Uiso   1.00
O249   O     0.18936   0.83821   0.21857   0.00000  Uiso   1.00
O250   O     0.31065   0.82845   0.11476   0.00000  Uiso   1.00
O251   O     0.18090   0.82843   0.11477   0.00000  Uiso   1.00
O252   O     0.31910   0.83824   0.21857   0.00000  Uiso   1.00
C253   C     0.38692   0.93674   0.19023   0.00000  Uiso   1.00
H254   H     0.34987   0.93232   0.18678   0.00000  Uiso   1.00
H255   H     0.39791   0.95955   0.23750   0.00000  Uiso   1.00
H256   H     0.39622   0.95989   0.15636   0.00000  Uiso   1.00
C257   C     0.11308   0.72992   0.14310   0.00000  Uiso   1.00
H258   H     0.15013   0.73435   0.14656   0.00000  Uiso   1.00
H259   H     0.10378   0.70677   0.17698   0.00000  Uiso   1.00
H260   H     0.10209   0.70711   0.09584   0.00000  Uiso   1.00
C261   C     0.74877   0.73326   0.15109   0.00000  Uiso   1.00
C262   C     0.75123   0.93340   0.18224   0.00000  Uiso   1.00
C263   C     0.51577   0.73621   0.14092   0.00000  Uiso   1.00
C264   C     0.98423   0.93046   0.19242   0.00000  Uiso   1.00
C265   C     0.74806   0.67728   0.14235   0.00000  Uiso   1.00
C266   C     0.75194   0.98939   0.19099   0.00000  Uiso   1.00
C267   C     0.66463   0.83269   0.16754   0.00000  Uiso   1.00
C268   C     0.83537   0.83398   0.16579   0.00000  Uiso   1.00
C269   C     0.90924   0.88453   0.17743   0.00000  Uiso   1.00
C270   C     0.59076   0.78213   0.15590   0.00000  Uiso   1.00
C271   C     0.88347   0.83597   0.16401   0.00000  Uiso   1.00
C272   C     0.61653   0.83070   0.16932   0.00000  Uiso   1.00
C273   C     0.90346   0.78785   0.15098   0.00000  Uiso   1.00
C274   C     0.59654   0.87881   0.18235   0.00000  Uiso   1.00
C275   C     0.94972   0.78654   0.15194   0.00000  Uiso   1.00
C276   C     0.55028   0.88013   0.18139   0.00000  Uiso   1.00
C277   C     0.97651   0.83421   0.16596   0.00000  Uiso   1.00
C278   C     0.52349   0.83245   0.16738   0.00000  Uiso   1.00
C279   C     0.95644   0.88355   0.17860   0.00000  Uiso   1.00
C280   C     0.54356   0.78312   0.15473   0.00000  Uiso   1.00
C281   C     0.96946   0.73802   0.13956   0.00000  Uiso   1.00
C282   C     0.53054   0.92864   0.19377   0.00000  Uiso   1.00
Cu283  Cu    0.75501   0.83913   0.22813   0.00000  Uiso   1.00
Cu284  Cu    0.74500   0.82754   0.10521   0.00000  Uiso   1.00
H285   H     0.88272   0.75122   0.14096   0.00000  Uiso   1.00
H286   H     0.61728   0.91545   0.19237   0.00000  Uiso   1.00
H287   H     0.94899   0.70126   0.12876   0.00000  Uiso   1.00
H288   H     0.55101   0.96540   0.20457   0.00000  Uiso   1.00
H289   H     0.52929   0.69765   0.13082   0.00000  Uiso   1.00
H290   H     0.97071   0.96901   0.20251   0.00000  Uiso   1.00
H291   H     0.74430   0.98675   0.09549   0.00000  Uiso   1.00
H292   H     0.75570   0.67992   0.23785   0.00000  Uiso   1.00
H293   H     0.71502   0.79258   0.31627   0.00000  Uiso   1.00
H294   H     0.78498   0.87409   0.01706   0.00000  Uiso   1.00
N295   N     0.73745   0.81881   0.01284   0.00000  Uiso   1.00
N296   N     0.76256   0.84786   0.32049   0.00000  Uiso   1.00
O297   O     0.75326   0.76204   0.20659   0.00000  Uiso   1.00
O298   O     0.74675   0.90462   0.12674   0.00000  Uiso   1.00
O299   O     0.74480   0.75226   0.10279   0.00000  Uiso   1.00
O300   O     0.75520   0.91441   0.23055   0.00000  Uiso   1.00
O301   O     0.68936   0.83821   0.21857   0.00000  Uiso   1.00
O302   O     0.81065   0.82845   0.11476   0.00000  Uiso   1.00
O303   O     0.68090   0.82843   0.11477   0.00000  Uiso   1.00
O304   O     0.81910   0.83824   0.21857   0.00000  Uiso   1.00
C305   C     0.88692   0.93674   0.19023   0.00000  Uiso   1.00
H306   H     0.84987   0.93232   0.18678   0.00000  Uiso   1.00
H307   H     0.89791   0.95955   0.23750   0.00000  Uiso   1.00
H308   H     0.89622   0.95989   0.15636   0.00000  Uiso   1.00
C309   C     0.61308   0.72992   0.14310   0.00000  Uiso   1.00
H310   H     0.65013   0.73435   0.14656   0.00000  Uiso   1.00
H311   H     0.60378   0.70677   0.17698   0.00000  Uiso   1.00
H312   H     0.60209   0.70711   0.09584   0.00000  Uiso   1.00
C313   C     0.24877   0.06660   0.48443   0.00000  Uiso   1.00
C314   C     0.25123   0.26674   0.51557   0.00000  Uiso   1.00
C315   C     0.01577   0.06954   0.47425   0.00000  Uiso   1.00
C316   C     0.48423   0.26379   0.52575   0.00000  Uiso   1.00
C317   C     0.24806   0.01061   0.47568   0.00000  Uiso   1.00
C318   C     0.25194   0.32272   0.52432   0.00000  Uiso   1.00
C319   C     0.16463   0.16602   0.50087   0.00000  Uiso   1.00
C320   C     0.33537   0.16731   0.49913   0.00000  Uiso   1.00
C321   C     0.40924   0.21787   0.51077   0.00000  Uiso   1.00
C322   C     0.09076   0.11547   0.48923   0.00000  Uiso   1.00
C323   C     0.38347   0.16930   0.49734   0.00000  Uiso   1.00
C324   C     0.11653   0.16403   0.50266   0.00000  Uiso   1.00
C325   C     0.40346   0.12119   0.48432   0.00000  Uiso   1.00
C326   C     0.09654   0.21215   0.51568   0.00000  Uiso   1.00
C327   C     0.44972   0.11987   0.48528   0.00000  Uiso   1.00
C328   C     0.05028   0.21346   0.51472   0.00000  Uiso   1.00
C329   C     0.47651   0.16755   0.49929   0.00000  Uiso   1.00
C330   C     0.02349   0.16579   0.50071   0.00000  Uiso   1.00
C331   C     0.45644   0.21688   0.51194   0.00000  Uiso   1.00
C332   C     0.04356   0.11645   0.48806   0.00000  Uiso   1.00
C333   C     0.46946   0.07135   0.47289   0.00000  Uiso   1.00
C334   C     0.03054   0.26198   0.52711   0.00000  Uiso   1.00
Cu335  Cu    0.25501   0.17246   0.56146   0.00000  Uiso   1.00
Cu336  Cu    0.24500   0.16087   0.43854   0.00000  Uiso   1.00
H337   H     0.38272   0.08455   0.47429   0.00000  Uiso   1.00
H338   H     0.11728   0.24878   0.52571   0.00000  Uiso   1.00
H339   H     0.44899   0.03460   0.46209   0.00000  Uiso   1.00
H340   H     0.05101   0.29874   0.53791   0.00000  Uiso   1.00
H341   H     0.02929   0.03099   0.46416   0.00000  Uiso   1.00
H342   H     0.47071   0.30235   0.53584   0.00000  Uiso   1.00
H343   H     0.24430   0.32008   0.42882   0.00000  Uiso   1.00
H344   H     0.25570   0.01325   0.57118   0.00000  Uiso   1.00
H345   H     0.21502   0.12591   0.64960   0.00000  Uiso   1.00
H346   H     0.28498   0.20742   0.35040   0.00000  Uiso   1.00
N347   N     0.23745   0.15214   0.34617   0.00000  Uiso   1.00
N348   N     0.26256   0.18119   0.65383   0.00000  Uiso   1.00
O349   O     0.25326   0.09538   0.53992   0.00000  Uiso   1.00
O350   O     0.24675   0.23796   0.46008   0.00000  Uiso   1.00
O351   O     0.24480   0.08559   0.43612   0.00000  Uiso   1.00
O352   O     0.25520   0.24774   0.56388   0.00000  Uiso   1.00
O353   O     0.18936   0.17155   0.55191   0.00000  Uiso   1.00
O354   O     0.31065   0.16179   0.44809   0.00000  Uiso   1.00
O355   O     0.18090   0.16176   0.44810   0.00000  Uiso   1.00
O356   O     0.31910   0.17157   0.55190   0.00000  Uiso   1.00
C357   C     0.38692   0.27008   0.52356   0.00000  Uiso   1.00
H358   H     0.34987   0.26565   0.52011   0.00000  Uiso   1.00
H359   H     0.39791   0.29289   0.57083   0.00000  Uiso   1.00
H360   H     0.39622   0.29323   0.48969   0.00000  Uiso   1.00
C361   C     0.11308   0.06326   0.47644   0.00000  Uiso   1.00
H362   H     0.15013   0.06768   0.47989   0.00000  Uiso   1.00
H363   H     0.10378   0.04011   0.51031   0.00000  Uiso   1.00
H364   H     0.10209   0.04045   0.42917   0.00000  Uiso   1.00
C365   C     0.74877   0.06660   0.48443   0.00000  Uiso   1.00
C366   C     0.75123   0.26674   0.51557   0.00000  Uiso   1.00
C367   C     0.51577   0.06954   0.47425   0.00000  Uiso   1.00
C368   C     0.98423   0.26379   0.52575   0.00000  Uiso   1.00
C369   C     0.74806   0.01061   0.47568   0.00000  Uiso   1.00
C370   C     0.75194   0.32272   0.52432   0.00000  Uiso   1.00
C371   C     0.66463   0.16602   0.50087   0.00000  Uiso   1.00
C372   C     0.83537   0.16731   0.49913   0.00000  Uiso   1.00
C373   C     0.90924   0.21787   0.51077   0.00000  Uiso   1.00
C374   C     0.59076   0.11547   0.48923   0.00000  Uiso   1.00
C375   C     0.88347   0.16930   0.49734   0.00000  Uiso   1.00
C376   C     0.61653   0.16403   0.50266   0.00000  Uiso   1.00
C377   C     0.90346   0.12119   0.48432   0.00000  Uiso   1.00
C378   C     0.59654   0.21215   0.51568   0.00000  Uiso   1.00
C379   C     0.94972   0.11987   0.48528   0.00000  Uiso   1.00
C380   C     0.55028   0.21346   0.51472   0.00000  Uiso   1.00
C381   C     0.97651   0.16755   0.49929   0.00000  Uiso   1.00
C382   C     0.52349   0.16579   0.50071   0.00000  Uiso   1.00
C383   C     0.95644   0.21688   0.51194   0.00000  Uiso   1.00
C384   C     0.54356   0.11645   0.48806   0.00000  Uiso   1.00
C385   C     0.96946   0.07135   0.47289   0.00000  Uiso   1.00
C386   C     0.53054   0.26198   0.52711   0.00000  Uiso   1.00
Cu387  Cu    0.75501   0.17246   0.56146   0.00000  Uiso   1.00
Cu388  Cu    0.74500   0.16087   0.43854   0.00000  Uiso   1.00
H389   H     0.88272   0.08455   0.47429   0.00000  Uiso   1.00
H390   H     0.61728   0.24878   0.52571   0.00000  Uiso   1.00
H391   H     0.94899   0.03460   0.46209   0.00000  Uiso   1.00
H392   H     0.55101   0.29874   0.53791   0.00000  Uiso   1.00
H393   H     0.52929   0.03099   0.46416   0.00000  Uiso   1.00
H394   H     0.97071   0.30235   0.53584   0.00000  Uiso   1.00
H395   H     0.74430   0.32008   0.42882   0.00000  Uiso   1.00
H396   H     0.75570   0.01325   0.57118   0.00000  Uiso   1.00
H397   H     0.71502   0.12591   0.64960   0.00000  Uiso   1.00
H398   H     0.78498   0.20742   0.35040   0.00000  Uiso   1.00
N399   N     0.73745   0.15214   0.34617   0.00000  Uiso   1.00
N400   N     0.76256   0.18119   0.65383   0.00000  Uiso   1.00
O401   O     0.75326   0.09538   0.53992   0.00000  Uiso   1.00
O402   O     0.74675   0.23796   0.46008   0.00000  Uiso   1.00
O403   O     0.74480   0.08559   0.43612   0.00000  Uiso   1.00
O404   O     0.75520   0.24774   0.56388   0.00000  Uiso   1.00
O405   O     0.68936   0.17155   0.55191   0.00000  Uiso   1.00
O406   O     0.81065   0.16179   0.44809   0.00000  Uiso   1.00
O407   O     0.68090   0.16176   0.44810   0.00000  Uiso   1.00
O408   O     0.81910   0.17157   0.55190   0.00000  Uiso   1.00
C409   C     0.88692   0.27008   0.52356   0.00000  Uiso   1.00
H410   H     0.84987   0.26565   0.52011   0.00000  Uiso   1.00
H411   H     0.89791   0.29289   0.57083   0.00000  Uiso   1.00
H412   H     0.89622   0.29323   0.48969   0.00000  Uiso   1.00
C413   C     0.61308   0.06326   0.47644   0.00000  Uiso   1.00
H414   H     0.65013   0.06768   0.47989   0.00000  Uiso   1.00
H415   H     0.60378   0.04011   0.51031   0.00000  Uiso   1.00
H416   H     0.60209   0.04045   0.42917   0.00000  Uiso   1.00
C417   C     0.24877   0.39993   0.48443   0.00000  Uiso   1.00
C418   C     0.25123   0.60007   0.51557   0.00000  Uiso   1.00
C419   C     0.01577   0.40288   0.47425   0.00000  Uiso   1.00
C420   C     0.48423   0.59712   0.52575   0.00000  Uiso   1.00
C421   C     0.24806   0.34395   0.47568   0.00000  Uiso   1.00
C422   C     0.25194   0.65605   0.52432   0.00000  Uiso   1.00
C423   C     0.16463   0.49935   0.50087   0.00000  Uiso   1.00
C424   C     0.33537   0.50065   0.49913   0.00000  Uiso   1.00
C425   C     0.40924   0.55120   0.51077   0.00000  Uiso   1.00
C426   C     0.09076   0.44880   0.48923   0.00000  Uiso   1.00
C427   C     0.38347   0.50263   0.49734   0.00000  Uiso   1.00
C428   C     0.11653   0.49737   0.50266   0.00000  Uiso   1.00
C429   C     0.40346   0.45452   0.48432   0.00000  Uiso   1.00
C430   C     0.09654   0.54548   0.51568   0.00000  Uiso   1.00
C431   C     0.44972   0.45320   0.48528   0.00000  Uiso   1.00
C432   C     0.05028   0.54679   0.51472   0.00000  Uiso   1.00
C433   C     0.47651   0.50088   0.49929   0.00000  Uiso   1.00
C434   C     0.02349   0.49912   0.50071   0.00000  Uiso   1.00
C435   C     0.45644   0.55021   0.51194   0.00000  Uiso   1.00
C436   C     0.04356   0.44979   0.48806   0.00000  Uiso   1.00
C437   C     0.46946   0.40469   0.47289   0.00000  Uiso   1.00
C438   C     0.03054   0.59531   0.52711   0.00000  Uiso   1.00
Cu439  Cu    0.25501   0.50579   0.56146   0.00000  Uiso   1.00
Cu440  Cu    0.24500   0.49421   0.43854   0.00000  Uiso   1.00
H441   H     0.38272   0.41788   0.47429   0.00000  Uiso   1.00
H442   H     0.11728   0.58212   0.52571   0.00000  Uiso   1.00
H443   H     0.44899   0.36793   0.46209   0.00000  Uiso   1.00
H444   H     0.05101   0.63207   0.53791   0.00000  Uiso   1.00
H445   H     0.02929   0.36432   0.46416   0.00000  Uiso   1.00
H446   H     0.47071   0.63568   0.53584   0.00000  Uiso   1.00
H447   H     0.24430   0.65342   0.42882   0.00000  Uiso   1.00
H448   H     0.25570   0.34658   0.57118   0.00000  Uiso   1.00
H449   H     0.21502   0.45924   0.64960   0.00000  Uiso   1.00
H450   H     0.28498   0.54076   0.35040   0.00000  Uiso   1.00
N451   N     0.23745   0.48547   0.34617   0.00000  Uiso   1.00
N452   N     0.26256   0.51453   0.65383   0.00000  Uiso   1.00
O453   O     0.25326   0.42871   0.53992   0.00000  Uiso   1.00
O454   O     0.24675   0.57129   0.46008   0.00000  Uiso   1.00
O455   O     0.24480   0.41892   0.43612   0.00000  Uiso   1.00
O456   O     0.25520   0.58108   0.56388   0.00000  Uiso   1.00
O457   O     0.18936   0.50488   0.55191   0.00000  Uiso   1.00
O458   O     0.31065   0.49512   0.44809   0.00000  Uiso   1.00
O459   O     0.18090   0.49510   0.44810   0.00000  Uiso   1.00
O460   O     0.31910   0.50490   0.55190   0.00000  Uiso   1.00
C461   C     0.38692   0.60341   0.52356   0.00000  Uiso   1.00
H462   H     0.34987   0.59899   0.52011   0.00000  Uiso   1.00
H463   H     0.39791   0.62622   0.57083   0.00000  Uiso   1.00
H464   H     0.39622   0.62656   0.48969   0.00000  Uiso   1.00
C465   C     0.11308   0.39659   0.47644   0.00000  Uiso   1.00
H466   H     0.15013   0.40101   0.47989   0.00000  Uiso   1.00
H467   H     0.10378   0.37344   0.51031   0.00000  Uiso   1.00
H468   H     0.10209   0.37378   0.42917   0.00000  Uiso   1.00
C469   C     0.74877   0.39993   0.48443   0.00000  Uiso   1.00
C470   C     0.75123   0.60007   0.51557   0.00000  Uiso   1.00
C471   C     0.51577   0.40288   0.47425   0.00000  Uiso   1.00
C472   C     0.98423   0.59712   0.52575   0.00000  Uiso   1.00
C473   C     0.74806   0.34395   0.47568   0.00000  Uiso   1.00
C474   C     0.75194   0.65605   0.52432   0.00000  Uiso   1.00
C475   C     0.66463   0.49935   0.50087   0.00000  Uiso   1.00
C476   C     0.83537   0.50065   0.49913   0.00000  Uiso   1.00
C477   C     0.90924   0.55120   0.51077   0.00000  Uiso   1.00
C478   C     0.59076   0.44880   0.48923   0.00000  Uiso   1.00
C479   C     0.88347   0.50263   0.49734   0.00000  Uiso   1.00
C480   C     0.61653   0.49737   0.50266   0.00000  Uiso   1.00
C481   C     0.90346   0.45452   0.48432   0.00000  Uiso   1.00
C482   C     0.59654   0.54548   0.51568   0.00000  Uiso   1.00
C483   C     0.94972   0.45320   0.48528   0.00000  Uiso   1.00
C484   C     0.55028   0.54679   0.51472   0.00000  Uiso   1.00
C485   C     0.97651   0.50088   0.49929   0.00000  Uiso   1.00
C486   C     0.52349   0.49912   0.50071   0.00000  Uiso   1.00
C487   C     0.95644   0.55021   0.51194   0.00000  Uiso   1.00
C488   C     0.54356   0.44979   0.48806   0.00000  Uiso   1.00
C489   C     0.96946   0.40469   0.47289   0.00000  Uiso   1.00
C490   C     0.53054   0.59531   0.52711   0.00000  Uiso   1.00
Cu491  Cu    0.75501   0.50579   0.56146   0.00000  Uiso   1.00
Cu492  Cu    0.74500   0.49421   0.43854   0.00000  Uiso   1.00
H493   H     0.88272   0.41788   0.47429   0.00000  Uiso   1.00
H494   H     0.61728   0.58212   0.52571   0.00000  Uiso   1.00
H495   H     0.94899   0.36793   0.46209   0.00000  Uiso   1.00
H496   H     0.55101   0.63207   0.53791   0.00000  Uiso   1.00
H497   H     0.52929   0.36432   0.46416   0.00000  Uiso   1.00
H498   H     0.97071   0.63568   0.53584   0.00000  Uiso   1.00
H499   H     0.74430   0.65342   0.42882   0.00000  Uiso   1.00
H500   H     0.75570   0.34658   0.57118   0.00000  Uiso   1.00
H501   H     0.71502   0.45924   0.64960   0.00000  Uiso   1.00
H502   H     0.78498   0.54076   0.35040   0.00000  Uiso   1.00
N503   N     0.73745   0.48547   0.34617   0.00000  Uiso   1.00
N504   N     0.76256   0.51453   0.65383   0.00000  Uiso   1.00
O505   O     0.75326   0.42871   0.53992   0.00000  Uiso   1.00
O506   O     0.74675   0.57129   0.46008   0.00000  Uiso   1.00
O507   O     0.74480   0.41892   0.43612   0.00000  Uiso   1.00
O508   O     0.75520   0.58108   0.56388   0.00000  Uiso   1.00
O509   O     0.68936   0.50488   0.55191   0.00000  Uiso   1.00
O510   O     0.81065   0.49512   0.44809   0.00000  Uiso   1.00
O511   O     0.68090   0.49510   0.44810   0.00000  Uiso   1.00
O512   O     0.81910   0.50490   0.55190   0.00000  Uiso   1.00
C513   C     0.88692   0.60341   0.52356   0.00000  Uiso   1.00
H514   H     0.84987   0.59899   0.52011   0.00000  Uiso   1.00
H515   H     0.89791   0.62622   0.57083   0.00000  Uiso   1.00
H516   H     0.89622   0.62656   0.48969   0.00000  Uiso   1.00
C517   C     0.61308   0.39659   0.47644   0.00000  Uiso   1.00
H518   H     0.65013   0.40101   0.47989   0.00000  Uiso   1.00
H519   H     0.60378   0.37344   0.51031   0.00000  Uiso   1.00
H520   H     0.60209   0.37378   0.42917   0.00000  Uiso   1.00
C521   C     0.24877   0.73326   0.48443   0.00000  Uiso   1.00
C522   C     0.25123   0.93340   0.51557   0.00000  Uiso   1.00
C523   C     0.01577   0.73621   0.47425   0.00000  Uiso   1.00
C524   C     0.48423   0.93046   0.52575   0.00000  Uiso   1.00
C525   C     0.24806   0.67728   0.47568   0.00000  Uiso   1.00
C526   C     0.25194   0.98939   0.52432   0.00000  Uiso   1.00
C527   C     0.16463   0.83269   0.50087   0.00000  Uiso   1.00
C528   C     0.33537   0.83398   0.49913   0.00000  Uiso   1.00
C529   C     0.40924   0.88453   0.51077   0.00000  Uiso   1.00
C530   C     0.09076   0.78213   0.48923   0.00000  Uiso   1.00
C531   C     0.38347   0.83597   0.49734   0.00000  Uiso   1.00
C532   C     0.11653   0.83070   0.50266   0.00000  Uiso   1.00
C533   C     0.40346   0.78785   0.48432   0.00000  Uiso   1.00
C534   C     0.09654   0.87881   0.51568   0.00000  Uiso   1.00
C535   C     0.44972   0.78654   0.48528   0.00000  Uiso   1.00
C536   C     0.05028   0.88013   0.51472   0.00000  Uiso   1.00
C537   C     0.47651   0.83421   0.49929   0.00000  Uiso   1.00
C538   C     0.02349   0.83245   0.50071   0.00000  Uiso   1.00
C539   C     0.45644   0.88355   0.51194   0.00000  Uiso   1.00
C540   C     0.04356   0.78312   0.48806   0.00000  Uiso   1.00
C541   C     0.46946   0.73802   0.47289   0.00000  Uiso   1.00
C542   C     0.03054   0.92864   0.52711   0.00000  Uiso   1.00
Cu543  Cu    0.25501   0.83913   0.56146   0.00000  Uiso   1.00
Cu544  Cu    0.24500   0.82754   0.43854   0.00000  Uiso   1.00
H545   H     0.38272   0.75122   0.47429   0.00000  Uiso   1.00
H546   H     0.11728   0.91545   0.52571   0.00000  Uiso   1.00
H547   H     0.44899   0.70126   0.46209   0.00000  Uiso   1.00
H548   H     0.05101   0.96540   0.53791   0.00000  Uiso   1.00
H549   H     0.02929   0.69765   0.46416   0.00000  Uiso   1.00
H550   H     0.47071   0.96901   0.53584   0.00000  Uiso   1.00
H551   H     0.24430   0.98675   0.42882   0.00000  Uiso   1.00
H552   H     0.25570   0.67992   0.57118   0.00000  Uiso   1.00
H553   H     0.21502   0.79258   0.64960   0.00000  Uiso   1.00
H554   H     0.28498   0.87409   0.35040   0.00000  Uiso   1.00
N555   N     0.23745   0.81881   0.34617   0.00000  Uiso   1.00
N556   N     0.26256   0.84786   0.65383   0.00000  Uiso   1.00
O557   O     0.25326   0.76204   0.53992   0.00000  Uiso   1.00
O558   O     0.24675   0.90462   0.46008   0.00000  Uiso   1.00
O559   O     0.24480   0.75226   0.43612   0.00000  Uiso   1.00
O560   O     0.25520   0.91441   0.56388   0.00000  Uiso   1.00
O561   O     0.18936   0.83821   0.55191   0.00000  Uiso   1.00
O562   O     0.31065   0.82845   0.44809   0.00000  Uiso   1.00
O563   O     0.18090   0.82843   0.44810   0.00000  Uiso   1.00
O564   O     0.31910   0.83824   0.55190   0.00000  Uiso   1.00
C565   C     0.38692   0.93674   0.52356   0.00000  Uiso   1.00
H566   H     0.34987   0.93232   0.52011   0.00000  Uiso   1.00
H567   H     0.39791   0.95955   0.57083   0.00000  Uiso   1.00
H568   H     0.39622   0.95989   0.48969   0.00000  Uiso   1.00
C569   C     0.11308   0.72992   0.47644   0.00000  Uiso   1.00
H570   H     0.15013   0.73435   0.47989   0.00000  Uiso   1.00
H571   H     0.10378   0.70677   0.51031   0.00000  Uiso   1.00
H572   H     0.10209   0.70711   0.42917   0.00000  Uiso   1.00
C573   C     0.74877   0.73326   0.48443   0.00000  Uiso   1.00
C574   C     0.75123   0.93340   0.51557   0.00000  Uiso   1.00
C575   C     0.51577   0.73621   0.47425   0.00000  Uiso   1.00
C576   C     0.98423   0.93046   0.52575   0.00000  Uiso   1.00
C577   C     0.74806   0.67728   0.47568   0.00000  Uiso   1.00
C578   C     0.75194   0.98939   0.52432   0.00000  Uiso   1.00
C579   C     0.66463   0.83269   0.50087   0.00000  Uiso   1.00
C580   C     0.83537   0.83398   0.49913   0.00000  Uiso   1.00
C581   C     0.90924   0.88453   0.51077   0.00000  Uiso   1.00
C582   C     0.59076   0.78213   0.48923   0.00000  Uiso   1.00
C583   C     0.88347   0.83597   0.49734   0.00000  Uiso   1.00
C584   C     0.61653   0.83070   0.50266   0.00000  Uiso   1.00
C585   C     0.90346   0.78785   0.48432   0.00000  Uiso   1.00
C586   C     0.59654   0.87881   0.51568   0.00000  Uiso   1.00
C587   C     0.94972   0.78654   0.48528   0.00000  Uiso   1.00
C588   C     0.55028   0.88013   0.51472   0.00000  Uiso   1.00
C589   C     0.97651   0.83421   0.49929   0.00000  Uiso   1.00
C590   C     0.52349   0.83245   0.50071   0.00000  Uiso   1.00
C591   C     0.95644   0.88355   0.51194   0.00000  Uiso   1.00
C592   C     0.54356   0.78312   0.48806   0.00000  Uiso   1.00
C593   C     0.96946   0.73802   0.47289   0.00000  Uiso   1.00
C594   C     0.53054   0.92864   0.52711   0.00000  Uiso   1.00
Cu595  Cu    0.75501   0.83913   0.56146   0.00000  Uiso   1.00
Cu596  Cu    0.74500   0.82754   0.43854   0.00000  Uiso   1.00
H597   H     0.88272   0.75122   0.47429   0.00000  Uiso   1.00
H598   H     0.61728   0.91545   0.52571   0.00000  Uiso   1.00
H599   H     0.94899   0.70126   0.46209   0.00000  Uiso   1.00
H600   H     0.55101   0.96540   0.53791   0.00000  Uiso   1.00
H601   H     0.52929   0.69765   0.46416   0.00000  Uiso   1.00
H602   H     0.97071   0.96901   0.53584   0.00000  Uiso   1.00
H603   H     0.74430   0.98675   0.42882   0.00000  Uiso   1.00
H604   H     0.75570   0.67992   0.57118   0.00000  Uiso   1.00
H605   H     0.71502   0.79258   0.64960   0.00000  Uiso   1.00
H606   H     0.78498   0.87409   0.35040   0.00000  Uiso   1.00
N607   N     0.73745   0.81881   0.34617   0.00000  Uiso   1.00
N608   N     0.76256   0.84786   0.65383   0.00000  Uiso   1.00
O609   O     0.75326   0.76204   0.53992   0.00000  Uiso   1.00
O610   O     0.74675   0.90462   0.46008   0.00000  Uiso   1.00
O611   O     0.74480   0.75226   0.43612   0.00000  Uiso   1.00
O612   O     0.75520   0.91441   0.56388   0.00000  Uiso   1.00
O613   O     0.68936   0.83821   0.55191   0.00000  Uiso   1.00
O614   O     0.81065   0.82845   0.44809   0.00000  Uiso   1.00
O615   O     0.68090   0.82843   0.44810   0.00000  Uiso   1.00
O616   O     0.81910   0.83824   0.55190   0.00000  Uiso   1.00
C617   C     0.88692   0.93674   0.52356   0.00000  Uiso   1.00
H618   H     0.84987   0.93232   0.52011   0.00000  Uiso   1.00
H619   H     0.89791   0.95955   0.57083   0.00000  Uiso   1.00
H620   H     0.89622   0.95989   0.48969   0.00000  Uiso   1.00
C621   C     0.61308   0.72992   0.47644   0.00000  Uiso   1.00
H622   H     0.65013   0.73435   0.47989   0.00000  Uiso   1.00
H623   H     0.60378   0.70677   0.51031   0.00000  Uiso   1.00
H624   H     0.60209   0.70711   0.42917   0.00000  Uiso   1.00
C625   C     0.24877   0.06660   0.81776   0.00000  Uiso   1.00
C626   C     0.25123   0.26674   0.84891   0.00000  Uiso   1.00
C627   C     0.01577   0.06954   0.80758   0.00000  Uiso   1.00
C628   C     0.48423   0.26379   0.85908   0.00000  Uiso   1.00
C629   C     0.24806   0.01061   0.80901   0.00000  Uiso   1.00
C630   C     0.25194   0.32272   0.85765   0.00000  Uiso   1.00
C631   C     0.16463   0.16602   0.83420   0.00000  Uiso   1.00
C632   C     0.33537   0.16731   0.83246   0.00000  Uiso   1.00
C633   C     0.40924   0.21787   0.84410   0.00000  Uiso   1.00
C634   C     0.09076   0.11547   0.82257   0.00000  Uiso   1.00
C635   C     0.38347   0.16930   0.83068   0.00000  Uiso   1.00
C636   C     0.11653   0.16403   0.83599   0.00000  Uiso   1.00
C637   C     0.40346   0.12119   0.81765   0.00000  Uiso   1.00
C638   C     0.09654   0.21215   0.84902   0.00000  Uiso   1.00
C639   C     0.44972   0.11987   0.81861   0.00000  Uiso   1.00
C640   C     0.05028   0.21346   0.84806   0.00000  Uiso   1.00
C641   C     0.47651   0.16755   0.83262   0.00000  Uiso   1.00
C642   C     0.02349   0.16579   0.83404   0.00000  Uiso   1.00
C643   C     0.45644   0.21688   0.84527   0.00000  Uiso   1.00
C644   C     0.04356   0.11645   0.82140   0.00000  Uiso   1.00
C645   C     0.46946   0.07135   0.80623   0.00000  Uiso   1.00
C646   C     0.03054   0.26198   0.86044   0.00000  Uiso   1.00
Cu647  Cu    0.25501   0.17246   0.89479   0.00000  Uiso   1.00
Cu648  Cu    0.24500   0.16087   0.77187   0.00000  Uiso   1.00
H649   H     0.38272   0.08455   0.80763   0.00000  Uiso   1.00
H650   H     0.11728   0.24878   0.85904   0.00000  Uiso   1.00
H651   H     0.44899   0.03460   0.79543   0.00000  Uiso   1.00
H652   H     0.05101   0.29874   0.87124   0.00000  Uiso   1.00
H653   H     0.02929   0.03099   0.79749   0.00000  Uiso   1.00
H654   H     0.47071   0.30235   0.86918   0.00000  Uiso   1.00
H655   H     0.24430   0.32008   0.76215   0.00000  Uiso   1.00
H656   H     0.25570   0.01325   0.90451   0.00000  Uiso   1.00
H657   H     0.21502   0.12591   0.98294   0.00000  Uiso   1.00
H658   H     0.28498   0.20742   0.68373   0.00000  Uiso   1.00
N659   N     0.23745   0.15214   0.67951   0.00000  Uiso   1.00
N660   N     0.26256   0.18119   0.98716   0.00000  Uiso   1.00
O661   O     0.25326   0.09538   0.87326   0.00000  Uiso   1.00
O662   O     0.24675   0.23796   0.79341   0.00000  Uiso   1.00
O663   O     0.24480   0.08559   0.76945   0.00000  Uiso   1.00
O664   O     0.25520   0.24774   0.89721   0.00000  Uiso   1.00
O665   O     0.18936   0.17155   0.88524   0.00000  Uiso   1.00
O666   O     0.31065   0.16179   0.78143   0.00000  Uiso   1.00
O667   O     0.18090   0.16176   0.78143   0.00000  Uiso   1.00
O668   O     0.31910   0.17157   0.88523   0.00000  Uiso   1.00
C669   C     0.38692   0.27008   0.85690   0.00000  Uiso   1.00
H670   H     0.34987   0.26565   0.85344   0.00000  Uiso   1.00
H671   H     0.39791   0.29289   0.90416   0.00000  Uiso   1.00
H672   H     0.39622   0.29323   0.82302   0.00000  Uiso   1.00
C673   C     0.11308   0.06326   0.80977   0.00000  Uiso   1.00
H674   H     0.15013   0.06768   0.81322   0.00000  Uiso   1.00
H675   H     0.10378   0.04011   0.84364   0.00000  Uiso   1.00
H676   H     0.10209   0.04045   0.76250   0.00000  Uiso   1.00
C677   C     0.74877   0.06660   0.81776   0.00000  Uiso   1.00
C678   C     0.75123   0.26674   0.84891   0.00000  Uiso   1.00
C679   C     0.51577   0.06954   0.80758   0.00000  Uiso   1.00
C680   C     0.98423   0.26379   0.85908   0.00000  Uiso   1.00
C681   C     0.74806   0.01061   0.80901   0.00000  Uiso   1.00
C682   C     0.75194   0.32272   0.85765   0.00000  Uiso   1.00
C683   C     0.66463   0.16602   0.83420   0.00000  Uiso   1.00
C684   C     0.83537   0.16731   0.83246   0.00000  Uiso   1.00
C685   C     0.90924   0.21787   0.84410   0.00000  Uiso   1.00
C686   C     0.59076   0.11547   0.82257   0.00000  Uiso   1.00
C687   C     0.88347   0.16930   0.83068   0.00000  Uiso   1.00
C688   C     0.61653   0.16403   0.83599   0.00000  Uiso   1.00
C689   C     0.90346   0.12119   0.81765   0.00000  Uiso   1.00
C690   C     0.59654   0.21215   0.84902   0.00000  Uiso   1.00
C691   C     0.94972   0.11987   0.81861   0.00000  Uiso   1.00
C692   C     0.55028   0.21346   0.84806   0.00000  Uiso   1.00
C693   C     0.97651   0.16755   0.83262   0.00000  Uiso   1.00
C694   C     0.52349   0.16579   0.83404   0.00000  Uiso   1.00
C695   C     0.95644   0.21688   0.84527   0.00000  Uiso   1.00
C696   C     0.54356   0.11645   0.82140   0.00000  Uiso   1.00
C697   C     0.96946   0.07135   0.80623   0.00000  Uiso   1.00
C698   C     0.53054   0.26198   0.86044   0.00000  Uiso   1.00
Cu699  Cu    0.75501   0.17246   0.89479   0.00000  Uiso   1.00
Cu700  Cu    0.74500   0.16087   0.77187   0.00000  Uiso   1.00
H701   H     0.88272   0.08455   0.80763   0.00000  Uiso   1.00
H702   H     0.61728   0.24878   0.85904   0.00000  Uiso   1.00
H703   H     0.94899   0.03460   0.79543   0.00000  Uiso   1.00
H704   H     0.55101   0.29874   0.87124   0.00000  Uiso   1.00
H705   H     0.52929   0.03099   0.79749   0.00000  Uiso   1.00
H706   H     0.97071   0.30235   0.86918   0.00000  Uiso   1.00
H707   H     0.74430   0.32008   0.76215   0.00000  Uiso   1.00
H708   H     0.75570   0.01325   0.90451   0.00000  Uiso   1.00
H709   H     0.71502   0.12591   0.98294   0.00000  Uiso   1.00
H710   H     0.78498   0.20742   0.68373   0.00000  Uiso   1.00
N711   N     0.73745   0.15214   0.67951   0.00000  Uiso   1.00
N712   N     0.76256   0.18119   0.98716   0.00000  Uiso   1.00
O713   O     0.75326   0.09538   0.87326   0.00000  Uiso   1.00
O714   O     0.74675   0.23796   0.79341   0.00000  Uiso   1.00
O715   O     0.74480   0.08559   0.76945   0.00000  Uiso   1.00
O716   O     0.75520   0.24774   0.89721   0.00000  Uiso   1.00
O717   O     0.68936   0.17155   0.88524   0.00000  Uiso   1.00
O718   O     0.81065   0.16179   0.78143   0.00000  Uiso   1.00
O719   O     0.68090   0.16176   0.78143   0.00000  Uiso   1.00
O720   O     0.81910   0.17157   0.88523   0.00000  Uiso   1.00
C721   C     0.88692   0.27008   0.85690   0.00000  Uiso   1.00
H722   H     0.84987   0.26565   0.85344   0.00000  Uiso   1.00
H723   H     0.89791   0.29289   0.90416   0.00000  Uiso   1.00
H724   H     0.89622   0.29323   0.82302   0.00000  Uiso   1.00
C725   C     0.61308   0.06326   0.80977   0.00000  Uiso   1.00
H726   H     0.65013   0.06768   0.81322   0.00000  Uiso   1.00
H727   H     0.60378   0.04011   0.84364   0.00000  Uiso   1.00
H728   H     0.60209   0.04045   0.76250   0.00000  Uiso   1.00
C729   C     0.24877   0.39993   0.81776   0.00000  Uiso   1.00
C730   C     0.25123   0.60007   0.84891   0.00000  Uiso   1.00
C731   C     0.01577   0.40288   0.80758   0.00000  Uiso   1.00
C732   C     0.48423   0.59712   0.85908   0.00000  Uiso   1.00
C733   C     0.24806   0.34395   0.80901   0.00000  Uiso   1.00
C734   C     0.25194   0.65605   0.85765   0.00000  Uiso   1.00
C735   C     0.16463   0.49935   0.83420   0.00000  Uiso   1.00
C736   C     0.33537   0.50065   0.83246   0.00000  Uiso   1.00
C737   C     0.40924   0.55120   0.84410   0.00000  Uiso   1.00
C738   C     0.09076   0.44880   0.82257   0.00000  Uiso   1.00
C739   C     0.38347   0.50263   0.83068   0.00000  Uiso   1.00
C740   C     0.11653   0.49737   0.83599   0.00000  Uiso   1.00
C741   C     0.40346   0.45452   0.81765   0.00000  Uiso   1.00
C742   C     0.09654   0.54548   0.84902   0.00000  Uiso   1.00
C743   C     0.44972   0.45320   0.81861   0.00000  Uiso   1.00
C744   C     0.05028   0.54679   0.84806   0.00000  Uiso   1.00
C745   C     0.47651   0.50088   0.83262   0.00000  Uiso   1.00
C746   C     0.02349   0.49912   0.83404   0.00000  Uiso   1.00
C747   C     0.45644   0.55021   0.84527   0.00000  Uiso   1.00
C748   C     0.04356   0.44979   0.82140   0.00000  Uiso   1.00
C749   C     0.46946   0.40469   0.80623   0.00000  Uiso   1.00
C750   C     0.03054   0.59531   0.86044   0.00000  Uiso   1.00
Cu751  Cu    0.25501   0.50579   0.89479   0.00000  Uiso   1.00
Cu752  Cu    0.24500   0.49421   0.77187   0.00000  Uiso   1.00
H753   H     0.38272   0.41788   0.80763   0.00000  Uiso   1.00
H754   H     0.11728   0.58212   0.85904   0.00000  Uiso   1.00
H755   H     0.44899   0.36793   0.79543   0.00000  Uiso   1.00
H756   H     0.05101   0.63207   0.87124   0.00000  Uiso   1.00
H757   H     0.02929   0.36432   0.79749   0.00000  Uiso   1.00
H758   H     0.47071   0.63568   0.86918   0.00000  Uiso   1.00
H759   H     0.24430   0.65342   0.76215   0.00000  Uiso   1.00
H760   H     0.25570   0.34658   0.90451   0.00000  Uiso   1.00
H761   H     0.21502   0.45924   0.98294   0.00000  Uiso   1.00
H762   H     0.28498   0.54076   0.68373   0.00000  Uiso   1.00
N763   N     0.23745   0.48547   0.67951   0.00000  Uiso   1.00
N764   N     0.26256   0.51453   0.98716   0.00000  Uiso   1.00
O765   O     0.25326   0.42871   0.87326   0.00000  Uiso   1.00
O766   O     0.24675   0.57129   0.79341   0.00000  Uiso   1.00
O767   O     0.24480   0.41892   0.76945   0.00000  Uiso   1.00
O768   O     0.25520   0.58108   0.89721   0.00000  Uiso   1.00
O769   O     0.18936   0.50488   0.88524   0.00000  Uiso   1.00
O770   O     0.31065   0.49512   0.78143   0.00000  Uiso   1.00
O771   O     0.18090   0.49510   0.78143   0.00000  Uiso   1.00
O772   O     0.31910   0.50490   0.88523   0.00000  Uiso   1.00
C773   C     0.38692   0.60341   0.85690   0.00000  Uiso   1.00
H774   H     0.34987   0.59899   0.85344   0.00000  Uiso   1.00
H775   H     0.39791   0.62622   0.90416   0.00000  Uiso   1.00
H776   H     0.39622   0.62656   0.82302   0.00000  Uiso   1.00
C777   C     0.11308   0.39659   0.80977   0.00000  Uiso   1.00
H778   H     0.15013   0.40101   0.81322   0.00000  Uiso   1.00
H779   H     0.10378   0.37344   0.84364   0.00000  Uiso   1.00
H780   H     0.10209   0.37378   0.76250   0.00000  Uiso   1.00
C781   C     0.74877   0.39993   0.81776   0.00000  Uiso   1.00
C782   C     0.75123   0.60007   0.84891   0.00000  Uiso   1.00
C783   C     0.51577   0.40288   0.80758   0.00000  Uiso   1.00
C784   C     0.98423   0.59712   0.85908   0.00000  Uiso   1.00
C785   C     0.74806   0.34395   0.80901   0.00000  Uiso   1.00
C786   C     0.75194   0.65605   0.85765   0.00000  Uiso   1.00
C787   C     0.66463   0.49935   0.83420   0.00000  Uiso   1.00
C788   C     0.83537   0.50065   0.83246   0.00000  Uiso   1.00
C789   C     0.90924   0.55120   0.84410   0.00000  Uiso   1.00
C790   C     0.59076   0.44880   0.82257   0.00000  Uiso   1.00
C791   C     0.88347   0.50263   0.83068   0.00000  Uiso   1.00
C792   C     0.61653   0.49737   0.83599   0.00000  Uiso   1.00
C793   C     0.90346   0.45452   0.81765   0.00000  Uiso   1.00
C794   C     0.59654   0.54548   0.84902   0.00000  Uiso   1.00
C795   C     0.94972   0.45320   0.81861   0.00000  Uiso   1.00
C796   C     0.55028   0.54679   0.84806   0.00000  Uiso   1.00
C797   C     0.97651   0.50088   0.83262   0.00000  Uiso   1.00
C798   C     0.52349   0.49912   0.83404   0.00000  Uiso   1.00
C799   C     0.95644   0.55021   0.84527   0.00000  Uiso   1.00
C800   C     0.54356   0.44979   0.82140   0.00000  Uiso   1.00
C801   C     0.96946   0.40469   0.80623   0.00000  Uiso   1.00
C802   C     0.53054   0.59531   0.86044   0.00000  Uiso   1.00
Cu803  Cu    0.75501   0.50579   0.89479   0.00000  Uiso   1.00
Cu804  Cu    0.74500   0.49421   0.77187   0.00000  Uiso   1.00
H805   H     0.88272   0.41788   0.80763   0.00000  Uiso   1.00
H806   H     0.61728   0.58212   0.85904   0.00000  Uiso   1.00
H807   H     0.94899   0.36793   0.79543   0.00000  Uiso   1.00
H808   H     0.55101   0.63207   0.87124   0.00000  Uiso   1.00
H809   H     0.52929   0.36432   0.79749   0.00000  Uiso   1.00
H810   H     0.97071   0.63568   0.86918   0.00000  Uiso   1.00
H811   H     0.74430   0.65342   0.76215   0.00000  Uiso   1.00
H812   H     0.75570   0.34658   0.90451   0.00000  Uiso   1.00
H813   H     0.71502   0.45924   0.98294   0.00000  Uiso   1.00
H814   H     0.78498   0.54076   0.68373   0.00000  Uiso   1.00
N815   N     0.73745   0.48547   0.67951   0.00000  Uiso   1.00
N816   N     0.76256   0.51453   0.98716   0.00000  Uiso   1.00
O817   O     0.75326   0.42871   0.87326   0.00000  Uiso   1.00
O818   O     0.74675   0.57129   0.79341   0.00000  Uiso   1.00
O819   O     0.74480   0.41892   0.76945   0.00000  Uiso   1.00
O820   O     0.75520   0.58108   0.89721   0.00000  Uiso   1.00
O821   O     0.68936   0.50488   0.88524   0.00000  Uiso   1.00
O822   O     0.81065   0.49512   0.78143   0.00000  Uiso   1.00
O823   O     0.68090   0.49510   0.78143   0.00000  Uiso   1.00
O824   O     0.81910   0.50490   0.88523   0.00000  Uiso   1.00
C825   C     0.88692   0.60341   0.85690   0.00000  Uiso   1.00
H826   H     0.84987   0.59899   0.85344   0.00000  Uiso   1.00
H827   H     0.89791   0.62622   0.90416   0.00000  Uiso   1.00
H828   H     0.89622   0.62656   0.82302   0.00000  Uiso   1.00
C829   C     0.61308   0.39659   0.80977   0.00000  Uiso   1.00
H830   H     0.65013   0.40101   0.81322   0.00000  Uiso   1.00
H831   H     0.60378   0.37344   0.84364   0.00000  Uiso   1.00
H832   H     0.60209   0.37378   0.76250   0.00000  Uiso   1.00
C833   C     0.24877   0.73326   0.81776   0.00000  Uiso   1.00
C834   C     0.25123   0.93340   0.84891   0.00000  Uiso   1.00
C835   C     0.01577   0.73621   0.80758   0.00000  Uiso   1.00
C836   C     0.48423   0.93046   0.85908   0.00000  Uiso   1.00
C837   C     0.24806   0.67728   0.80901   0.00000  Uiso   1.00
C838   C     0.25194   0.98939   0.85765   0.00000  Uiso   1.00
C839   C     0.16463   0.83269   0.83420   0.00000  Uiso   1.00
C840   C     0.33537   0.83398   0.83246   0.00000  Uiso   1.00
C841   C     0.40924   0.88453   0.84410   0.00000  Uiso   1.00
C842   C     0.09076   0.78213   0.82257   0.00000  Uiso   1.00
C843   C     0.38347   0.83597   0.83068   0.00000  Uiso   1.00
C844   C     0.11653   0.83070   0.83599   0.00000  Uiso   1.00
C845   C     0.40346   0.78785   0.81765   0.00000  Uiso   1.00
C846   C     0.09654   0.87881   0.84902   0.00000  Uiso   1.00
C847   C     0.44972   0.78654   0.81861   0.00000  Uiso   1.00
C848   C     0.05028   0.88013   0.84806   0.00000  Uiso   1.00
C849   C     0.47651   0.83421   0.83262   0.00000  Uiso   1.00
C850   C     0.02349   0.83245   0.83404   0.00000  Uiso   1.00
C851   C     0.45644   0.88355   0.84527   0.00000  Uiso   1.00
C852   C     0.04356   0.78312   0.82140   0.00000  Uiso   1.00
C853   C     0.46946   0.73802   0.80623   0.00000  Uiso   1.00
C854   C     0.03054   0.92864   0.86044   0.00000  Uiso   1.00
Cu855  Cu    0.25501   0.83913   0.89479   0.00000  Uiso   1.00
Cu856  Cu    0.24500   0.82754   0.77187   0.00000  Uiso   1.00
H857   H     0.38272   0.75122   0.80763   0.00000  Uiso   1.00
H858   H     0.11728   0.91545   0.85904   0.00000  Uiso   1.00
H859   H     0.44899   0.70126   0.79543   0.00000  Uiso   1.00
H860   H     0.05101   0.96540   0.87124   0.00000  Uiso   1.00
H861   H     0.02929   0.69765   0.79749   0.00000  Uiso   1.00
H862   H     0.47071   0.96901   0.86918   0.00000  Uiso   1.00
H863   H     0.24430   0.98675   0.76215   0.00000  Uiso   1.00
H864   H     0.25570   0.67992   0.90451   0.00000  Uiso   1.00
H865   H     0.21502   0.79258   0.98294   0.00000  Uiso   1.00
H866   H     0.28498   0.87409   0.68373   0.00000  Uiso   1.00
N867   N     0.23745   0.81881   0.67951   0.00000  Uiso   1.00
N868   N     0.26256   0.84786   0.98716   0.00000  Uiso   1.00
O869   O     0.25326   0.76204   0.87326   0.00000  Uiso   1.00
O870   O     0.24675   0.90462   0.79341   0.00000  Uiso   1.00
O871   O     0.24480   0.75226   0.76945   0.00000  Uiso   1.00
O872   O     0.25520   0.91441   0.89721   0.00000  Uiso   1.00
O873   O     0.18936   0.83821   0.88524   0.00000  Uiso   1.00
O874   O     0.31065   0.82845   0.78143   0.00000  Uiso   1.00
O875   O     0.18090   0.82843   0.78143   0.00000  Uiso   1.00
O876   O     0.31910   0.83824   0.88523   0.00000  Uiso   1.00
C877   C     0.38692   0.93674   0.85690   0.00000  Uiso   1.00
H878   H     0.34987   0.93232   0.85344   0.00000  Uiso   1.00
H879   H     0.39791   0.95955   0.90416   0.00000  Uiso   1.00
H880   H     0.39622   0.95989   0.82302   0.00000  Uiso   1.00
C881   C     0.11308   0.72992   0.80977   0.00000  Uiso   1.00
H882   H     0.15013   0.73435   0.81322   0.00000  Uiso   1.00
H883   H     0.10378   0.70677   0.84364   0.00000  Uiso   1.00
H884   H     0.10209   0.70711   0.76250   0.00000  Uiso   1.00
C885   C     0.74877   0.73326   0.81776   0.00000  Uiso   1.00
C886   C     0.75123   0.93340   0.84891   0.00000  Uiso   1.00
C887   C     0.51577   0.73621   0.80758   0.00000  Uiso   1.00
C888   C     0.98423   0.93046   0.85908   0.00000  Uiso   1.00
C889   C     0.74806   0.67728   0.80901   0.00000  Uiso   1.00
C890   C     0.75194   0.98939   0.85765   0.00000  Uiso   1.00
C891   C     0.66463   0.83269   0.83420   0.00000  Uiso   1.00
C892   C     0.83537   0.83398   0.83246   0.00000  Uiso   1.00
C893   C     0.90924   0.88453   0.84410   0.00000  Uiso   1.00
C894   C     0.59076   0.78213   0.82257   0.00000  Uiso   1.00
C895   C     0.88347   0.83597   0.83068   0.00000  Uiso   1.00
C896   C     0.61653   0.83070   0.83599   0.00000  Uiso   1.00
C897   C     0.90346   0.78785   0.81765   0.00000  Uiso   1.00
C898   C     0.59654   0.87881   0.84902   0.00000  Uiso   1.00
C899   C     0.94972   0.78654   0.81861   0.00000  Uiso   1.00
C900   C     0.55028   0.88013   0.84806   0.00000  Uiso   1.00
C901   C     0.97651   0.83421   0.83262   0.00000  Uiso   1.00
C902   C     0.52349   0.83245   0.83404   0.00000  Uiso   1.00
C903   C     0.95644   0.88355   0.84527   0.00000  Uiso   1.00
C904   C     0.54356   0.78312   0.82140   0.00000  Uiso   1.00
C905   C     0.96946   0.73802   0.80623   0.00000  Uiso   1.00
C906   C     0.53054   0.92864   0.86044   0.00000  Uiso   1.00
Cu907  Cu    0.75501   0.83913   0.89479   0.00000  Uiso   1.00
Cu908  Cu    0.74500   0.82754   0.77187   0.00000  Uiso   1.00
H909   H     0.88272   0.75122   0.80763   0.00000  Uiso   1.00
H910   H     0.61728   0.91545   0.85904   0.00000  Uiso   1.00
H911   H     0.94899   0.70126   0.79543   0.00000  Uiso   1.00
H912   H     0.55101   0.96540   0.87124   0.00000  Uiso   1.00
H913   H     0.52929   0.69765   0.79749   0.00000  Uiso   1.00
H914   H     0.97071   0.96901   0.86918   0.00000  Uiso   1.00
H915   H     0.74430   0.98675   0.76215   0.00000  Uiso   1.00
H916   H     0.75570   0.67992   0.90451   0.00000  Uiso   1.00
H917   H     0.71502   0.79258   0.98294   0.00000  Uiso   1.00
H918   H     0.78498   0.87409   0.68373   0.00000  Uiso   1.00
N919   N     0.73745   0.81881   0.67951   0.00000  Uiso   1.00
N920   N     0.76256   0.84786   0.98716   0.00000  Uiso   1.00
O921   O     0.75326   0.76204   0.87326   0.00000  Uiso   1.00
O922   O     0.74675   0.90462   0.79341   0.00000  Uiso   1.00
O923   O     0.74480   0.75226   0.76945   0.00000  Uiso   1.00
O924   O     0.75520   0.91441   0.89721   0.00000  Uiso   1.00
O925   O     0.68936   0.83821   0.88524   0.00000  Uiso   1.00
O926   O     0.81065   0.82845   0.78143   0.00000  Uiso   1.00
O927   O     0.68090   0.82843   0.78143   0.00000  Uiso   1.00
O928   O     0.81910   0.83824   0.88523   0.00000  Uiso   1.00
C929   C     0.88692   0.93674   0.85690   0.00000  Uiso   1.00
H930   H     0.84987   0.93232   0.85344   0.00000  Uiso   1.00
H931   H     0.89791   0.95955   0.90416   0.00000  Uiso   1.00
H932   H     0.89622   0.95989   0.82302   0.00000  Uiso   1.00
C933   C     0.61308   0.72992   0.80977   0.00000  Uiso   1.00
H934   H     0.65013   0.73435   0.81322   0.00000  Uiso   1.00
H935   H     0.60378   0.70677   0.84364   0.00000  Uiso   1.00
H936   H     0.60209   0.70711   0.76250   0.00000  Uiso   1.00
loop_
_geom_bond_atom_site_label_1
_geom_bond_atom_site_label_2
_geom_bond_distance
_geom_bond_site_symmetry_2
_ccdc_geom_bond_type
C1     O37     1.293   .     A
C1     C5      1.425   .     S
C1     O39     1.285   .     A
C2     O38     1.293   .     A
C2     C6      1.425   .     S
C2     O40     1.285   .     A
C3     C20     1.410   .     A
C3     H29     1.081   .     S
C3     C73     1.389   1_455 S
C4     C19     1.410   .     A
C4     H30     1.081   .     S
C4     C74     1.389   .     S
C5     C214    1.326   1_545 S
C5     H239    1.088   1_545 S
C6     C109    1.326   .     S
C6     H136    1.088   .     S
C7     O43     1.291   .     A
C7     C12     1.444   .     S
C7     O41     1.294   .     A
C8     C11     1.444   .     S
C8     O42     1.294   .     A
C8     O44     1.291   .     A
C9     C45     1.519   .     S
C9     C11     1.413   .     A
C9     C19     1.415   .     A
C10    C49     1.519   .     S
C10    C12     1.413   .     A
C10    C20     1.415   .     A
C11    C13     1.392   .     A
C12    C14     1.392   .     A
C13    H25     1.086   .     S
C13    C15     1.387   .     A
C14    H26     1.086   .     S
C14    C16     1.387   .     A
C15    C21     1.397   .     A
C15    C17     1.410   .     A
C16    C18     1.410   .     A
C16    C22     1.397   .     A
C17    C19     1.421   .     A
C17    C70     1.409   .     S
C18    C20     1.421   .     A
C18    C69     1.409   1_455 S
C21    H27     1.084   .     S
C21    C55     1.389   .     S
C22    H28     1.084   .     S
C22    C56     1.389   1_455 S
Cu23   Cu24    2.692   .     S
Cu23   O41     1.963   .     S
Cu23   O37     1.953   .     S
Cu23   O40     1.948   .     S
Cu23   N36     2.023   .     S
Cu23   O44     1.948   .     S
Cu24   O38     1.953   .     S
Cu24   N35     2.023   .     S
Cu24   O39     1.948   .     S
Cu24   O42     1.963   .     S
Cu24   O43     1.948   .     S
H31    C109    1.088   .     S
H32    C214    1.088   1_545 S
H33    N347    1.029   .     S
H34    N660    1.029   1_554 S
N35    H657    1.029   1_554 S
N35    N660    1.293   1_554 S
N36    N347    1.293   .     S
N36    H346    1.029   .     S
C45    H47     1.110   .     S
C45    H46     1.107   .     S
C45    H48     1.110   .     S
C49    H52     1.110   .     S
C49    H50     1.107   .     S
C49    H51     1.110   .     S
C53    O89     1.293   .     A
C53    C57     1.425   .     S
C53    O91     1.285   .     A
C54    O90     1.293   .     A
C54    C58     1.425   .     S
C54    O92     1.285   .     A
C55    C72     1.410   .     A
C55    H81     1.081   .     S
C56    C71     1.410   .     A
C56    H82     1.081   .     S
C56    C22     1.389   1_655 S
C57    C266    1.326   1_545 S
C57    H291    1.088   1_545 S
C58    C161    1.326   .     S
C58    H188    1.088   .     S
C59    O95     1.291   .     A
C59    C64     1.444   .     S
C59    O93     1.294   .     A
C60    C63     1.444   .     S
C60    O94     1.294   .     A
C60    O96     1.291   .     A
C61    C97     1.519   .     S
C61    C63     1.413   .     A
C61    C71     1.415   .     A
C62    C101    1.519   .     S
C62    C64     1.413   .     A
C62    C72     1.415   .     A
C63    C65     1.392   .     A
C64    C66     1.392   .     A
C65    H77     1.086   .     S
C65    C67     1.387   .     A
C66    H78     1.086   .     S
C66    C68     1.387   .     A
C67    C73     1.397   .     A
C67    C69     1.410   .     A
C68    C70     1.410   .     A
C68    C74     1.397   .     A
C69    C71     1.421   .     A
C69    C18     1.409   1_655 S
C70    C72     1.421   .     A
C73    H79     1.084   .     S
C73    C3      1.389   1_655 S
C74    H80     1.084   .     S
Cu75   Cu76    2.692   .     S
Cu75   O93     1.963   .     S
Cu75   O89     1.953   .     S
Cu75   O92     1.948   .     S
Cu75   N88     2.023   .     S
Cu75   O96     1.948   .     S
Cu76   O90     1.953   .     S
Cu76   N87     2.023   .     S
Cu76   O91     1.948   .     S
Cu76   O94     1.963   .     S
Cu76   O95     1.948   .     S
H83    C161    1.088   .     S
H84    C266    1.088   1_545 S
H85    N399    1.029   .     S
H86    N712    1.029   1_554 S
N87    H709    1.029   1_554 S
N87    N712    1.293   1_554 S
N88    N399    1.293   .     S
N88    H398    1.029   .     S
C97    H99     1.110   .     S
C97    H98     1.107   .     S
C97    H100    1.110   .     S
C101   H104    1.110   .     S
C101   H102    1.107   .     S
C101   H103    1.110   .     S
C105   O141    1.293   .     A
C105   C109    1.425   .     S
C105   O143    1.285   .     A
C106   O142    1.293   .     A
C106   C110    1.425   .     S
C106   O144    1.285   .     A
C107   C124    1.410   .     A
C107   H133    1.081   .     S
C107   C177    1.389   1_455 S
C108   C123    1.410   .     A
C108   H134    1.081   .     S
C108   C178    1.389   .     S
C110   C213    1.326   .     S
C110   H240    1.088   .     S
C111   O147    1.291   .     A
C111   C116    1.444   .     S
C111   O145    1.294   .     A
C112   C115    1.444   .     S
C112   O146    1.294   .     A
C112   O148    1.291   .     A
C113   C149    1.519   .     S
C113   C115    1.413   .     A
C113   C123    1.415   .     A
C114   C153    1.519   .     S
C114   C116    1.413   .     A
C114   C124    1.415   .     A
C115   C117    1.392   .     A
C116   C118    1.392   .     A
C117   H129    1.086   .     S
C117   C119    1.387   .     A
C118   H130    1.086   .     S
C118   C120    1.387   .     A
C119   C125    1.397   .     A
C119   C121    1.410   .     A
C120   C122    1.410   .     A
C120   C126    1.397   .     A
C121   C123    1.421   .     A
C121   C174    1.409   .     S
C122   C124    1.421   .     A
C122   C173    1.409   1_455 S
C125   H131    1.084   .     S
C125   C159    1.389   .     S
C126   H132    1.084   .     S
C126   C160    1.389   1_455 S
Cu127  Cu128   2.692   .     S
Cu127  O145    1.963   .     S
Cu127  O141    1.953   .     S
Cu127  O144    1.948   .     S
Cu127  N140    2.023   .     S
Cu127  O148    1.948   .     S
Cu128  O142    1.953   .     S
Cu128  N139    2.023   .     S
Cu128  O143    1.948   .     S
Cu128  O146    1.963   .     S
Cu128  O147    1.948   .     S
H135   C213    1.088   .     S
H137   N451    1.029   .     S
H138   N764    1.029   1_554 S
N139   H761    1.029   1_554 S
N139   N764    1.293   1_554 S
N140   N451    1.293   .     S
N140   H450    1.029   .     S
C149   H151    1.110   .     S
C149   H150    1.107   .     S
C149   H152    1.110   .     S
C153   H156    1.110   .     S
C153   H154    1.107   .     S
C153   H155    1.110   .     S
C157   O193    1.293   .     A
C157   C161    1.425   .     S
C157   O195    1.285   .     A
C158   O194    1.293   .     A
C158   C162    1.425   .     S
C158   O196    1.285   .     A
C159   C176    1.410   .     A
C159   H185    1.081   .     S
C160   C175    1.410   .     A
C160   H186    1.081   .     S
C160   C126    1.389   1_655 S
C162   C265    1.326   .     S
C162   H292    1.088   .     S
C163   O199    1.291   .     A
C163   C168    1.444   .     S
C163   O197    1.294   .     A
C164   C167    1.444   .     S
C164   O198    1.294   .     A
C164   O200    1.291   .     A
C165   C201    1.519   .     S
C165   C167    1.413   .     A
C165   C175    1.415   .     A
C166   C205    1.519   .     S
C166   C168    1.413   .     A
C166   C176    1.415   .     A
C167   C169    1.392   .     A
C168   C170    1.392   .     A
C169   H181    1.086   .     S
C169   C171    1.387   .     A
C170   H182    1.086   .     S
C170   C172    1.387   .     A
C171   C177    1.397   .     A
C171   C173    1.410   .     A
C172   C174    1.410   .     A
C172   C178    1.397   .     A
C173   C175    1.421   .     A
C173   C122    1.409   1_655 S
C174   C176    1.421   .     A
C177   H183    1.084   .     S
C177   C107    1.389   1_655 S
C178   H184    1.084   .     S
Cu179  Cu180   2.692   .     S
Cu179  O197    1.963   .     S
Cu179  O193    1.953   .     S
Cu179  O196    1.948   .     S
Cu179  N192    2.023   .     S
Cu179  O200    1.948   .     S
Cu180  O194    1.953   .     S
Cu180  N191    2.023   .     S
Cu180  O195    1.948   .     S
Cu180  O198    1.963   .     S
Cu180  O199    1.948   .     S
H187   C265    1.088   .     S
H189   N503    1.029   .     S
H190   N816    1.029   1_554 S
N191   H813    1.029   1_554 S
N191   N816    1.293   1_554 S
N192   N503    1.293   .     S
N192   H502    1.029   .     S
C201   H203    1.110   .     S
C201   H202    1.107   .     S
C201   H204    1.110   .     S
C205   H208    1.110   .     S
C205   H206    1.107   .     S
C205   H207    1.110   .     S
C209   O245    1.293   .     A
C209   C213    1.425   .     S
C209   O247    1.285   .     A
C210   O246    1.293   .     A
C210   C214    1.425   .     S
C210   O248    1.285   .     A
C211   C228    1.410   .     A
C211   H237    1.081   .     S
C211   C281    1.389   1_455 S
C212   C227    1.410   .     A
C212   H238    1.081   .     S
C212   C282    1.389   .     S
C214   C5      1.326   1_565 S
C214   H32     1.088   1_565 S
C215   O251    1.291   .     A
C215   C220    1.444   .     S
C215   O249    1.294   .     A
C216   C219    1.444   .     S
C216   O250    1.294   .     A
C216   O252    1.291   .     A
C217   C253    1.519   .     S
C217   C219    1.413   .     A
C217   C227    1.415   .     A
C218   C257    1.519   .     S
C218   C220    1.413   .     A
C218   C228    1.415   .     A
C219   C221    1.392   .     A
C220   C222    1.392   .     A
C221   H233    1.086   .     S
C221   C223    1.387   .     A
C222   H234    1.086   .     S
C222   C224    1.387   .     A
C223   C229    1.397   .     A
C223   C225    1.410   .     A
C224   C226    1.410   .     A
C224   C230    1.397   .     A
C225   C227    1.421   .     A
C225   C278    1.409   .     S
C226   C228    1.421   .     A
C226   C277    1.409   1_455 S
C229   H235    1.084   .     S
C229   C263    1.389   .     S
C230   H236    1.084   .     S
C230   C264    1.389   1_455 S
Cu231  Cu232   2.692   .     S
Cu231  O249    1.963   .     S
Cu231  O245    1.953   .     S
Cu231  O248    1.948   .     S
Cu231  N244    2.023   .     S
Cu231  O252    1.948   .     S
Cu232  O246    1.953   .     S
Cu232  N243    2.023   .     S
Cu232  O247    1.948   .     S
Cu232  O250    1.963   .     S
Cu232  O251    1.948   .     S
H239   C5      1.088   1_565 S
H241   N555    1.029   .     S
H242   N868    1.029   1_554 S
N243   H865    1.029   1_554 S
N243   N868    1.293   1_554 S
N244   N555    1.293   .     S
N244   H554    1.029   .     S
C253   H255    1.110   .     S
C253   H254    1.107   .     S
C253   H256    1.110   .     S
C257   H260    1.110   .     S
C257   H258    1.107   .     S
C257   H259    1.110   .     S
C261   O297    1.293   .     A
C261   C265    1.425   .     S
C261   O299    1.285   .     A
C262   O298    1.293   .     A
C262   C266    1.425   .     S
C262   O300    1.285   .     A
C263   C280    1.410   .     A
C263   H289    1.081   .     S
C264   C279    1.410   .     A
C264   H290    1.081   .     S
C264   C230    1.389   1_655 S
C266   C57     1.326   1_565 S
C266   H84     1.088   1_565 S
C267   O303    1.291   .     A
C267   C272    1.444   .     S
C267   O301    1.294   .     A
C268   C271    1.444   .     S
C268   O302    1.294   .     A
C268   O304    1.291   .     A
C269   C305    1.519   .     S
C269   C271    1.413   .     A
C269   C279    1.415   .     A
C270   C309    1.519   .     S
C270   C272    1.413   .     A
C270   C280    1.415   .     A
C271   C273    1.392   .     A
C272   C274    1.392   .     A
C273   H285    1.086   .     S
C273   C275    1.387   .     A
C274   H286    1.086   .     S
C274   C276    1.387   .     A
C275   C281    1.397   .     A
C275   C277    1.410   .     A
C276   C278    1.410   .     A
C276   C282    1.397   .     A
C277   C279    1.421   .     A
C277   C226    1.409   1_655 S
C278   C280    1.421   .     A
C281   H287    1.084   .     S
C281   C211    1.389   1_655 S
C282   H288    1.084   .     S
Cu283  Cu284   2.692   .     S
Cu283  O301    1.963   .     S
Cu283  O297    1.953   .     S
Cu283  O300    1.948   .     S
Cu283  N296    2.023   .     S
Cu283  O304    1.948   .     S
Cu284  O298    1.953   .     S
Cu284  N295    2.023   .     S
Cu284  O299    1.948   .     S
Cu284  O302    1.963   .     S
Cu284  O303    1.948   .     S
H291   C57     1.088   1_565 S
H293   N607    1.029   .     S
H294   N920    1.029   1_554 S
N295   H917    1.029   1_554 S
N295   N920    1.293   1_554 S
N296   N607    1.293   .     S
N296   H606    1.029   .     S
C305   H307    1.110   .     S
C305   H306    1.107   .     S
C305   H308    1.110   .     S
C309   H312    1.110   .     S
C309   H310    1.107   .     S
C309   H311    1.110   .     S
C313   O349    1.293   .     A
C313   C317    1.425   .     S
C313   O351    1.285   .     A
C314   O350    1.293   .     A
C314   C318    1.425   .     S
C314   O352    1.285   .     A
C315   C332    1.410   .     A
C315   H341    1.081   .     S
C315   C385    1.389   1_455 S
C316   C331    1.410   .     A
C316   H342    1.081   .     S
C316   C386    1.389   .     S
C317   C526    1.326   1_545 S
C317   H551    1.088   1_545 S
C318   C421    1.326   .     S
C318   H448    1.088   .     S
C319   O355    1.291   .     A
C319   C324    1.444   .     S
C319   O353    1.294   .     A
C320   C323    1.444   .     S
C320   O354    1.294   .     A
C320   O356    1.291   .     A
C321   C357    1.519   .     S
C321   C323    1.413   .     A
C321   C331    1.415   .     A
C322   C361    1.519   .     S
C322   C324    1.413   .     A
C322   C332    1.415   .     A
C323   C325    1.392   .     A
C324   C326    1.392   .     A
C325   H337    1.086   .     S
C325   C327    1.387   .     A
C326   H338    1.086   .     S
C326   C328    1.387   .     A
C327   C333    1.397   .     A
C327   C329    1.410   .     A
C328   C330    1.410   .     A
C328   C334    1.397   .     A
C329   C331    1.421   .     A
C329   C382    1.409   .     S
C330   C332    1.421   .     A
C330   C381    1.409   1_455 S
C333   H339    1.084   .     S
C333   C367    1.389   .     S
C334   H340    1.084   .     S
C334   C368    1.389   1_455 S
Cu335  Cu336   2.692   .     S
Cu335  O353    1.963   .     S
Cu335  O349    1.953   .     S
Cu335  O352    1.948   .     S
Cu335  N348    2.023   .     S
Cu335  O356    1.948   .     S
Cu336  O350    1.953   .     S
Cu336  N347    2.023   .     S
Cu336  O351    1.948   .     S
Cu336  O354    1.963   .     S
Cu336  O355    1.948   .     S
H343   C421    1.088   .     S
H344   C526    1.088   1_545 S
H345   N659    1.029   .     S
N348   N659    1.293   .     S
N348   H658    1.029   .     S
C357   H359    1.110   .     S
C357   H358    1.107   .     S
C357   H360    1.110   .     S
C361   H364    1.110   .     S
C361   H362    1.107   .     S
C361   H363    1.110   .     S
C365   O401    1.293   .     A
C365   C369    1.425   .     S
C365   O403    1.285   .     A
C366   O402    1.293   .     A
C366   C370    1.425   .     S
C366   O404    1.285   .     A
C367   C384    1.410   .     A
C367   H393    1.081   .     S
C368   C383    1.410   .     A
C368   H394    1.081   .     S
C368   C334    1.389   1_655 S
C369   C578    1.326   1_545 S
C369   H603    1.088   1_545 S
C370   C473    1.326   .     S
C370   H500    1.088   .     S
C371   O407    1.291   .     A
C371   C376    1.444   .     S
C371   O405    1.294   .     A
C372   C375    1.444   .     S
C372   O406    1.294   .     A
C372   O408    1.291   .     A
C373   C409    1.519   .     S
C373   C375    1.413   .     A
C373   C383    1.415   .     A
C374   C413    1.519   .     S
C374   C376    1.413   .     A
C374   C384    1.415   .     A
C375   C377    1.392   .     A
C376   C378    1.392   .     A
C377   H389    1.086   .     S
C377   C379    1.387   .     A
C378   H390    1.086   .     S
C378   C380    1.387   .     A
C379   C385    1.397   .     A
C379   C381    1.410   .     A
C380   C382    1.410   .     A
C380   C386    1.397   .     A
C381   C383    1.421   .     A
C381   C330    1.409   1_655 S
C382   C384    1.421   .     A
C385   H391    1.084   .     S
C385   C315    1.389   1_655 S
C386   H392    1.084   .     S
Cu387  Cu388   2.692   .     S
Cu387  O405    1.963   .     S
Cu387  O401    1.953   .     S
Cu387  O404    1.948   .     S
Cu387  N400    2.023   .     S
Cu387  O408    1.948   .     S
Cu388  O402    1.953   .     S
Cu388  N399    2.023   .     S
Cu388  O403    1.948   .     S
Cu388  O406    1.963   .     S
Cu388  O407    1.948   .     S
H395   C473    1.088   .     S
H396   C578    1.088   1_545 S
H397   N711    1.029   .     S
N400   N711    1.293   .     S
N400   H710    1.029   .     S
C409   H411    1.110   .     S
C409   H410    1.107   .     S
C409   H412    1.110   .     S
C413   H416    1.110   .     S
C413   H414    1.107   .     S
C413   H415    1.110   .     S
C417   O453    1.293   .     A
C417   C421    1.425   .     S
C417   O455    1.285   .     A
C418   O454    1.293   .     A
C418   C422    1.425   .     S
C418   O456    1.285   .     A
C419   C436    1.410   .     A
C419   H445    1.081   .     S
C419   C489    1.389   1_455 S
C420   C435    1.410   .     A
C420   H446    1.081   .     S
C420   C490    1.389   .     S
C422   C525    1.326   .     S
C422   H552    1.088   .     S
C423   O459    1.291   .     A
C423   C428    1.444   .     S
C423   O457    1.294   .     A
C424   C427    1.444   .     S
C424   O458    1.294   .     A
C424   O460    1.291   .     A
C425   C461    1.519   .     S
C425   C427    1.413   .     A
C425   C435    1.415   .     A
C426   C465    1.519   .     S
C426   C428    1.413   .     A
C426   C436    1.415   .     A
C427   C429    1.392   .     A
C428   C430    1.392   .     A
C429   H441    1.086   .     S
C429   C431    1.387   .     A
C430   H442    1.086   .     S
C430   C432    1.387   .     A
C431   C437    1.397   .     A
C431   C433    1.410   .     A
C432   C434    1.410   .     A
C432   C438    1.397   .     A
C433   C435    1.421   .     A
C433   C486    1.409   .     S
C434   C436    1.421   .     A
C434   C485    1.409   1_455 S
C437   H443    1.084   .     S
C437   C471    1.389   .     S
C438   H444    1.084   .     S
C438   C472    1.389   1_455 S
Cu439  Cu440   2.692   .     S
Cu439  O457    1.963   .     S
Cu439  O453    1.953   .     S
Cu439  O456    1.948   .     S
Cu439  N452    2.023   .     S
Cu439  O460    1.948   .     S
Cu440  O454    1.953   .     S
Cu440  N451    2.023   .     S
Cu440  O455    1.948   .     S
Cu440  O458    1.963   .     S
Cu440  O459    1.948   .     S
H447   C525    1.088   .     S
H449   N763    1.029   .     S
N452   N763    1.293   .     S
N452   H762    1.029   .     S
C461   H463    1.110   .     S
C461   H462    1.107   .     S
C461   H464    1.110   .     S
C465   H468    1.110   .     S
C465   H466    1.107   .     S
C465   H467    1.110   .     S
C469   O505    1.293   .     A
C469   C473    1.425   .     S
C469   O507    1.285   .     A
C470   O506    1.293   .     A
C470   C474    1.425   .     S
C470   O508    1.285   .     A
C471   C488    1.410   .     A
C471   H497    1.081   .     S
C472   C487    1.410   .     A
C472   H498    1.081   .     S
C472   C438    1.389   1_655 S
C474   C577    1.326   .     S
C474   H604    1.088   .     S
C475   O511    1.291   .     A
C475   C480    1.444   .     S
C475   O509    1.294   .     A
C476   C479    1.444   .     S
C476   O510    1.294   .     A
C476   O512    1.291   .     A
C477   C513    1.519   .     S
C477   C479    1.413   .     A
C477   C487    1.415   .     A
C478   C517    1.519   .     S
C478   C480    1.413   .     A
C478   C488    1.415   .     A
C479   C481    1.392   .     A
C480   C482    1.392   .     A
C481   H493    1.086   .     S
C481   C483    1.387   .     A
C482   H494    1.086   .     S
C482   C484    1.387   .     A
C483   C489    1.397   .     A
C483   C485    1.410   .     A
C484   C486    1.410   .     A
C484   C490    1.397   .     A
C485   C487    1.421   .     A
C485   C434    1.409   1_655 S
C486   C488    1.421   .     A
C489   H495    1.084   .     S
C489   C419    1.389   1_655 S
C490   H496    1.084   .     S
Cu491  Cu492   2.692   .     S
Cu491  O509    1.963   .     S
Cu491  O505    1.953   .     S
Cu491  O508    1.948   .     S
Cu491  N504    2.023   .     S
Cu491  O512    1.948   .     S
Cu492  O506    1.953   .     S
Cu492  N503    2.023   .     S
Cu492  O507    1.948   .     S
Cu492  O510    1.963   .     S
Cu492  O511    1.948   .     S
H499   C577    1.088   .     S
H501   N815    1.029   .     S
N504   N815    1.293   .     S
N504   H814    1.029   .     S
C513   H515    1.110   .     S
C513   H514    1.107   .     S
C513   H516    1.110   .     S
C517   H520    1.110   .     S
C517   H518    1.107   .     S
C517   H519    1.110   .     S
C521   O557    1.293   .     A
C521   C525    1.425   .     S
C521   O559    1.285   .     A
C522   O558    1.293   .     A
C522   C526    1.425   .     S
C522   O560    1.285   .     A
C523   C540    1.410   .     A
C523   H549    1.081   .     S
C523   C593    1.389   1_455 S
C524   C539    1.410   .     A
C524   H550    1.081   .     S
C524   C594    1.389   .     S
C526   C317    1.326   1_565 S
C526   H344    1.088   1_565 S
C527   O563    1.291   .     A
C527   C532    1.444   .     S
C527   O561    1.294   .     A
C528   C531    1.444   .     S
C528   O562    1.294   .     A
C528   O564    1.291   .     A
C529   C565    1.519   .     S
C529   C531    1.413   .     A
C529   C539    1.415   .     A
C530   C569    1.519   .     S
C530   C532    1.413   .     A
C530   C540    1.415   .     A
C531   C533    1.392   .     A
C532   C534    1.392   .     A
C533   H545    1.086   .     S
C533   C535    1.387   .     A
C534   H546    1.086   .     S
C534   C536    1.387   .     A
C535   C541    1.397   .     A
C535   C537    1.410   .     A
C536   C538    1.410   .     A
C536   C542    1.397   .     A
C537   C539    1.421   .     A
C537   C590    1.409   .     S
C538   C540    1.421   .     A
C538   C589    1.409   1_455 S
C541   H547    1.084   .     S
C541   C575    1.389   .     S
C542   H548    1.084   .     S
C542   C576    1.389   1_455 S
Cu543  Cu544   2.692   .     S
Cu543  O561    1.963   .     S
Cu543  O557    1.953   .     S
Cu543  O560    1.948   .     S
Cu543  N556    2.023   .     S
Cu543  O564    1.948   .     S
Cu544  O558    1.953   .     S
Cu544  N555    2.023   .     S
Cu544  O559    1.948   .     S
Cu544  O562    1.963   .     S
Cu544  O563    1.948   .     S
H551   C317    1.088   1_565 S
H553   N867    1.029   .     S
N556   N867    1.293   .     S
N556   H866    1.029   .     S
C565   H567    1.110   .     S
C565   H566    1.107   .     S
C565   H568    1.110   .     S
C569   H572    1.110   .     S
C569   H570    1.107   .     S
C569   H571    1.110   .     S
C573   O609    1.293   .     A
C573   C577    1.425   .     S
C573   O611    1.285   .     A
C574   O610    1.293   .     A
C574   C578    1.425   .     S
C574   O612    1.285   .     A
C575   C592    1.410   .     A
C575   H601    1.081   .     S
C576   C591    1.410   .     A
C576   H602    1.081   .     S
C576   C542    1.389   1_655 S
C578   C369    1.326   1_565 S
C578   H396    1.088   1_565 S
C579   O615    1.291   .     A
C579   C584    1.444   .     S
C579   O613    1.294   .     A
C580   C583    1.444   .     S
C580   O614    1.294   .     A
C580   O616    1.291   .     A
C581   C617    1.519   .     S
C581   C583    1.413   .     A
C581   C591    1.415   .     A
C582   C621    1.519   .     S
C582   C584    1.413   .     A
C582   C592    1.415   .     A
C583   C585    1.392   .     A
C584   C586    1.392   .     A
C585   H597    1.086   .     S
C585   C587    1.387   .     A
C586   H598    1.086   .     S
C586   C588    1.387   .     A
C587   C593    1.397   .     A
C587   C589    1.410   .     A
C588   C590    1.410   .     A
C588   C594    1.397   .     A
C589   C591    1.421   .     A
C589   C538    1.409   1_655 S
C590   C592    1.421   .     A
C593   H599    1.084   .     S
C593   C523    1.389   1_655 S
C594   H600    1.084   .     S
Cu595  Cu596   2.692   .     S
Cu595  O613    1.963   .     S
Cu595  O609    1.953   .     S
Cu595  O612    1.948   .     S
Cu595  N608    2.023   .     S
Cu595  O616    1.948   .     S
Cu596  O610    1.953   .     S
Cu596  N607    2.023   .     S
Cu596  O611    1.948   .     S
Cu596  O614    1.963   .     S
Cu596  O615    1.948   .     S
H603   C369    1.088   1_565 S
H605   N919    1.029   .     S
N608   N919    1.293   .     S
N608   H918    1.029   .     S
C617   H619    1.110   .     S
C617   H618    1.107   .     S
C617   H620    1.110   .     S
C621   H624    1.110   .     S
C621   H622    1.107   .     S
C621   H623    1.110   .     S
C625   O661    1.293   .     A
C625   C629    1.425   .     S
C625   O663    1.285   .     A
C626   O662    1.293   .     A
C626   C630    1.425   .     S
C626   O664    1.285   .     A
C627   C644    1.410   .     A
C627   H653    1.081   .     S
C627   C697    1.389   1_455 S
C628   C643    1.410   .     A
C628   H654    1.081   .     S
C628   C698    1.389   .     S
C629   C838    1.326   1_545 S
C629   H863    1.088   1_545 S
C630   C733    1.326   .     S
C630   H760    1.088   .     S
C631   O667    1.291   .     A
C631   C636    1.444   .     S
C631   O665    1.294   .     A
C632   C635    1.444   .     S
C632   O666    1.294   .     A
C632   O668    1.291   .     A
C633   C669    1.519   .     S
C633   C635    1.413   .     A
C633   C643    1.415   .     A
C634   C673    1.519   .     S
C634   C636    1.413   .     A
C634   C644    1.415   .     A
C635   C637    1.392   .     A
C636   C638    1.392   .     A
C637   H649    1.086   .     S
C637   C639    1.387   .     A
C638   H650    1.086   .     S
C638   C640    1.387   .     A
C639   C645    1.397   .     A
C639   C641    1.410   .     A
C640   C642    1.410   .     A
C640   C646    1.397   .     A
C641   C643    1.421   .     A
C641   C694    1.409   .     S
C642   C644    1.421   .     A
C642   C693    1.409   1_455 S
C645   H651    1.084   .     S
C645   C679    1.389   .     S
C646   H652    1.084   .     S
C646   C680    1.389   1_455 S
Cu647  Cu648   2.692   .     S
Cu647  O665    1.963   .     S
Cu647  O661    1.953   .     S
Cu647  O664    1.948   .     S
Cu647  N660    2.023   .     S
Cu647  O668    1.948   .     S
Cu648  O662    1.953   .     S
Cu648  N659    2.023   .     S
Cu648  O663    1.948   .     S
Cu648  O666    1.963   .     S
Cu648  O667    1.948   .     S
H655   C733    1.088   .     S
H656   C838    1.088   1_545 S
H657   N35     1.029   1_556 S
N660   N35     1.293   1_556 S
N660   H34     1.029   1_556 S
C669   H671    1.110   .     S
C669   H670    1.107   .     S
C669   H672    1.110   .     S
C673   H676    1.110   .     S
C673   H674    1.107   .     S
C673   H675    1.110   .     S
C677   O713    1.293   .     A
C677   C681    1.425   .     S
C677   O715    1.285   .     A
C678   O714    1.293   .     A
C678   C682    1.425   .     S
C678   O716    1.285   .     A
C679   C696    1.410   .     A
C679   H705    1.081   .     S
C680   C695    1.410   .     A
C680   H706    1.081   .     S
C680   C646    1.389   1_655 S
C681   C890    1.326   1_545 S
C681   H915    1.088   1_545 S
C682   C785    1.326   .     S
C682   H812    1.088   .     S
C683   O719    1.291   .     A
C683   C688    1.444   .     S
C683   O717    1.294   .     A
C684   C687    1.444   .     S
C684   O718    1.294   .     A
C684   O720    1.291   .     A
C685   C721    1.519   .     S
C685   C687    1.413   .     A
C685   C695    1.415   .     A
C686   C725    1.519   .     S
C686   C688    1.413   .     A
C686   C696    1.415   .     A
C687   C689    1.392   .     A
C688   C690    1.392   .     A
C689   H701    1.086   .     S
C689   C691    1.387   .     A
C690   H702    1.086   .     S
C690   C692    1.387   .     A
C691   C697    1.397   .     A
C691   C693    1.410   .     A
C692   C694    1.410   .     A
C692   C698    1.397   .     A
C693   C695    1.421   .     A
C693   C642    1.409   1_655 S
C694   C696    1.421   .     A
C697   H703    1.084   .     S
C697   C627    1.389   1_655 S
C698   H704    1.084   .     S
Cu699  Cu700   2.692   .     S
Cu699  O717    1.963   .     S
Cu699  O713    1.953   .     S
Cu699  O716    1.948   .     S
Cu699  N712    2.023   .     S
Cu699  O720    1.948   .     S
Cu700  O714    1.953   .     S
Cu700  N711    2.023   .     S
Cu700  O715    1.948   .     S
Cu700  O718    1.963   .     S
Cu700  O719    1.948   .     S
H707   C785    1.088   .     S
H708   C890    1.088   1_545 S
H709   N87     1.029   1_556 S
N712   N87     1.293   1_556 S
N712   H86     1.029   1_556 S
C721   H723    1.110   .     S
C721   H722    1.107   .     S
C721   H724    1.110   .     S
C725   H728    1.110   .     S
C725   H726    1.107   .     S
C725   H727    1.110   .     S
C729   O765    1.293   .     A
C729   C733    1.425   .     S
C729   O767    1.285   .     A
C730   O766    1.293   .     A
C730   C734    1.425   .     S
C730   O768    1.285   .     A
C731   C748    1.410   .     A
C731   H757    1.081   .     S
C731   C801    1.389   1_455 S
C732   C747    1.410   .     A
C732   H758    1.081   .     S
C732   C802    1.389   .     S
C734   C837    1.326   .     S
C734   H864    1.088   .     S
C735   O771    1.291   .     A
C735   C740    1.444   .     S
C735   O769    1.294   .     A
C736   C739    1.444   .     S
C736   O770    1.294   .     A
C736   O772    1.291   .     A
C737   C773    1.519   .     S
C737   C739    1.413   .     A
C737   C747    1.415   .     A
C738   C777    1.519   .     S
C738   C740    1.413   .     A
C738   C748    1.415   .     A
C739   C741    1.392   .     A
C740   C742    1.392   .     A
C741   H753    1.086   .     S
C741   C743    1.387   .     A
C742   H754    1.086   .     S
C742   C744    1.387   .     A
C743   C749    1.397   .     A
C743   C745    1.410   .     A
C744   C746    1.410   .     A
C744   C750    1.397   .     A
C745   C747    1.421   .     A
C745   C798    1.409   .     S
C746   C748    1.421   .     A
C746   C797    1.409   1_455 S
C749   H755    1.084   .     S
C749   C783    1.389   .     S
C750   H756    1.084   .     S
C750   C784    1.389   1_455 S
Cu751  Cu752   2.692   .     S
Cu751  O769    1.963   .     S
Cu751  O765    1.953   .     S
Cu751  O768    1.948   .     S
Cu751  N764    2.023   .     S
Cu751  O772    1.948   .     S
Cu752  O766    1.953   .     S
Cu752  N763    2.023   .     S
Cu752  O767    1.948   .     S
Cu752  O770    1.963   .     S
Cu752  O771    1.948   .     S
H759   C837    1.088   .     S
H761   N139    1.029   1_556 S
N764   N139    1.293   1_556 S
N764   H138    1.029   1_556 S
C773   H775    1.110   .     S
C773   H774    1.107   .     S
C773   H776    1.110   .     S
C777   H780    1.110   .     S
C777   H778    1.107   .     S
C777   H779    1.110   .     S
C781   O817    1.293   .     A
C781   C785    1.425   .     S
C781   O819    1.285   .     A
C782   O818    1.293   .     A
C782   C786    1.425   .     S
C782   O820    1.285   .     A
C783   C800    1.410   .     A
C783   H809    1.081   .     S
C784   C799    1.410   .     A
C784   H810    1.081   .     S
C784   C750    1.389   1_655 S
C786   C889    1.326   .     S
C786   H916    1.088   .     S
C787   O823    1.291   .     A
C787   C792    1.444   .     S
C787   O821    1.294   .     A
C788   C791    1.444   .     S
C788   O822    1.294   .     A
C788   O824    1.291   .     A
C789   C825    1.519   .     S
C789   C791    1.413   .     A
C789   C799    1.415   .     A
C790   C829    1.519   .     S
C790   C792    1.413   .     A
C790   C800    1.415   .     A
C791   C793    1.392   .     A
C792   C794    1.392   .     A
C793   H805    1.086   .     S
C793   C795    1.387   .     A
C794   H806    1.086   .     S
C794   C796    1.387   .     A
C795   C801    1.397   .     A
C795   C797    1.410   .     A
C796   C798    1.410   .     A
C796   C802    1.397   .     A
C797   C799    1.421   .     A
C797   C746    1.409   1_655 S
C798   C800    1.421   .     A
C801   H807    1.084   .     S
C801   C731    1.389   1_655 S
C802   H808    1.084   .     S
Cu803  Cu804   2.692   .     S
Cu803  O821    1.963   .     S
Cu803  O817    1.953   .     S
Cu803  O820    1.948   .     S
Cu803  N816    2.023   .     S
Cu803  O824    1.948   .     S
Cu804  O818    1.953   .     S
Cu804  N815    2.023   .     S
Cu804  O819    1.948   .     S
Cu804  O822    1.963   .     S
Cu804  O823    1.948   .     S
H811   C889    1.088   .     S
H813   N191    1.029   1_556 S
N816   N191    1.293   1_556 S
N816   H190    1.029   1_556 S
C825   H827    1.110   .     S
C825   H826    1.107   .     S
C825   H828    1.110   .     S
C829   H832    1.110   .     S
C829   H830    1.107   .     S
C829   H831    1.110   .     S
C833   O869    1.293   .     A
C833   C837    1.425   .     S
C833   O871    1.285   .     A
C834   O870    1.293   .     A
C834   C838    1.425   .     S
C834   O872    1.285   .     A
C835   C852    1.410   .     A
C835   H861    1.081   .     S
C835   C905    1.389   1_455 S
C836   C851    1.410   .     A
C836   H862    1.081   .     S
C836   C906    1.389   .     S
C838   C629    1.326   1_565 S
C838   H656    1.088   1_565 S
C839   O875    1.291   .     A
C839   C844    1.444   .     S
C839   O873    1.294   .     A
C840   C843    1.444   .     S
C840   O874    1.294   .     A
C840   O876    1.291   .     A
C841   C877    1.519   .     S
C841   C843    1.413   .     A
C841   C851    1.415   .     A
C842   C881    1.519   .     S
C842   C844    1.413   .     A
C842   C852    1.415   .     A
C843   C845    1.392   .     A
C844   C846    1.392   .     A
C845   H857    1.086   .     S
C845   C847    1.387   .     A
C846   H858    1.086   .     S
C846   C848    1.387   .     A
C847   C853    1.397   .     A
C847   C849    1.410   .     A
C848   C850    1.410   .     A
C848   C854    1.397   .     A
C849   C851    1.421   .     A
C849   C902    1.409   .     S
C850   C852    1.421   .     A
C850   C901    1.409   1_455 S
C853   H859    1.084   .     S
C853   C887    1.389   .     S
C854   H860    1.084   .     S
C854   C888    1.389   1_455 S
Cu855  Cu856   2.692   .     S
Cu855  O873    1.963   .     S
Cu855  O869    1.953   .     S
Cu855  O872    1.948   .     S
Cu855  N868    2.023   .     S
Cu855  O876    1.948   .     S
Cu856  O870    1.953   .     S
Cu856  N867    2.023   .     S
Cu856  O871    1.948   .     S
Cu856  O874    1.963   .     S
Cu856  O875    1.948   .     S
H863   C629    1.088   1_565 S
H865   N243    1.029   1_556 S
N868   N243    1.293   1_556 S
N868   H242    1.029   1_556 S
C877   H879    1.110   .     S
C877   H878    1.107   .     S
C877   H880    1.110   .     S
C881   H884    1.110   .     S
C881   H882    1.107   .     S
C881   H883    1.110   .     S
C885   O921    1.293   .     A
C885   C889    1.425   .     S
C885   O923    1.285   .     A
C886   O922    1.293   .     A
C886   C890    1.425   .     S
C886   O924    1.285   .     A
C887   C904    1.410   .     A
C887   H913    1.081   .     S
C888   C903    1.410   .     A
C888   H914    1.081   .     S
C888   C854    1.389   1_655 S
C890   C681    1.326   1_565 S
C890   H708    1.088   1_565 S
C891   O927    1.291   .     A
C891   C896    1.444   .     S
C891   O925    1.294   .     A
C892   C895    1.444   .     S
C892   O926    1.294   .     A
C892   O928    1.291   .     A
C893   C929    1.519   .     S
C893   C895    1.413   .     A
C893   C903    1.415   .     A
C894   C933    1.519   .     S
C894   C896    1.413   .     A
C894   C904    1.415   .     A
C895   C897    1.392   .     A
C896   C898    1.392   .     A
C897   H909    1.086   .     S
C897   C899    1.387   .     A
C898   H910    1.086   .     S
C898   C900    1.387   .     A
C899   C905    1.397   .     A
C899   C901    1.410   .     A
C900   C902    1.410   .     A
C900   C906    1.397   .     A
C901   C903    1.421   .     A
C901   C850    1.409   1_655 S
C902   C904    1.421   .     A
C905   H911    1.084   .     S
C905   C835    1.389   1_655 S
C906   H912    1.084   .     S
Cu907  Cu908   2.692   .     S
Cu907  O925    1.963   .     S
Cu907  O921    1.953   .     S
Cu907  O924    1.948   .     S
Cu907  N920    2.023   .     S
Cu907  O928    1.948   .     S
Cu908  O922    1.953   .     S
Cu908  N919    2.023   .     S
Cu908  O923    1.948   .     S
Cu908  O926    1.963   .     S
Cu908  O927    1.948   .     S
H915   C681    1.088   1_565 S
H917   N295    1.029   1_556 S
N920   N295    1.293   1_556 S
N920   H294    1.029   1_556 S
C929   H931    1.110   .     S
C929   H930    1.107   .     S
C929   H932    1.110   .     S
C933   H936    1.110   .     S
C933   H934    1.107   .     S
C933   H935    1.110   .     S
