data_str_m2_o1_o17_pcu_sym.32
_audit_creation_date              2020-01-03
_audit_creation_method            'Materials Studio'
_symmetry_space_group_name_H-M    'P1'
_symmetry_Int_Tables_number       1
_symmetry_cell_setting            triclinic
loop_
_symmetry_equiv_pos_as_xyz
  x,y,z
_cell_length_a                    32.4148
_cell_length_b                    28.5443
_cell_length_c                    30.2219
_cell_angle_alpha                 90.6056
_cell_angle_beta                  90.5373
_cell_angle_gamma                 89.9456
loop_
_atom_site_label
_atom_site_type_symbol
_atom_site_fract_x
_atom_site_fract_y
_atom_site_fract_z
_atom_site_U_iso_or_equiv
_atom_site_adp_type
_atom_site_occupancy
C1     C     0.08753   0.16670   0.24982   0.00000  Uiso   1.00
C2     C     0.04287   0.16675   0.24992   0.00000  Uiso   1.00
C3     C     0.14186   0.02452   0.22143   0.00000  Uiso   1.00
C4     C     0.19148   0.30881   0.27857   0.00000  Uiso   1.00
C5     C     0.19148   0.02510   0.27856   0.00000  Uiso   1.00
C6     C     0.14185   0.30824   0.22144   0.00000  Uiso   1.00
C7     C     0.16787   0.16636   0.16437   0.00000  Uiso   1.00
C8     C     0.16546   0.16697   0.33562   0.00000  Uiso   1.00
C9     C     0.18161   0.12994   0.40651   0.00000  Uiso   1.00
C10    C     0.15172   0.20340   0.09349   0.00000  Uiso   1.00
C11    C     0.16398   0.16767   0.38404   0.00000  Uiso   1.00
C12    C     0.24581   0.16664   0.25018   0.00000  Uiso   1.00
C13    C     0.16936   0.16567   0.11596   0.00000  Uiso   1.00
C14    C     0.14573   0.20516   0.40790   0.00000  Uiso   1.00
C15    C     0.18760   0.12817   0.09210   0.00000  Uiso   1.00
C16    C     0.14708   0.20512   0.45456   0.00000  Uiso   1.00
C17    C     0.18626   0.12822   0.04544   0.00000  Uiso   1.00
C18    C     0.16583   0.16699   0.47672   0.00000  Uiso   1.00
C19    C     0.16750   0.16634   0.02328   0.00000  Uiso   1.00
C20    C     0.18284   0.12938   0.45242   0.00000  Uiso   1.00
C21    C     0.15050   0.20395   0.04758   0.00000  Uiso   1.00
C22    C     0.13030   0.24222   0.47976   0.00000  Uiso   1.00
C23    C     0.13209   0.24158   0.02570   0.00000  Uiso   1.00
C24    C     0.20303   0.09112   0.02024   0.00000  Uiso   1.00
C25    C     0.12442   0.24253   0.38474   0.00000  Uiso   1.00
C26    C     0.20890   0.09079   0.11525   0.00000  Uiso   1.00
C27    C     0.04480   0.12131   0.31965   0.00000  Uiso   1.00
C28    C     0.28853   0.21199   0.18034   0.00000  Uiso   1.00
C29    C     0.29035   0.12078   0.31965   0.00000  Uiso   1.00
C30    C     0.04298   0.21255   0.18035   0.00000  Uiso   1.00
C31    C     0.20125   0.09175   0.47430   0.00000  Uiso   1.00
C32    C     0.02198   0.14356   0.28396   0.00000  Uiso   1.00
C33    C     0.31136   0.18976   0.21604   0.00000  Uiso   1.00
C34    C     0.31220   0.14342   0.28400   0.00000  Uiso   1.00
C35    C     0.02113   0.18991   0.21600   0.00000  Uiso   1.00
C36    C     0.29046   0.16658   0.25008   0.00000  Uiso   1.00
Cu37   Cu    0.16667   0.21355   0.25000   0.00000  Uiso   1.00
Cu38   Cu    0.16667   0.11978   0.25000   0.00000  Uiso   1.00
H39    H     0.19515   0.10106   0.38808   0.00000  Uiso   1.00
H40    H     0.12197   0.28931   0.19856   0.00000  Uiso   1.00
H41    H     0.13819   0.23228   0.11192   0.00000  Uiso   1.00
H42    H     0.11582   0.27211   0.46426   0.00000  Uiso   1.00
H43    H     0.21752   0.06122   0.03574   0.00000  Uiso   1.00
H44    H     0.11893   0.27062   0.04419   0.00000  Uiso   1.00
H45    H     0.21441   0.06271   0.45581   0.00000  Uiso   1.00
H46    H     0.12199   0.04301   0.19855   0.00000  Uiso   1.00
H47    H     0.21135   0.29033   0.30145   0.00000  Uiso   1.00
H48    H     0.21136   0.04403   0.30144   0.00000  Uiso   1.00
N49    N     0.16667   0.28402   0.25000   0.00000  Uiso   1.00
N50    N     0.16667   0.04931   0.25000   0.00000  Uiso   1.00
N51    N     0.10742   0.27230   0.36630   0.00000  Uiso   1.00
N52    N     0.22590   0.06101   0.13370   0.00000  Uiso   1.00
N53    N     0.06302   0.10364   0.34806   0.00000  Uiso   1.00
N54    N     0.27031   0.22964   0.15191   0.00000  Uiso   1.00
N55    N     0.27305   0.10273   0.34810   0.00000  Uiso   1.00
N56    N     0.06029   0.23060   0.15190   0.00000  Uiso   1.00
O57    O     0.10655   0.20625   0.24999   0.00000  Uiso   1.00
O58    O     0.22679   0.12709   0.25001   0.00000  Uiso   1.00
O59    O     0.22679   0.20625   0.25000   0.00000  Uiso   1.00
O60    O     0.10655   0.12709   0.24999   0.00000  Uiso   1.00
O61    O     0.16666   0.20627   0.18513   0.00000  Uiso   1.00
O62    O     0.16668   0.12707   0.31487   0.00000  Uiso   1.00
O63    O     0.16668   0.20627   0.31487   0.00000  Uiso   1.00
O64    O     0.16666   0.12707   0.18513   0.00000  Uiso   1.00
C65    C     0.42086   0.16670   0.24982   0.00000  Uiso   1.00
C66    C     0.37620   0.16675   0.24992   0.00000  Uiso   1.00
C67    C     0.47519   0.02452   0.22143   0.00000  Uiso   1.00
C68    C     0.52481   0.30881   0.27857   0.00000  Uiso   1.00
C69    C     0.52482   0.02510   0.27856   0.00000  Uiso   1.00
C70    C     0.47518   0.30824   0.22144   0.00000  Uiso   1.00
C71    C     0.50120   0.16636   0.16437   0.00000  Uiso   1.00
C72    C     0.49880   0.16697   0.33562   0.00000  Uiso   1.00
C73    C     0.51495   0.12994   0.40651   0.00000  Uiso   1.00
C74    C     0.48506   0.20340   0.09349   0.00000  Uiso   1.00
C75    C     0.49731   0.16767   0.38404   0.00000  Uiso   1.00
C76    C     0.57914   0.16664   0.25018   0.00000  Uiso   1.00
C77    C     0.50269   0.16567   0.11596   0.00000  Uiso   1.00
C78    C     0.47906   0.20516   0.40790   0.00000  Uiso   1.00
C79    C     0.52094   0.12817   0.09210   0.00000  Uiso   1.00
C80    C     0.48041   0.20512   0.45456   0.00000  Uiso   1.00
C81    C     0.51959   0.12822   0.04544   0.00000  Uiso   1.00
C82    C     0.49917   0.16699   0.47672   0.00000  Uiso   1.00
C83    C     0.50084   0.16634   0.02328   0.00000  Uiso   1.00
C84    C     0.51617   0.12938   0.45242   0.00000  Uiso   1.00
C85    C     0.48384   0.20395   0.04758   0.00000  Uiso   1.00
C86    C     0.46363   0.24222   0.47976   0.00000  Uiso   1.00
C87    C     0.46542   0.24158   0.02570   0.00000  Uiso   1.00
C88    C     0.53637   0.09112   0.02024   0.00000  Uiso   1.00
C89    C     0.45776   0.24253   0.38474   0.00000  Uiso   1.00
C90    C     0.54223   0.09079   0.11525   0.00000  Uiso   1.00
C91    C     0.37814   0.12131   0.31965   0.00000  Uiso   1.00
C92    C     0.62186   0.21199   0.18034   0.00000  Uiso   1.00
C93    C     0.62369   0.12078   0.31965   0.00000  Uiso   1.00
C94    C     0.37632   0.21255   0.18035   0.00000  Uiso   1.00
C95    C     0.53458   0.09175   0.47430   0.00000  Uiso   1.00
C96    C     0.35531   0.14356   0.28396   0.00000  Uiso   1.00
C97    C     0.64469   0.18976   0.21604   0.00000  Uiso   1.00
C98    C     0.64554   0.14342   0.28400   0.00000  Uiso   1.00
C99    C     0.35446   0.18991   0.21600   0.00000  Uiso   1.00
C100   C     0.62380   0.16658   0.25008   0.00000  Uiso   1.00
Cu101  Cu    0.50000   0.21355   0.25000   0.00000  Uiso   1.00
Cu102  Cu    0.50000   0.11978   0.25000   0.00000  Uiso   1.00
H103   H     0.52848   0.10106   0.38808   0.00000  Uiso   1.00
H104   H     0.45531   0.28931   0.19856   0.00000  Uiso   1.00
H105   H     0.47152   0.23228   0.11192   0.00000  Uiso   1.00
H106   H     0.44915   0.27211   0.46426   0.00000  Uiso   1.00
H107   H     0.55085   0.06122   0.03574   0.00000  Uiso   1.00
H108   H     0.45226   0.27062   0.04419   0.00000  Uiso   1.00
H109   H     0.54774   0.06271   0.45581   0.00000  Uiso   1.00
H110   H     0.45532   0.04301   0.19855   0.00000  Uiso   1.00
H111   H     0.54468   0.29033   0.30145   0.00000  Uiso   1.00
H112   H     0.54469   0.04403   0.30144   0.00000  Uiso   1.00
N113   N     0.50000   0.28402   0.25000   0.00000  Uiso   1.00
N114   N     0.50000   0.04931   0.25000   0.00000  Uiso   1.00
N115   N     0.44075   0.27230   0.36630   0.00000  Uiso   1.00
N116   N     0.55923   0.06101   0.13370   0.00000  Uiso   1.00
N117   N     0.39635   0.10364   0.34806   0.00000  Uiso   1.00
N118   N     0.60365   0.22964   0.15191   0.00000  Uiso   1.00
N119   N     0.60638   0.10273   0.34810   0.00000  Uiso   1.00
N120   N     0.39362   0.23060   0.15190   0.00000  Uiso   1.00
O121   O     0.43988   0.20625   0.24999   0.00000  Uiso   1.00
O122   O     0.56012   0.12709   0.25001   0.00000  Uiso   1.00
O123   O     0.56012   0.20625   0.25000   0.00000  Uiso   1.00
O124   O     0.43988   0.12709   0.24999   0.00000  Uiso   1.00
O125   O     0.49999   0.20627   0.18513   0.00000  Uiso   1.00
O126   O     0.50001   0.12707   0.31487   0.00000  Uiso   1.00
O127   O     0.50001   0.20627   0.31487   0.00000  Uiso   1.00
O128   O     0.49999   0.12707   0.18513   0.00000  Uiso   1.00
C129   C     0.75419   0.16670   0.24982   0.00000  Uiso   1.00
C130   C     0.70954   0.16675   0.24992   0.00000  Uiso   1.00
C131   C     0.80852   0.02452   0.22143   0.00000  Uiso   1.00
C132   C     0.85814   0.30881   0.27857   0.00000  Uiso   1.00
C133   C     0.85815   0.02510   0.27856   0.00000  Uiso   1.00
C134   C     0.80852   0.30824   0.22144   0.00000  Uiso   1.00
C135   C     0.83454   0.16636   0.16437   0.00000  Uiso   1.00
C136   C     0.83213   0.16697   0.33562   0.00000  Uiso   1.00
C137   C     0.84828   0.12994   0.40651   0.00000  Uiso   1.00
C138   C     0.81839   0.20340   0.09349   0.00000  Uiso   1.00
C139   C     0.83064   0.16767   0.38404   0.00000  Uiso   1.00
C140   C     0.91248   0.16664   0.25018   0.00000  Uiso   1.00
C141   C     0.83603   0.16567   0.11596   0.00000  Uiso   1.00
C142   C     0.81240   0.20516   0.40790   0.00000  Uiso   1.00
C143   C     0.85427   0.12817   0.09210   0.00000  Uiso   1.00
C144   C     0.81375   0.20512   0.45456   0.00000  Uiso   1.00
C145   C     0.85292   0.12822   0.04544   0.00000  Uiso   1.00
C146   C     0.83250   0.16699   0.47672   0.00000  Uiso   1.00
C147   C     0.83417   0.16634   0.02328   0.00000  Uiso   1.00
C148   C     0.84950   0.12938   0.45242   0.00000  Uiso   1.00
C149   C     0.81717   0.20395   0.04758   0.00000  Uiso   1.00
C150   C     0.79697   0.24222   0.47976   0.00000  Uiso   1.00
C151   C     0.79876   0.24158   0.02570   0.00000  Uiso   1.00
C152   C     0.86970   0.09112   0.02024   0.00000  Uiso   1.00
C153   C     0.79109   0.24253   0.38474   0.00000  Uiso   1.00
C154   C     0.87557   0.09079   0.11525   0.00000  Uiso   1.00
C155   C     0.71147   0.12131   0.31965   0.00000  Uiso   1.00
C156   C     0.95520   0.21199   0.18034   0.00000  Uiso   1.00
C157   C     0.95702   0.12078   0.31965   0.00000  Uiso   1.00
C158   C     0.70965   0.21255   0.18035   0.00000  Uiso   1.00
C159   C     0.86792   0.09175   0.47430   0.00000  Uiso   1.00
C160   C     0.68864   0.14356   0.28396   0.00000  Uiso   1.00
C161   C     0.97802   0.18976   0.21604   0.00000  Uiso   1.00
C162   C     0.97887   0.14342   0.28400   0.00000  Uiso   1.00
C163   C     0.68780   0.18991   0.21600   0.00000  Uiso   1.00
C164   C     0.95713   0.16658   0.25008   0.00000  Uiso   1.00
Cu165  Cu    0.83333   0.21355   0.25000   0.00000  Uiso   1.00
Cu166  Cu    0.83333   0.11978   0.25000   0.00000  Uiso   1.00
H167   H     0.86181   0.10106   0.38808   0.00000  Uiso   1.00
H168   H     0.78864   0.28931   0.19856   0.00000  Uiso   1.00
H169   H     0.80486   0.23228   0.11192   0.00000  Uiso   1.00
H170   H     0.78248   0.27211   0.46426   0.00000  Uiso   1.00
H171   H     0.88418   0.06122   0.03574   0.00000  Uiso   1.00
H172   H     0.78560   0.27062   0.04419   0.00000  Uiso   1.00
H173   H     0.88108   0.06271   0.45581   0.00000  Uiso   1.00
H174   H     0.78865   0.04301   0.19855   0.00000  Uiso   1.00
H175   H     0.87801   0.29033   0.30145   0.00000  Uiso   1.00
H176   H     0.87803   0.04403   0.30144   0.00000  Uiso   1.00
N177   N     0.83333   0.28402   0.25000   0.00000  Uiso   1.00
N178   N     0.83333   0.04931   0.25000   0.00000  Uiso   1.00
N179   N     0.77409   0.27230   0.36630   0.00000  Uiso   1.00
N180   N     0.89256   0.06101   0.13370   0.00000  Uiso   1.00
N181   N     0.72969   0.10364   0.34806   0.00000  Uiso   1.00
N182   N     0.93698   0.22964   0.15191   0.00000  Uiso   1.00
N183   N     0.93971   0.10273   0.34810   0.00000  Uiso   1.00
N184   N     0.72695   0.23060   0.15190   0.00000  Uiso   1.00
O185   O     0.77321   0.20625   0.24999   0.00000  Uiso   1.00
O186   O     0.89345   0.12709   0.25001   0.00000  Uiso   1.00
O187   O     0.89345   0.20625   0.25000   0.00000  Uiso   1.00
O188   O     0.77321   0.12709   0.24999   0.00000  Uiso   1.00
O189   O     0.83332   0.20627   0.18513   0.00000  Uiso   1.00
O190   O     0.83334   0.12707   0.31487   0.00000  Uiso   1.00
O191   O     0.83334   0.20627   0.31487   0.00000  Uiso   1.00
O192   O     0.83332   0.12707   0.18513   0.00000  Uiso   1.00
C193   C     0.08753   0.50003   0.24982   0.00000  Uiso   1.00
C194   C     0.04287   0.50009   0.24992   0.00000  Uiso   1.00
C195   C     0.14186   0.35786   0.22143   0.00000  Uiso   1.00
C196   C     0.19148   0.64214   0.27857   0.00000  Uiso   1.00
C197   C     0.19148   0.35843   0.27856   0.00000  Uiso   1.00
C198   C     0.14185   0.64157   0.22144   0.00000  Uiso   1.00
C199   C     0.16787   0.49970   0.16437   0.00000  Uiso   1.00
C200   C     0.16546   0.50030   0.33562   0.00000  Uiso   1.00
C201   C     0.18161   0.46327   0.40651   0.00000  Uiso   1.00
C202   C     0.15172   0.53673   0.09349   0.00000  Uiso   1.00
C203   C     0.16398   0.50100   0.38404   0.00000  Uiso   1.00
C204   C     0.24581   0.49997   0.25018   0.00000  Uiso   1.00
C205   C     0.16936   0.49900   0.11596   0.00000  Uiso   1.00
C206   C     0.14573   0.53850   0.40790   0.00000  Uiso   1.00
C207   C     0.18760   0.46150   0.09210   0.00000  Uiso   1.00
C208   C     0.14708   0.53845   0.45456   0.00000  Uiso   1.00
C209   C     0.18626   0.46155   0.04544   0.00000  Uiso   1.00
C210   C     0.16583   0.50033   0.47672   0.00000  Uiso   1.00
C211   C     0.16750   0.49968   0.02328   0.00000  Uiso   1.00
C212   C     0.18284   0.46272   0.45242   0.00000  Uiso   1.00
C213   C     0.15050   0.53729   0.04758   0.00000  Uiso   1.00
C214   C     0.13030   0.57555   0.47976   0.00000  Uiso   1.00
C215   C     0.13209   0.57492   0.02570   0.00000  Uiso   1.00
C216   C     0.20303   0.42445   0.02024   0.00000  Uiso   1.00
C217   C     0.12442   0.57586   0.38474   0.00000  Uiso   1.00
C218   C     0.20890   0.42413   0.11525   0.00000  Uiso   1.00
C219   C     0.04480   0.45465   0.31965   0.00000  Uiso   1.00
C220   C     0.28853   0.54532   0.18034   0.00000  Uiso   1.00
C221   C     0.29035   0.45412   0.31965   0.00000  Uiso   1.00
C222   C     0.04298   0.54588   0.18035   0.00000  Uiso   1.00
C223   C     0.20125   0.42509   0.47430   0.00000  Uiso   1.00
C224   C     0.02198   0.47690   0.28396   0.00000  Uiso   1.00
C225   C     0.31136   0.52310   0.21604   0.00000  Uiso   1.00
C226   C     0.31220   0.47675   0.28400   0.00000  Uiso   1.00
C227   C     0.02113   0.52325   0.21600   0.00000  Uiso   1.00
C228   C     0.29046   0.49991   0.25008   0.00000  Uiso   1.00
Cu229  Cu    0.16667   0.54689   0.25000   0.00000  Uiso   1.00
Cu230  Cu    0.16667   0.45311   0.25000   0.00000  Uiso   1.00
H231   H     0.19515   0.43439   0.38808   0.00000  Uiso   1.00
H232   H     0.12197   0.62264   0.19856   0.00000  Uiso   1.00
H233   H     0.13819   0.56561   0.11192   0.00000  Uiso   1.00
H234   H     0.11582   0.60544   0.46426   0.00000  Uiso   1.00
H235   H     0.21752   0.39456   0.03574   0.00000  Uiso   1.00
H236   H     0.11893   0.60396   0.04419   0.00000  Uiso   1.00
H237   H     0.21441   0.39605   0.45581   0.00000  Uiso   1.00
H238   H     0.12199   0.37634   0.19855   0.00000  Uiso   1.00
H239   H     0.21135   0.62366   0.30145   0.00000  Uiso   1.00
H240   H     0.21136   0.37736   0.30144   0.00000  Uiso   1.00
N241   N     0.16667   0.61736   0.25000   0.00000  Uiso   1.00
N242   N     0.16667   0.38264   0.25000   0.00000  Uiso   1.00
N243   N     0.10742   0.60564   0.36630   0.00000  Uiso   1.00
N244   N     0.22590   0.39435   0.13370   0.00000  Uiso   1.00
N245   N     0.06302   0.43698   0.34806   0.00000  Uiso   1.00
N246   N     0.27031   0.56297   0.15191   0.00000  Uiso   1.00
N247   N     0.27305   0.43606   0.34810   0.00000  Uiso   1.00
N248   N     0.06029   0.56393   0.15190   0.00000  Uiso   1.00
O249   O     0.10655   0.53958   0.24999   0.00000  Uiso   1.00
O250   O     0.22679   0.46042   0.25001   0.00000  Uiso   1.00
O251   O     0.22679   0.53958   0.25000   0.00000  Uiso   1.00
O252   O     0.10655   0.46042   0.24999   0.00000  Uiso   1.00
O253   O     0.16666   0.53960   0.18513   0.00000  Uiso   1.00
O254   O     0.16668   0.46040   0.31487   0.00000  Uiso   1.00
O255   O     0.16668   0.53960   0.31487   0.00000  Uiso   1.00
O256   O     0.16666   0.46040   0.18513   0.00000  Uiso   1.00
C257   C     0.42086   0.50003   0.24982   0.00000  Uiso   1.00
C258   C     0.37620   0.50009   0.24992   0.00000  Uiso   1.00
C259   C     0.47519   0.35786   0.22143   0.00000  Uiso   1.00
C260   C     0.52481   0.64214   0.27857   0.00000  Uiso   1.00
C261   C     0.52482   0.35843   0.27856   0.00000  Uiso   1.00
C262   C     0.47518   0.64157   0.22144   0.00000  Uiso   1.00
C263   C     0.50120   0.49970   0.16437   0.00000  Uiso   1.00
C264   C     0.49880   0.50030   0.33562   0.00000  Uiso   1.00
C265   C     0.51495   0.46327   0.40651   0.00000  Uiso   1.00
C266   C     0.48506   0.53673   0.09349   0.00000  Uiso   1.00
C267   C     0.49731   0.50100   0.38404   0.00000  Uiso   1.00
C268   C     0.57914   0.49997   0.25018   0.00000  Uiso   1.00
C269   C     0.50269   0.49900   0.11596   0.00000  Uiso   1.00
C270   C     0.47906   0.53850   0.40790   0.00000  Uiso   1.00
C271   C     0.52094   0.46150   0.09210   0.00000  Uiso   1.00
C272   C     0.48041   0.53845   0.45456   0.00000  Uiso   1.00
C273   C     0.51959   0.46155   0.04544   0.00000  Uiso   1.00
C274   C     0.49917   0.50033   0.47672   0.00000  Uiso   1.00
C275   C     0.50084   0.49968   0.02328   0.00000  Uiso   1.00
C276   C     0.51617   0.46272   0.45242   0.00000  Uiso   1.00
C277   C     0.48384   0.53729   0.04758   0.00000  Uiso   1.00
C278   C     0.46363   0.57555   0.47976   0.00000  Uiso   1.00
C279   C     0.46542   0.57492   0.02570   0.00000  Uiso   1.00
C280   C     0.53637   0.42445   0.02024   0.00000  Uiso   1.00
C281   C     0.45776   0.57586   0.38474   0.00000  Uiso   1.00
C282   C     0.54223   0.42413   0.11525   0.00000  Uiso   1.00
C283   C     0.37814   0.45465   0.31965   0.00000  Uiso   1.00
C284   C     0.62186   0.54532   0.18034   0.00000  Uiso   1.00
C285   C     0.62369   0.45412   0.31965   0.00000  Uiso   1.00
C286   C     0.37632   0.54588   0.18035   0.00000  Uiso   1.00
C287   C     0.53458   0.42509   0.47430   0.00000  Uiso   1.00
C288   C     0.35531   0.47690   0.28396   0.00000  Uiso   1.00
C289   C     0.64469   0.52310   0.21604   0.00000  Uiso   1.00
C290   C     0.64554   0.47675   0.28400   0.00000  Uiso   1.00
C291   C     0.35446   0.52325   0.21600   0.00000  Uiso   1.00
C292   C     0.62380   0.49991   0.25008   0.00000  Uiso   1.00
Cu293  Cu    0.50000   0.54689   0.25000   0.00000  Uiso   1.00
Cu294  Cu    0.50000   0.45311   0.25000   0.00000  Uiso   1.00
H295   H     0.52848   0.43439   0.38808   0.00000  Uiso   1.00
H296   H     0.45531   0.62264   0.19856   0.00000  Uiso   1.00
H297   H     0.47152   0.56561   0.11192   0.00000  Uiso   1.00
H298   H     0.44915   0.60544   0.46426   0.00000  Uiso   1.00
H299   H     0.55085   0.39456   0.03574   0.00000  Uiso   1.00
H300   H     0.45226   0.60396   0.04419   0.00000  Uiso   1.00
H301   H     0.54774   0.39605   0.45581   0.00000  Uiso   1.00
H302   H     0.45532   0.37634   0.19855   0.00000  Uiso   1.00
H303   H     0.54468   0.62366   0.30145   0.00000  Uiso   1.00
H304   H     0.54469   0.37736   0.30144   0.00000  Uiso   1.00
N305   N     0.50000   0.61736   0.25000   0.00000  Uiso   1.00
N306   N     0.50000   0.38264   0.25000   0.00000  Uiso   1.00
N307   N     0.44075   0.60564   0.36630   0.00000  Uiso   1.00
N308   N     0.55923   0.39435   0.13370   0.00000  Uiso   1.00
N309   N     0.39635   0.43698   0.34806   0.00000  Uiso   1.00
N310   N     0.60365   0.56297   0.15191   0.00000  Uiso   1.00
N311   N     0.60638   0.43606   0.34810   0.00000  Uiso   1.00
N312   N     0.39362   0.56393   0.15190   0.00000  Uiso   1.00
O313   O     0.43988   0.53958   0.24999   0.00000  Uiso   1.00
O314   O     0.56012   0.46042   0.25001   0.00000  Uiso   1.00
O315   O     0.56012   0.53958   0.25000   0.00000  Uiso   1.00
O316   O     0.43988   0.46042   0.24999   0.00000  Uiso   1.00
O317   O     0.49999   0.53960   0.18513   0.00000  Uiso   1.00
O318   O     0.50001   0.46040   0.31487   0.00000  Uiso   1.00
O319   O     0.50001   0.53960   0.31487   0.00000  Uiso   1.00
O320   O     0.49999   0.46040   0.18513   0.00000  Uiso   1.00
C321   C     0.75419   0.50003   0.24982   0.00000  Uiso   1.00
C322   C     0.70954   0.50009   0.24992   0.00000  Uiso   1.00
C323   C     0.80852   0.35786   0.22143   0.00000  Uiso   1.00
C324   C     0.85814   0.64214   0.27857   0.00000  Uiso   1.00
C325   C     0.85815   0.35843   0.27856   0.00000  Uiso   1.00
C326   C     0.80852   0.64157   0.22144   0.00000  Uiso   1.00
C327   C     0.83454   0.49970   0.16437   0.00000  Uiso   1.00
C328   C     0.83213   0.50030   0.33562   0.00000  Uiso   1.00
C329   C     0.84828   0.46327   0.40651   0.00000  Uiso   1.00
C330   C     0.81839   0.53673   0.09349   0.00000  Uiso   1.00
C331   C     0.83064   0.50100   0.38404   0.00000  Uiso   1.00
C332   C     0.91248   0.49997   0.25018   0.00000  Uiso   1.00
C333   C     0.83603   0.49900   0.11596   0.00000  Uiso   1.00
C334   C     0.81240   0.53850   0.40790   0.00000  Uiso   1.00
C335   C     0.85427   0.46150   0.09210   0.00000  Uiso   1.00
C336   C     0.81375   0.53845   0.45456   0.00000  Uiso   1.00
C337   C     0.85292   0.46155   0.04544   0.00000  Uiso   1.00
C338   C     0.83250   0.50033   0.47672   0.00000  Uiso   1.00
C339   C     0.83417   0.49968   0.02328   0.00000  Uiso   1.00
C340   C     0.84950   0.46272   0.45242   0.00000  Uiso   1.00
C341   C     0.81717   0.53729   0.04758   0.00000  Uiso   1.00
C342   C     0.79697   0.57555   0.47976   0.00000  Uiso   1.00
C343   C     0.79876   0.57492   0.02570   0.00000  Uiso   1.00
C344   C     0.86970   0.42445   0.02024   0.00000  Uiso   1.00
C345   C     0.79109   0.57586   0.38474   0.00000  Uiso   1.00
C346   C     0.87557   0.42413   0.11525   0.00000  Uiso   1.00
C347   C     0.71147   0.45465   0.31965   0.00000  Uiso   1.00
C348   C     0.95520   0.54532   0.18034   0.00000  Uiso   1.00
C349   C     0.95702   0.45412   0.31965   0.00000  Uiso   1.00
C350   C     0.70965   0.54588   0.18035   0.00000  Uiso   1.00
C351   C     0.86792   0.42509   0.47430   0.00000  Uiso   1.00
C352   C     0.68864   0.47690   0.28396   0.00000  Uiso   1.00
C353   C     0.97802   0.52310   0.21604   0.00000  Uiso   1.00
C354   C     0.97887   0.47675   0.28400   0.00000  Uiso   1.00
C355   C     0.68780   0.52325   0.21600   0.00000  Uiso   1.00
C356   C     0.95713   0.49991   0.25008   0.00000  Uiso   1.00
Cu357  Cu    0.83333   0.54689   0.25000   0.00000  Uiso   1.00
Cu358  Cu    0.83333   0.45311   0.25000   0.00000  Uiso   1.00
H359   H     0.86181   0.43439   0.38808   0.00000  Uiso   1.00
H360   H     0.78864   0.62264   0.19856   0.00000  Uiso   1.00
H361   H     0.80486   0.56561   0.11192   0.00000  Uiso   1.00
H362   H     0.78248   0.60544   0.46426   0.00000  Uiso   1.00
H363   H     0.88418   0.39456   0.03574   0.00000  Uiso   1.00
H364   H     0.78560   0.60396   0.04419   0.00000  Uiso   1.00
H365   H     0.88108   0.39605   0.45581   0.00000  Uiso   1.00
H366   H     0.78865   0.37634   0.19855   0.00000  Uiso   1.00
H367   H     0.87801   0.62366   0.30145   0.00000  Uiso   1.00
H368   H     0.87803   0.37736   0.30144   0.00000  Uiso   1.00
N369   N     0.83333   0.61736   0.25000   0.00000  Uiso   1.00
N370   N     0.83333   0.38264   0.25000   0.00000  Uiso   1.00
N371   N     0.77409   0.60564   0.36630   0.00000  Uiso   1.00
N372   N     0.89256   0.39435   0.13370   0.00000  Uiso   1.00
N373   N     0.72969   0.43698   0.34806   0.00000  Uiso   1.00
N374   N     0.93698   0.56297   0.15191   0.00000  Uiso   1.00
N375   N     0.93971   0.43606   0.34810   0.00000  Uiso   1.00
N376   N     0.72695   0.56393   0.15190   0.00000  Uiso   1.00
O377   O     0.77321   0.53958   0.24999   0.00000  Uiso   1.00
O378   O     0.89345   0.46042   0.25001   0.00000  Uiso   1.00
O379   O     0.89345   0.53958   0.25000   0.00000  Uiso   1.00
O380   O     0.77321   0.46042   0.24999   0.00000  Uiso   1.00
O381   O     0.83332   0.53960   0.18513   0.00000  Uiso   1.00
O382   O     0.83334   0.46040   0.31487   0.00000  Uiso   1.00
O383   O     0.83334   0.53960   0.31487   0.00000  Uiso   1.00
O384   O     0.83332   0.46040   0.18513   0.00000  Uiso   1.00
C385   C     0.08753   0.83336   0.24982   0.00000  Uiso   1.00
C386   C     0.04287   0.83342   0.24992   0.00000  Uiso   1.00
C387   C     0.14186   0.69119   0.22143   0.00000  Uiso   1.00
C388   C     0.19148   0.97548   0.27857   0.00000  Uiso   1.00
C389   C     0.19148   0.69176   0.27856   0.00000  Uiso   1.00
C390   C     0.14185   0.97491   0.22144   0.00000  Uiso   1.00
C391   C     0.16787   0.83303   0.16437   0.00000  Uiso   1.00
C392   C     0.16546   0.83364   0.33562   0.00000  Uiso   1.00
C393   C     0.18161   0.79661   0.40651   0.00000  Uiso   1.00
C394   C     0.15172   0.87006   0.09349   0.00000  Uiso   1.00
C395   C     0.16398   0.83433   0.38404   0.00000  Uiso   1.00
C396   C     0.24581   0.83330   0.25018   0.00000  Uiso   1.00
C397   C     0.16936   0.83233   0.11596   0.00000  Uiso   1.00
C398   C     0.14573   0.87183   0.40790   0.00000  Uiso   1.00
C399   C     0.18760   0.79483   0.09210   0.00000  Uiso   1.00
C400   C     0.14708   0.87178   0.45456   0.00000  Uiso   1.00
C401   C     0.18626   0.79488   0.04544   0.00000  Uiso   1.00
C402   C     0.16583   0.83366   0.47672   0.00000  Uiso   1.00
C403   C     0.16750   0.83301   0.02328   0.00000  Uiso   1.00
C404   C     0.18284   0.79605   0.45242   0.00000  Uiso   1.00
C405   C     0.15050   0.87062   0.04758   0.00000  Uiso   1.00
C406   C     0.13030   0.90888   0.47976   0.00000  Uiso   1.00
C407   C     0.13209   0.90825   0.02570   0.00000  Uiso   1.00
C408   C     0.20303   0.75779   0.02024   0.00000  Uiso   1.00
C409   C     0.12442   0.90920   0.38474   0.00000  Uiso   1.00
C410   C     0.20890   0.75746   0.11525   0.00000  Uiso   1.00
C411   C     0.04480   0.78798   0.31965   0.00000  Uiso   1.00
C412   C     0.28853   0.87866   0.18034   0.00000  Uiso   1.00
C413   C     0.29035   0.78745   0.31965   0.00000  Uiso   1.00
C414   C     0.04298   0.87922   0.18035   0.00000  Uiso   1.00
C415   C     0.20125   0.75842   0.47430   0.00000  Uiso   1.00
C416   C     0.02198   0.81023   0.28396   0.00000  Uiso   1.00
C417   C     0.31136   0.85643   0.21604   0.00000  Uiso   1.00
C418   C     0.31220   0.81009   0.28400   0.00000  Uiso   1.00
C419   C     0.02113   0.85658   0.21600   0.00000  Uiso   1.00
C420   C     0.29046   0.83325   0.25008   0.00000  Uiso   1.00
Cu421  Cu    0.16667   0.88022   0.25000   0.00000  Uiso   1.00
Cu422  Cu    0.16667   0.78645   0.25000   0.00000  Uiso   1.00
H423   H     0.19515   0.76772   0.38808   0.00000  Uiso   1.00
H424   H     0.12197   0.95597   0.19856   0.00000  Uiso   1.00
H425   H     0.13819   0.89895   0.11192   0.00000  Uiso   1.00
H426   H     0.11582   0.93878   0.46426   0.00000  Uiso   1.00
H427   H     0.21752   0.72789   0.03574   0.00000  Uiso   1.00
H428   H     0.11893   0.93729   0.04419   0.00000  Uiso   1.00
H429   H     0.21441   0.72938   0.45581   0.00000  Uiso   1.00
H430   H     0.12199   0.70967   0.19855   0.00000  Uiso   1.00
H431   H     0.21135   0.95699   0.30145   0.00000  Uiso   1.00
H432   H     0.21136   0.71069   0.30144   0.00000  Uiso   1.00
N433   N     0.16667   0.95069   0.25000   0.00000  Uiso   1.00
N434   N     0.16667   0.71598   0.25000   0.00000  Uiso   1.00
N435   N     0.10742   0.93897   0.36630   0.00000  Uiso   1.00
N436   N     0.22590   0.72768   0.13370   0.00000  Uiso   1.00
N437   N     0.06302   0.77031   0.34806   0.00000  Uiso   1.00
N438   N     0.27031   0.89630   0.15191   0.00000  Uiso   1.00
N439   N     0.27305   0.76940   0.34810   0.00000  Uiso   1.00
N440   N     0.06029   0.89727   0.15190   0.00000  Uiso   1.00
O441   O     0.10655   0.87291   0.24999   0.00000  Uiso   1.00
O442   O     0.22679   0.79375   0.25001   0.00000  Uiso   1.00
O443   O     0.22679   0.87291   0.25000   0.00000  Uiso   1.00
O444   O     0.10655   0.79375   0.24999   0.00000  Uiso   1.00
O445   O     0.16666   0.87293   0.18513   0.00000  Uiso   1.00
O446   O     0.16668   0.79373   0.31487   0.00000  Uiso   1.00
O447   O     0.16668   0.87293   0.31487   0.00000  Uiso   1.00
O448   O     0.16666   0.79373   0.18513   0.00000  Uiso   1.00
C449   C     0.42086   0.83336   0.24982   0.00000  Uiso   1.00
C450   C     0.37620   0.83342   0.24992   0.00000  Uiso   1.00
C451   C     0.47519   0.69119   0.22143   0.00000  Uiso   1.00
C452   C     0.52481   0.97548   0.27857   0.00000  Uiso   1.00
C453   C     0.52482   0.69176   0.27856   0.00000  Uiso   1.00
C454   C     0.47518   0.97491   0.22144   0.00000  Uiso   1.00
C455   C     0.50120   0.83303   0.16437   0.00000  Uiso   1.00
C456   C     0.49880   0.83364   0.33562   0.00000  Uiso   1.00
C457   C     0.51495   0.79661   0.40651   0.00000  Uiso   1.00
C458   C     0.48506   0.87006   0.09349   0.00000  Uiso   1.00
C459   C     0.49731   0.83433   0.38404   0.00000  Uiso   1.00
C460   C     0.57914   0.83330   0.25018   0.00000  Uiso   1.00
C461   C     0.50269   0.83233   0.11596   0.00000  Uiso   1.00
C462   C     0.47906   0.87183   0.40790   0.00000  Uiso   1.00
C463   C     0.52094   0.79483   0.09210   0.00000  Uiso   1.00
C464   C     0.48041   0.87178   0.45456   0.00000  Uiso   1.00
C465   C     0.51959   0.79488   0.04544   0.00000  Uiso   1.00
C466   C     0.49917   0.83366   0.47672   0.00000  Uiso   1.00
C467   C     0.50084   0.83301   0.02328   0.00000  Uiso   1.00
C468   C     0.51617   0.79605   0.45242   0.00000  Uiso   1.00
C469   C     0.48384   0.87062   0.04758   0.00000  Uiso   1.00
C470   C     0.46363   0.90888   0.47976   0.00000  Uiso   1.00
C471   C     0.46542   0.90825   0.02570   0.00000  Uiso   1.00
C472   C     0.53637   0.75779   0.02024   0.00000  Uiso   1.00
C473   C     0.45776   0.90920   0.38474   0.00000  Uiso   1.00
C474   C     0.54223   0.75746   0.11525   0.00000  Uiso   1.00
C475   C     0.37814   0.78798   0.31965   0.00000  Uiso   1.00
C476   C     0.62186   0.87866   0.18034   0.00000  Uiso   1.00
C477   C     0.62369   0.78745   0.31965   0.00000  Uiso   1.00
C478   C     0.37632   0.87922   0.18035   0.00000  Uiso   1.00
C479   C     0.53458   0.75842   0.47430   0.00000  Uiso   1.00
C480   C     0.35531   0.81023   0.28396   0.00000  Uiso   1.00
C481   C     0.64469   0.85643   0.21604   0.00000  Uiso   1.00
C482   C     0.64554   0.81009   0.28400   0.00000  Uiso   1.00
C483   C     0.35446   0.85658   0.21600   0.00000  Uiso   1.00
C484   C     0.62380   0.83325   0.25008   0.00000  Uiso   1.00
Cu485  Cu    0.50000   0.88022   0.25000   0.00000  Uiso   1.00
Cu486  Cu    0.50000   0.78645   0.25000   0.00000  Uiso   1.00
H487   H     0.52848   0.76772   0.38808   0.00000  Uiso   1.00
H488   H     0.45531   0.95597   0.19856   0.00000  Uiso   1.00
H489   H     0.47152   0.89895   0.11192   0.00000  Uiso   1.00
H490   H     0.44915   0.93878   0.46426   0.00000  Uiso   1.00
H491   H     0.55085   0.72789   0.03574   0.00000  Uiso   1.00
H492   H     0.45226   0.93729   0.04419   0.00000  Uiso   1.00
H493   H     0.54774   0.72938   0.45581   0.00000  Uiso   1.00
H494   H     0.45532   0.70967   0.19855   0.00000  Uiso   1.00
H495   H     0.54468   0.95699   0.30145   0.00000  Uiso   1.00
H496   H     0.54469   0.71069   0.30144   0.00000  Uiso   1.00
N497   N     0.50000   0.95069   0.25000   0.00000  Uiso   1.00
N498   N     0.50000   0.71598   0.25000   0.00000  Uiso   1.00
N499   N     0.44075   0.93897   0.36630   0.00000  Uiso   1.00
N500   N     0.55923   0.72768   0.13370   0.00000  Uiso   1.00
N501   N     0.39635   0.77031   0.34806   0.00000  Uiso   1.00
N502   N     0.60365   0.89630   0.15191   0.00000  Uiso   1.00
N503   N     0.60638   0.76940   0.34810   0.00000  Uiso   1.00
N504   N     0.39362   0.89727   0.15190   0.00000  Uiso   1.00
O505   O     0.43988   0.87291   0.24999   0.00000  Uiso   1.00
O506   O     0.56012   0.79375   0.25001   0.00000  Uiso   1.00
O507   O     0.56012   0.87291   0.25000   0.00000  Uiso   1.00
O508   O     0.43988   0.79375   0.24999   0.00000  Uiso   1.00
O509   O     0.49999   0.87293   0.18513   0.00000  Uiso   1.00
O510   O     0.50001   0.79373   0.31487   0.00000  Uiso   1.00
O511   O     0.50001   0.87293   0.31487   0.00000  Uiso   1.00
O512   O     0.49999   0.79373   0.18513   0.00000  Uiso   1.00
C513   C     0.75419   0.83336   0.24982   0.00000  Uiso   1.00
C514   C     0.70954   0.83342   0.24992   0.00000  Uiso   1.00
C515   C     0.80852   0.69119   0.22143   0.00000  Uiso   1.00
C516   C     0.85814   0.97548   0.27857   0.00000  Uiso   1.00
C517   C     0.85815   0.69176   0.27856   0.00000  Uiso   1.00
C518   C     0.80852   0.97491   0.22144   0.00000  Uiso   1.00
C519   C     0.83454   0.83303   0.16437   0.00000  Uiso   1.00
C520   C     0.83213   0.83364   0.33562   0.00000  Uiso   1.00
C521   C     0.84828   0.79661   0.40651   0.00000  Uiso   1.00
C522   C     0.81839   0.87006   0.09349   0.00000  Uiso   1.00
C523   C     0.83064   0.83433   0.38404   0.00000  Uiso   1.00
C524   C     0.91248   0.83330   0.25018   0.00000  Uiso   1.00
C525   C     0.83603   0.83233   0.11596   0.00000  Uiso   1.00
C526   C     0.81240   0.87183   0.40790   0.00000  Uiso   1.00
C527   C     0.85427   0.79483   0.09210   0.00000  Uiso   1.00
C528   C     0.81375   0.87178   0.45456   0.00000  Uiso   1.00
C529   C     0.85292   0.79488   0.04544   0.00000  Uiso   1.00
C530   C     0.83250   0.83366   0.47672   0.00000  Uiso   1.00
C531   C     0.83417   0.83301   0.02328   0.00000  Uiso   1.00
C532   C     0.84950   0.79605   0.45242   0.00000  Uiso   1.00
C533   C     0.81717   0.87062   0.04758   0.00000  Uiso   1.00
C534   C     0.79697   0.90888   0.47976   0.00000  Uiso   1.00
C535   C     0.79876   0.90825   0.02570   0.00000  Uiso   1.00
C536   C     0.86970   0.75779   0.02024   0.00000  Uiso   1.00
C537   C     0.79109   0.90920   0.38474   0.00000  Uiso   1.00
C538   C     0.87557   0.75746   0.11525   0.00000  Uiso   1.00
C539   C     0.71147   0.78798   0.31965   0.00000  Uiso   1.00
C540   C     0.95520   0.87866   0.18034   0.00000  Uiso   1.00
C541   C     0.95702   0.78745   0.31965   0.00000  Uiso   1.00
C542   C     0.70965   0.87922   0.18035   0.00000  Uiso   1.00
C543   C     0.86792   0.75842   0.47430   0.00000  Uiso   1.00
C544   C     0.68864   0.81023   0.28396   0.00000  Uiso   1.00
C545   C     0.97802   0.85643   0.21604   0.00000  Uiso   1.00
C546   C     0.97887   0.81009   0.28400   0.00000  Uiso   1.00
C547   C     0.68780   0.85658   0.21600   0.00000  Uiso   1.00
C548   C     0.95713   0.83325   0.25008   0.00000  Uiso   1.00
Cu549  Cu    0.83333   0.88022   0.25000   0.00000  Uiso   1.00
Cu550  Cu    0.83333   0.78645   0.25000   0.00000  Uiso   1.00
H551   H     0.86181   0.76772   0.38808   0.00000  Uiso   1.00
H552   H     0.78864   0.95597   0.19856   0.00000  Uiso   1.00
H553   H     0.80486   0.89895   0.11192   0.00000  Uiso   1.00
H554   H     0.78248   0.93878   0.46426   0.00000  Uiso   1.00
H555   H     0.88418   0.72789   0.03574   0.00000  Uiso   1.00
H556   H     0.78560   0.93729   0.04419   0.00000  Uiso   1.00
H557   H     0.88108   0.72938   0.45581   0.00000  Uiso   1.00
H558   H     0.78865   0.70967   0.19855   0.00000  Uiso   1.00
H559   H     0.87801   0.95699   0.30145   0.00000  Uiso   1.00
H560   H     0.87803   0.71069   0.30144   0.00000  Uiso   1.00
N561   N     0.83333   0.95069   0.25000   0.00000  Uiso   1.00
N562   N     0.83333   0.71598   0.25000   0.00000  Uiso   1.00
N563   N     0.77409   0.93897   0.36630   0.00000  Uiso   1.00
N564   N     0.89256   0.72768   0.13370   0.00000  Uiso   1.00
N565   N     0.72969   0.77031   0.34806   0.00000  Uiso   1.00
N566   N     0.93698   0.89630   0.15191   0.00000  Uiso   1.00
N567   N     0.93971   0.76940   0.34810   0.00000  Uiso   1.00
N568   N     0.72695   0.89727   0.15190   0.00000  Uiso   1.00
O569   O     0.77321   0.87291   0.24999   0.00000  Uiso   1.00
O570   O     0.89345   0.79375   0.25001   0.00000  Uiso   1.00
O571   O     0.89345   0.87291   0.25000   0.00000  Uiso   1.00
O572   O     0.77321   0.79375   0.24999   0.00000  Uiso   1.00
O573   O     0.83332   0.87293   0.18513   0.00000  Uiso   1.00
O574   O     0.83334   0.79373   0.31487   0.00000  Uiso   1.00
O575   O     0.83334   0.87293   0.31487   0.00000  Uiso   1.00
O576   O     0.83332   0.79373   0.18513   0.00000  Uiso   1.00
C577   C     0.08753   0.16670   0.74982   0.00000  Uiso   1.00
C578   C     0.04287   0.16675   0.74992   0.00000  Uiso   1.00
C579   C     0.14186   0.02452   0.72143   0.00000  Uiso   1.00
C580   C     0.19148   0.30881   0.77857   0.00000  Uiso   1.00
C581   C     0.19148   0.02510   0.77856   0.00000  Uiso   1.00
C582   C     0.14185   0.30824   0.72144   0.00000  Uiso   1.00
C583   C     0.16787   0.16636   0.66437   0.00000  Uiso   1.00
C584   C     0.16546   0.16697   0.83562   0.00000  Uiso   1.00
C585   C     0.18161   0.12994   0.90651   0.00000  Uiso   1.00
C586   C     0.15172   0.20340   0.59349   0.00000  Uiso   1.00
C587   C     0.16398   0.16767   0.88404   0.00000  Uiso   1.00
C588   C     0.24581   0.16664   0.75018   0.00000  Uiso   1.00
C589   C     0.16936   0.16567   0.61596   0.00000  Uiso   1.00
C590   C     0.14573   0.20516   0.90790   0.00000  Uiso   1.00
C591   C     0.18760   0.12817   0.59210   0.00000  Uiso   1.00
C592   C     0.14708   0.20512   0.95456   0.00000  Uiso   1.00
C593   C     0.18626   0.12822   0.54544   0.00000  Uiso   1.00
C594   C     0.16583   0.16699   0.97672   0.00000  Uiso   1.00
C595   C     0.16750   0.16634   0.52328   0.00000  Uiso   1.00
C596   C     0.18284   0.12938   0.95242   0.00000  Uiso   1.00
C597   C     0.15050   0.20395   0.54758   0.00000  Uiso   1.00
C598   C     0.13030   0.24222   0.97976   0.00000  Uiso   1.00
C599   C     0.13209   0.24158   0.52570   0.00000  Uiso   1.00
C600   C     0.20303   0.09112   0.52024   0.00000  Uiso   1.00
C601   C     0.12442   0.24253   0.88474   0.00000  Uiso   1.00
C602   C     0.20890   0.09079   0.61525   0.00000  Uiso   1.00
C603   C     0.04480   0.12131   0.81965   0.00000  Uiso   1.00
C604   C     0.28853   0.21199   0.68034   0.00000  Uiso   1.00
C605   C     0.29035   0.12078   0.81965   0.00000  Uiso   1.00
C606   C     0.04298   0.21255   0.68035   0.00000  Uiso   1.00
C607   C     0.20125   0.09175   0.97430   0.00000  Uiso   1.00
C608   C     0.02198   0.14356   0.78396   0.00000  Uiso   1.00
C609   C     0.31136   0.18976   0.71604   0.00000  Uiso   1.00
C610   C     0.31220   0.14342   0.78400   0.00000  Uiso   1.00
C611   C     0.02113   0.18991   0.71600   0.00000  Uiso   1.00
C612   C     0.29046   0.16658   0.75008   0.00000  Uiso   1.00
Cu613  Cu    0.16667   0.21355   0.75000   0.00000  Uiso   1.00
Cu614  Cu    0.16667   0.11978   0.75000   0.00000  Uiso   1.00
H615   H     0.19515   0.10106   0.88808   0.00000  Uiso   1.00
H616   H     0.12197   0.28931   0.69856   0.00000  Uiso   1.00
H617   H     0.13819   0.23228   0.61192   0.00000  Uiso   1.00
H618   H     0.11582   0.27211   0.96426   0.00000  Uiso   1.00
H619   H     0.21752   0.06122   0.53574   0.00000  Uiso   1.00
H620   H     0.11893   0.27062   0.54419   0.00000  Uiso   1.00
H621   H     0.21441   0.06271   0.95581   0.00000  Uiso   1.00
H622   H     0.12199   0.04301   0.69855   0.00000  Uiso   1.00
H623   H     0.21135   0.29033   0.80145   0.00000  Uiso   1.00
H624   H     0.21136   0.04403   0.80144   0.00000  Uiso   1.00
N625   N     0.16667   0.28402   0.75000   0.00000  Uiso   1.00
N626   N     0.16667   0.04931   0.75000   0.00000  Uiso   1.00
N627   N     0.10742   0.27230   0.86630   0.00000  Uiso   1.00
N628   N     0.22590   0.06101   0.63370   0.00000  Uiso   1.00
N629   N     0.06302   0.10364   0.84806   0.00000  Uiso   1.00
N630   N     0.27031   0.22964   0.65191   0.00000  Uiso   1.00
N631   N     0.27305   0.10273   0.84810   0.00000  Uiso   1.00
N632   N     0.06029   0.23060   0.65190   0.00000  Uiso   1.00
O633   O     0.10655   0.20625   0.74999   0.00000  Uiso   1.00
O634   O     0.22679   0.12709   0.75001   0.00000  Uiso   1.00
O635   O     0.22679   0.20625   0.75000   0.00000  Uiso   1.00
O636   O     0.10655   0.12709   0.74999   0.00000  Uiso   1.00
O637   O     0.16666   0.20627   0.68513   0.00000  Uiso   1.00
O638   O     0.16668   0.12707   0.81487   0.00000  Uiso   1.00
O639   O     0.16668   0.20627   0.81487   0.00000  Uiso   1.00
O640   O     0.16666   0.12707   0.68513   0.00000  Uiso   1.00
C641   C     0.42086   0.16670   0.74982   0.00000  Uiso   1.00
C642   C     0.37620   0.16675   0.74992   0.00000  Uiso   1.00
C643   C     0.47519   0.02452   0.72143   0.00000  Uiso   1.00
C644   C     0.52481   0.30881   0.77857   0.00000  Uiso   1.00
C645   C     0.52482   0.02510   0.77856   0.00000  Uiso   1.00
C646   C     0.47518   0.30824   0.72144   0.00000  Uiso   1.00
C647   C     0.50120   0.16636   0.66437   0.00000  Uiso   1.00
C648   C     0.49880   0.16697   0.83562   0.00000  Uiso   1.00
C649   C     0.51495   0.12994   0.90651   0.00000  Uiso   1.00
C650   C     0.48506   0.20340   0.59349   0.00000  Uiso   1.00
C651   C     0.49731   0.16767   0.88404   0.00000  Uiso   1.00
C652   C     0.57914   0.16664   0.75018   0.00000  Uiso   1.00
C653   C     0.50269   0.16567   0.61596   0.00000  Uiso   1.00
C654   C     0.47906   0.20516   0.90790   0.00000  Uiso   1.00
C655   C     0.52094   0.12817   0.59210   0.00000  Uiso   1.00
C656   C     0.48041   0.20512   0.95456   0.00000  Uiso   1.00
C657   C     0.51959   0.12822   0.54544   0.00000  Uiso   1.00
C658   C     0.49917   0.16699   0.97672   0.00000  Uiso   1.00
C659   C     0.50084   0.16634   0.52328   0.00000  Uiso   1.00
C660   C     0.51617   0.12938   0.95242   0.00000  Uiso   1.00
C661   C     0.48384   0.20395   0.54758   0.00000  Uiso   1.00
C662   C     0.46363   0.24222   0.97976   0.00000  Uiso   1.00
C663   C     0.46542   0.24158   0.52570   0.00000  Uiso   1.00
C664   C     0.53637   0.09112   0.52024   0.00000  Uiso   1.00
C665   C     0.45776   0.24253   0.88474   0.00000  Uiso   1.00
C666   C     0.54223   0.09079   0.61525   0.00000  Uiso   1.00
C667   C     0.37814   0.12131   0.81965   0.00000  Uiso   1.00
C668   C     0.62186   0.21199   0.68034   0.00000  Uiso   1.00
C669   C     0.62369   0.12078   0.81965   0.00000  Uiso   1.00
C670   C     0.37632   0.21255   0.68035   0.00000  Uiso   1.00
C671   C     0.53458   0.09175   0.97430   0.00000  Uiso   1.00
C672   C     0.35531   0.14356   0.78396   0.00000  Uiso   1.00
C673   C     0.64469   0.18976   0.71604   0.00000  Uiso   1.00
C674   C     0.64554   0.14342   0.78400   0.00000  Uiso   1.00
C675   C     0.35446   0.18991   0.71600   0.00000  Uiso   1.00
C676   C     0.62380   0.16658   0.75008   0.00000  Uiso   1.00
Cu677  Cu    0.50000   0.21355   0.75000   0.00000  Uiso   1.00
Cu678  Cu    0.50000   0.11978   0.75000   0.00000  Uiso   1.00
H679   H     0.52848   0.10106   0.88808   0.00000  Uiso   1.00
H680   H     0.45531   0.28931   0.69856   0.00000  Uiso   1.00
H681   H     0.47152   0.23228   0.61192   0.00000  Uiso   1.00
H682   H     0.44915   0.27211   0.96426   0.00000  Uiso   1.00
H683   H     0.55085   0.06122   0.53574   0.00000  Uiso   1.00
H684   H     0.45226   0.27062   0.54419   0.00000  Uiso   1.00
H685   H     0.54774   0.06271   0.95581   0.00000  Uiso   1.00
H686   H     0.45532   0.04301   0.69855   0.00000  Uiso   1.00
H687   H     0.54468   0.29033   0.80145   0.00000  Uiso   1.00
H688   H     0.54469   0.04403   0.80144   0.00000  Uiso   1.00
N689   N     0.50000   0.28402   0.75000   0.00000  Uiso   1.00
N690   N     0.50000   0.04931   0.75000   0.00000  Uiso   1.00
N691   N     0.44075   0.27230   0.86630   0.00000  Uiso   1.00
N692   N     0.55923   0.06101   0.63370   0.00000  Uiso   1.00
N693   N     0.39635   0.10364   0.84806   0.00000  Uiso   1.00
N694   N     0.60365   0.22964   0.65191   0.00000  Uiso   1.00
N695   N     0.60638   0.10273   0.84810   0.00000  Uiso   1.00
N696   N     0.39362   0.23060   0.65190   0.00000  Uiso   1.00
O697   O     0.43988   0.20625   0.74999   0.00000  Uiso   1.00
O698   O     0.56012   0.12709   0.75001   0.00000  Uiso   1.00
O699   O     0.56012   0.20625   0.75000   0.00000  Uiso   1.00
O700   O     0.43988   0.12709   0.74999   0.00000  Uiso   1.00
O701   O     0.49999   0.20627   0.68513   0.00000  Uiso   1.00
O702   O     0.50001   0.12707   0.81487   0.00000  Uiso   1.00
O703   O     0.50001   0.20627   0.81487   0.00000  Uiso   1.00
O704   O     0.49999   0.12707   0.68513   0.00000  Uiso   1.00
C705   C     0.75419   0.16670   0.74982   0.00000  Uiso   1.00
C706   C     0.70954   0.16675   0.74992   0.00000  Uiso   1.00
C707   C     0.80852   0.02452   0.72143   0.00000  Uiso   1.00
C708   C     0.85814   0.30881   0.77857   0.00000  Uiso   1.00
C709   C     0.85815   0.02510   0.77856   0.00000  Uiso   1.00
C710   C     0.80852   0.30824   0.72144   0.00000  Uiso   1.00
C711   C     0.83454   0.16636   0.66437   0.00000  Uiso   1.00
C712   C     0.83213   0.16697   0.83562   0.00000  Uiso   1.00
C713   C     0.84828   0.12994   0.90651   0.00000  Uiso   1.00
C714   C     0.81839   0.20340   0.59349   0.00000  Uiso   1.00
C715   C     0.83064   0.16767   0.88404   0.00000  Uiso   1.00
C716   C     0.91248   0.16664   0.75018   0.00000  Uiso   1.00
C717   C     0.83603   0.16567   0.61596   0.00000  Uiso   1.00
C718   C     0.81240   0.20516   0.90790   0.00000  Uiso   1.00
C719   C     0.85427   0.12817   0.59210   0.00000  Uiso   1.00
C720   C     0.81375   0.20512   0.95456   0.00000  Uiso   1.00
C721   C     0.85292   0.12822   0.54544   0.00000  Uiso   1.00
C722   C     0.83250   0.16699   0.97672   0.00000  Uiso   1.00
C723   C     0.83417   0.16634   0.52328   0.00000  Uiso   1.00
C724   C     0.84950   0.12938   0.95242   0.00000  Uiso   1.00
C725   C     0.81717   0.20395   0.54758   0.00000  Uiso   1.00
C726   C     0.79697   0.24222   0.97976   0.00000  Uiso   1.00
C727   C     0.79876   0.24158   0.52570   0.00000  Uiso   1.00
C728   C     0.86970   0.09112   0.52024   0.00000  Uiso   1.00
C729   C     0.79109   0.24253   0.88474   0.00000  Uiso   1.00
C730   C     0.87557   0.09079   0.61525   0.00000  Uiso   1.00
C731   C     0.71147   0.12131   0.81965   0.00000  Uiso   1.00
C732   C     0.95520   0.21199   0.68034   0.00000  Uiso   1.00
C733   C     0.95702   0.12078   0.81965   0.00000  Uiso   1.00
C734   C     0.70965   0.21255   0.68035   0.00000  Uiso   1.00
C735   C     0.86792   0.09175   0.97430   0.00000  Uiso   1.00
C736   C     0.68864   0.14356   0.78396   0.00000  Uiso   1.00
C737   C     0.97802   0.18976   0.71604   0.00000  Uiso   1.00
C738   C     0.97887   0.14342   0.78400   0.00000  Uiso   1.00
C739   C     0.68780   0.18991   0.71600   0.00000  Uiso   1.00
C740   C     0.95713   0.16658   0.75008   0.00000  Uiso   1.00
Cu741  Cu    0.83333   0.21355   0.75000   0.00000  Uiso   1.00
Cu742  Cu    0.83333   0.11978   0.75000   0.00000  Uiso   1.00
H743   H     0.86181   0.10106   0.88808   0.00000  Uiso   1.00
H744   H     0.78864   0.28931   0.69856   0.00000  Uiso   1.00
H745   H     0.80486   0.23228   0.61192   0.00000  Uiso   1.00
H746   H     0.78248   0.27211   0.96426   0.00000  Uiso   1.00
H747   H     0.88418   0.06122   0.53574   0.00000  Uiso   1.00
H748   H     0.78560   0.27062   0.54419   0.00000  Uiso   1.00
H749   H     0.88108   0.06271   0.95581   0.00000  Uiso   1.00
H750   H     0.78865   0.04301   0.69855   0.00000  Uiso   1.00
H751   H     0.87801   0.29033   0.80145   0.00000  Uiso   1.00
H752   H     0.87803   0.04403   0.80144   0.00000  Uiso   1.00
N753   N     0.83333   0.28402   0.75000   0.00000  Uiso   1.00
N754   N     0.83333   0.04931   0.75000   0.00000  Uiso   1.00
N755   N     0.77409   0.27230   0.86630   0.00000  Uiso   1.00
N756   N     0.89256   0.06101   0.63370   0.00000  Uiso   1.00
N757   N     0.72969   0.10364   0.84806   0.00000  Uiso   1.00
N758   N     0.93698   0.22964   0.65191   0.00000  Uiso   1.00
N759   N     0.93971   0.10273   0.84810   0.00000  Uiso   1.00
N760   N     0.72695   0.23060   0.65190   0.00000  Uiso   1.00
O761   O     0.77321   0.20625   0.74999   0.00000  Uiso   1.00
O762   O     0.89345   0.12709   0.75001   0.00000  Uiso   1.00
O763   O     0.89345   0.20625   0.75000   0.00000  Uiso   1.00
O764   O     0.77321   0.12709   0.74999   0.00000  Uiso   1.00
O765   O     0.83332   0.20627   0.68513   0.00000  Uiso   1.00
O766   O     0.83334   0.12707   0.81487   0.00000  Uiso   1.00
O767   O     0.83334   0.20627   0.81487   0.00000  Uiso   1.00
O768   O     0.83332   0.12707   0.68513   0.00000  Uiso   1.00
C769   C     0.08753   0.50003   0.74982   0.00000  Uiso   1.00
C770   C     0.04287   0.50009   0.74992   0.00000  Uiso   1.00
C771   C     0.14186   0.35786   0.72143   0.00000  Uiso   1.00
C772   C     0.19148   0.64214   0.77857   0.00000  Uiso   1.00
C773   C     0.19148   0.35843   0.77856   0.00000  Uiso   1.00
C774   C     0.14185   0.64157   0.72144   0.00000  Uiso   1.00
C775   C     0.16787   0.49970   0.66437   0.00000  Uiso   1.00
C776   C     0.16546   0.50030   0.83562   0.00000  Uiso   1.00
C777   C     0.18161   0.46327   0.90651   0.00000  Uiso   1.00
C778   C     0.15172   0.53673   0.59349   0.00000  Uiso   1.00
C779   C     0.16398   0.50100   0.88404   0.00000  Uiso   1.00
C780   C     0.24581   0.49997   0.75018   0.00000  Uiso   1.00
C781   C     0.16936   0.49900   0.61596   0.00000  Uiso   1.00
C782   C     0.14573   0.53850   0.90790   0.00000  Uiso   1.00
C783   C     0.18760   0.46150   0.59210   0.00000  Uiso   1.00
C784   C     0.14708   0.53845   0.95456   0.00000  Uiso   1.00
C785   C     0.18626   0.46155   0.54544   0.00000  Uiso   1.00
C786   C     0.16583   0.50033   0.97672   0.00000  Uiso   1.00
C787   C     0.16750   0.49968   0.52328   0.00000  Uiso   1.00
C788   C     0.18284   0.46272   0.95242   0.00000  Uiso   1.00
C789   C     0.15050   0.53729   0.54758   0.00000  Uiso   1.00
C790   C     0.13030   0.57555   0.97976   0.00000  Uiso   1.00
C791   C     0.13209   0.57492   0.52570   0.00000  Uiso   1.00
C792   C     0.20303   0.42445   0.52024   0.00000  Uiso   1.00
C793   C     0.12442   0.57586   0.88474   0.00000  Uiso   1.00
C794   C     0.20890   0.42413   0.61525   0.00000  Uiso   1.00
C795   C     0.04480   0.45465   0.81965   0.00000  Uiso   1.00
C796   C     0.28853   0.54532   0.68034   0.00000  Uiso   1.00
C797   C     0.29035   0.45412   0.81965   0.00000  Uiso   1.00
C798   C     0.04298   0.54588   0.68035   0.00000  Uiso   1.00
C799   C     0.20125   0.42509   0.97430   0.00000  Uiso   1.00
C800   C     0.02198   0.47690   0.78396   0.00000  Uiso   1.00
C801   C     0.31136   0.52310   0.71604   0.00000  Uiso   1.00
C802   C     0.31220   0.47675   0.78400   0.00000  Uiso   1.00
C803   C     0.02113   0.52325   0.71600   0.00000  Uiso   1.00
C804   C     0.29046   0.49991   0.75008   0.00000  Uiso   1.00
Cu805  Cu    0.16667   0.54689   0.75000   0.00000  Uiso   1.00
Cu806  Cu    0.16667   0.45311   0.75000   0.00000  Uiso   1.00
H807   H     0.19515   0.43439   0.88808   0.00000  Uiso   1.00
H808   H     0.12197   0.62264   0.69856   0.00000  Uiso   1.00
H809   H     0.13819   0.56561   0.61192   0.00000  Uiso   1.00
H810   H     0.11582   0.60544   0.96426   0.00000  Uiso   1.00
H811   H     0.21752   0.39456   0.53574   0.00000  Uiso   1.00
H812   H     0.11893   0.60396   0.54419   0.00000  Uiso   1.00
H813   H     0.21441   0.39605   0.95581   0.00000  Uiso   1.00
H814   H     0.12199   0.37634   0.69855   0.00000  Uiso   1.00
H815   H     0.21135   0.62366   0.80145   0.00000  Uiso   1.00
H816   H     0.21136   0.37736   0.80144   0.00000  Uiso   1.00
N817   N     0.16667   0.61736   0.75000   0.00000  Uiso   1.00
N818   N     0.16667   0.38264   0.75000   0.00000  Uiso   1.00
N819   N     0.10742   0.60564   0.86630   0.00000  Uiso   1.00
N820   N     0.22590   0.39435   0.63370   0.00000  Uiso   1.00
N821   N     0.06302   0.43698   0.84806   0.00000  Uiso   1.00
N822   N     0.27031   0.56297   0.65191   0.00000  Uiso   1.00
N823   N     0.27305   0.43606   0.84810   0.00000  Uiso   1.00
N824   N     0.06029   0.56393   0.65190   0.00000  Uiso   1.00
O825   O     0.10655   0.53958   0.74999   0.00000  Uiso   1.00
O826   O     0.22679   0.46042   0.75001   0.00000  Uiso   1.00
O827   O     0.22679   0.53958   0.75000   0.00000  Uiso   1.00
O828   O     0.10655   0.46042   0.74999   0.00000  Uiso   1.00
O829   O     0.16666   0.53960   0.68513   0.00000  Uiso   1.00
O830   O     0.16668   0.46040   0.81487   0.00000  Uiso   1.00
O831   O     0.16668   0.53960   0.81487   0.00000  Uiso   1.00
O832   O     0.16666   0.46040   0.68513   0.00000  Uiso   1.00
C833   C     0.42086   0.50003   0.74982   0.00000  Uiso   1.00
C834   C     0.37620   0.50009   0.74992   0.00000  Uiso   1.00
C835   C     0.47519   0.35786   0.72143   0.00000  Uiso   1.00
C836   C     0.52481   0.64214   0.77857   0.00000  Uiso   1.00
C837   C     0.52482   0.35843   0.77856   0.00000  Uiso   1.00
C838   C     0.47518   0.64157   0.72144   0.00000  Uiso   1.00
C839   C     0.50120   0.49970   0.66437   0.00000  Uiso   1.00
C840   C     0.49880   0.50030   0.83562   0.00000  Uiso   1.00
C841   C     0.51495   0.46327   0.90651   0.00000  Uiso   1.00
C842   C     0.48506   0.53673   0.59349   0.00000  Uiso   1.00
C843   C     0.49731   0.50100   0.88404   0.00000  Uiso   1.00
C844   C     0.57914   0.49997   0.75018   0.00000  Uiso   1.00
C845   C     0.50269   0.49900   0.61596   0.00000  Uiso   1.00
C846   C     0.47906   0.53850   0.90790   0.00000  Uiso   1.00
C847   C     0.52094   0.46150   0.59210   0.00000  Uiso   1.00
C848   C     0.48041   0.53845   0.95456   0.00000  Uiso   1.00
C849   C     0.51959   0.46155   0.54544   0.00000  Uiso   1.00
C850   C     0.49917   0.50033   0.97672   0.00000  Uiso   1.00
C851   C     0.50084   0.49968   0.52328   0.00000  Uiso   1.00
C852   C     0.51617   0.46272   0.95242   0.00000  Uiso   1.00
C853   C     0.48384   0.53729   0.54758   0.00000  Uiso   1.00
C854   C     0.46363   0.57555   0.97976   0.00000  Uiso   1.00
C855   C     0.46542   0.57492   0.52570   0.00000  Uiso   1.00
C856   C     0.53637   0.42445   0.52024   0.00000  Uiso   1.00
C857   C     0.45776   0.57586   0.88474   0.00000  Uiso   1.00
C858   C     0.54223   0.42413   0.61525   0.00000  Uiso   1.00
C859   C     0.37814   0.45465   0.81965   0.00000  Uiso   1.00
C860   C     0.62186   0.54532   0.68034   0.00000  Uiso   1.00
C861   C     0.62369   0.45412   0.81965   0.00000  Uiso   1.00
C862   C     0.37632   0.54588   0.68035   0.00000  Uiso   1.00
C863   C     0.53458   0.42509   0.97430   0.00000  Uiso   1.00
C864   C     0.35531   0.47690   0.78396   0.00000  Uiso   1.00
C865   C     0.64469   0.52310   0.71604   0.00000  Uiso   1.00
C866   C     0.64554   0.47675   0.78400   0.00000  Uiso   1.00
C867   C     0.35446   0.52325   0.71600   0.00000  Uiso   1.00
C868   C     0.62380   0.49991   0.75008   0.00000  Uiso   1.00
Cu869  Cu    0.50000   0.54689   0.75000   0.00000  Uiso   1.00
Cu870  Cu    0.50000   0.45311   0.75000   0.00000  Uiso   1.00
H871   H     0.52848   0.43439   0.88808   0.00000  Uiso   1.00
H872   H     0.45531   0.62264   0.69856   0.00000  Uiso   1.00
H873   H     0.47152   0.56561   0.61192   0.00000  Uiso   1.00
H874   H     0.44915   0.60544   0.96426   0.00000  Uiso   1.00
H875   H     0.55085   0.39456   0.53574   0.00000  Uiso   1.00
H876   H     0.45226   0.60396   0.54419   0.00000  Uiso   1.00
H877   H     0.54774   0.39605   0.95581   0.00000  Uiso   1.00
H878   H     0.45532   0.37634   0.69855   0.00000  Uiso   1.00
H879   H     0.54468   0.62366   0.80145   0.00000  Uiso   1.00
H880   H     0.54469   0.37736   0.80144   0.00000  Uiso   1.00
N881   N     0.50000   0.61736   0.75000   0.00000  Uiso   1.00
N882   N     0.50000   0.38264   0.75000   0.00000  Uiso   1.00
N883   N     0.44075   0.60564   0.86630   0.00000  Uiso   1.00
N884   N     0.55923   0.39435   0.63370   0.00000  Uiso   1.00
N885   N     0.39635   0.43698   0.84806   0.00000  Uiso   1.00
N886   N     0.60365   0.56297   0.65191   0.00000  Uiso   1.00
N887   N     0.60638   0.43606   0.84810   0.00000  Uiso   1.00
N888   N     0.39362   0.56393   0.65190   0.00000  Uiso   1.00
O889   O     0.43988   0.53958   0.74999   0.00000  Uiso   1.00
O890   O     0.56012   0.46042   0.75001   0.00000  Uiso   1.00
O891   O     0.56012   0.53958   0.75000   0.00000  Uiso   1.00
O892   O     0.43988   0.46042   0.74999   0.00000  Uiso   1.00
O893   O     0.49999   0.53960   0.68513   0.00000  Uiso   1.00
O894   O     0.50001   0.46040   0.81487   0.00000  Uiso   1.00
O895   O     0.50001   0.53960   0.81487   0.00000  Uiso   1.00
O896   O     0.49999   0.46040   0.68513   0.00000  Uiso   1.00
C897   C     0.75419   0.50003   0.74982   0.00000  Uiso   1.00
C898   C     0.70954   0.50009   0.74992   0.00000  Uiso   1.00
C899   C     0.80852   0.35786   0.72143   0.00000  Uiso   1.00
C900   C     0.85814   0.64214   0.77857   0.00000  Uiso   1.00
C901   C     0.85815   0.35843   0.77856   0.00000  Uiso   1.00
C902   C     0.80852   0.64157   0.72144   0.00000  Uiso   1.00
C903   C     0.83454   0.49970   0.66437   0.00000  Uiso   1.00
C904   C     0.83213   0.50030   0.83562   0.00000  Uiso   1.00
C905   C     0.84828   0.46327   0.90651   0.00000  Uiso   1.00
C906   C     0.81839   0.53673   0.59349   0.00000  Uiso   1.00
C907   C     0.83064   0.50100   0.88404   0.00000  Uiso   1.00
C908   C     0.91248   0.49997   0.75018   0.00000  Uiso   1.00
C909   C     0.83603   0.49900   0.61596   0.00000  Uiso   1.00
C910   C     0.81240   0.53850   0.90790   0.00000  Uiso   1.00
C911   C     0.85427   0.46150   0.59210   0.00000  Uiso   1.00
C912   C     0.81375   0.53845   0.95456   0.00000  Uiso   1.00
C913   C     0.85292   0.46155   0.54544   0.00000  Uiso   1.00
C914   C     0.83250   0.50033   0.97672   0.00000  Uiso   1.00
C915   C     0.83417   0.49968   0.52328   0.00000  Uiso   1.00
C916   C     0.84950   0.46272   0.95242   0.00000  Uiso   1.00
C917   C     0.81717   0.53729   0.54758   0.00000  Uiso   1.00
C918   C     0.79697   0.57555   0.97976   0.00000  Uiso   1.00
C919   C     0.79876   0.57492   0.52570   0.00000  Uiso   1.00
C920   C     0.86970   0.42445   0.52024   0.00000  Uiso   1.00
C921   C     0.79109   0.57586   0.88474   0.00000  Uiso   1.00
C922   C     0.87557   0.42413   0.61525   0.00000  Uiso   1.00
C923   C     0.71147   0.45465   0.81965   0.00000  Uiso   1.00
C924   C     0.95520   0.54532   0.68034   0.00000  Uiso   1.00
C925   C     0.95702   0.45412   0.81965   0.00000  Uiso   1.00
C926   C     0.70965   0.54588   0.68035   0.00000  Uiso   1.00
C927   C     0.86792   0.42509   0.97430   0.00000  Uiso   1.00
C928   C     0.68864   0.47690   0.78396   0.00000  Uiso   1.00
C929   C     0.97802   0.52310   0.71604   0.00000  Uiso   1.00
C930   C     0.97887   0.47675   0.78400   0.00000  Uiso   1.00
C931   C     0.68780   0.52325   0.71600   0.00000  Uiso   1.00
C932   C     0.95713   0.49991   0.75008   0.00000  Uiso   1.00
Cu933  Cu    0.83333   0.54689   0.75000   0.00000  Uiso   1.00
Cu934  Cu    0.83333   0.45311   0.75000   0.00000  Uiso   1.00
H935   H     0.86181   0.43439   0.88808   0.00000  Uiso   1.00
H936   H     0.78864   0.62264   0.69856   0.00000  Uiso   1.00
H937   H     0.80486   0.56561   0.61192   0.00000  Uiso   1.00
H938   H     0.78248   0.60544   0.96426   0.00000  Uiso   1.00
H939   H     0.88418   0.39456   0.53574   0.00000  Uiso   1.00
H940   H     0.78560   0.60396   0.54419   0.00000  Uiso   1.00
H941   H     0.88108   0.39605   0.95581   0.00000  Uiso   1.00
H942   H     0.78865   0.37634   0.69855   0.00000  Uiso   1.00
H943   H     0.87801   0.62366   0.80145   0.00000  Uiso   1.00
H944   H     0.87803   0.37736   0.80144   0.00000  Uiso   1.00
N945   N     0.83333   0.61736   0.75000   0.00000  Uiso   1.00
N946   N     0.83333   0.38264   0.75000   0.00000  Uiso   1.00
N947   N     0.77409   0.60564   0.86630   0.00000  Uiso   1.00
N948   N     0.89256   0.39435   0.63370   0.00000  Uiso   1.00
N949   N     0.72969   0.43698   0.84806   0.00000  Uiso   1.00
N950   N     0.93698   0.56297   0.65191   0.00000  Uiso   1.00
N951   N     0.93971   0.43606   0.84810   0.00000  Uiso   1.00
N952   N     0.72695   0.56393   0.65190   0.00000  Uiso   1.00
O953   O     0.77321   0.53958   0.74999   0.00000  Uiso   1.00
O954   O     0.89345   0.46042   0.75001   0.00000  Uiso   1.00
O955   O     0.89345   0.53958   0.75000   0.00000  Uiso   1.00
O956   O     0.77321   0.46042   0.74999   0.00000  Uiso   1.00
O957   O     0.83332   0.53960   0.68513   0.00000  Uiso   1.00
O958   O     0.83334   0.46040   0.81487   0.00000  Uiso   1.00
O959   O     0.83334   0.53960   0.81487   0.00000  Uiso   1.00
O960   O     0.83332   0.46040   0.68513   0.00000  Uiso   1.00
C961   C     0.08753   0.83336   0.74982   0.00000  Uiso   1.00
C962   C     0.04287   0.83342   0.74992   0.00000  Uiso   1.00
C963   C     0.14186   0.69119   0.72143   0.00000  Uiso   1.00
C964   C     0.19148   0.97548   0.77857   0.00000  Uiso   1.00
C965   C     0.19148   0.69176   0.77856   0.00000  Uiso   1.00
C966   C     0.14185   0.97491   0.72144   0.00000  Uiso   1.00
C967   C     0.16787   0.83303   0.66437   0.00000  Uiso   1.00
C968   C     0.16546   0.83364   0.83562   0.00000  Uiso   1.00
C969   C     0.18161   0.79661   0.90651   0.00000  Uiso   1.00
C970   C     0.15172   0.87006   0.59349   0.00000  Uiso   1.00
C971   C     0.16398   0.83433   0.88404   0.00000  Uiso   1.00
C972   C     0.24581   0.83330   0.75018   0.00000  Uiso   1.00
C973   C     0.16936   0.83233   0.61596   0.00000  Uiso   1.00
C974   C     0.14573   0.87183   0.90790   0.00000  Uiso   1.00
C975   C     0.18760   0.79483   0.59210   0.00000  Uiso   1.00
C976   C     0.14708   0.87178   0.95456   0.00000  Uiso   1.00
C977   C     0.18626   0.79488   0.54544   0.00000  Uiso   1.00
C978   C     0.16583   0.83366   0.97672   0.00000  Uiso   1.00
C979   C     0.16750   0.83301   0.52328   0.00000  Uiso   1.00
C980   C     0.18284   0.79605   0.95242   0.00000  Uiso   1.00
C981   C     0.15050   0.87062   0.54758   0.00000  Uiso   1.00
C982   C     0.13030   0.90888   0.97976   0.00000  Uiso   1.00
C983   C     0.13209   0.90825   0.52570   0.00000  Uiso   1.00
C984   C     0.20303   0.75779   0.52024   0.00000  Uiso   1.00
C985   C     0.12442   0.90920   0.88474   0.00000  Uiso   1.00
C986   C     0.20890   0.75746   0.61525   0.00000  Uiso   1.00
C987   C     0.04480   0.78798   0.81965   0.00000  Uiso   1.00
C988   C     0.28853   0.87866   0.68034   0.00000  Uiso   1.00
C989   C     0.29035   0.78745   0.81965   0.00000  Uiso   1.00
C990   C     0.04298   0.87922   0.68035   0.00000  Uiso   1.00
C991   C     0.20125   0.75842   0.97430   0.00000  Uiso   1.00
C992   C     0.02198   0.81023   0.78396   0.00000  Uiso   1.00
C993   C     0.31136   0.85643   0.71604   0.00000  Uiso   1.00
C994   C     0.31220   0.81009   0.78400   0.00000  Uiso   1.00
C995   C     0.02113   0.85658   0.71600   0.00000  Uiso   1.00
C996   C     0.29046   0.83325   0.75008   0.00000  Uiso   1.00
Cu997  Cu    0.16667   0.88022   0.75000   0.00000  Uiso   1.00
Cu998  Cu    0.16667   0.78645   0.75000   0.00000  Uiso   1.00
H999   H     0.19515   0.76772   0.88808   0.00000  Uiso   1.00
H1000  H     0.12197   0.95597   0.69856   0.00000  Uiso   1.00
H1001  H     0.13819   0.89895   0.61192   0.00000  Uiso   1.00
H1002  H     0.11582   0.93878   0.96426   0.00000  Uiso   1.00
H1003  H     0.21752   0.72789   0.53574   0.00000  Uiso   1.00
H1004  H     0.11893   0.93729   0.54419   0.00000  Uiso   1.00
H1005  H     0.21441   0.72938   0.95581   0.00000  Uiso   1.00
H1006  H     0.12199   0.70967   0.69855   0.00000  Uiso   1.00
H1007  H     0.21135   0.95699   0.80145   0.00000  Uiso   1.00
H1008  H     0.21136   0.71069   0.80144   0.00000  Uiso   1.00
N1009  N     0.16667   0.95069   0.75000   0.00000  Uiso   1.00
N1010  N     0.16667   0.71598   0.75000   0.00000  Uiso   1.00
N1011  N     0.10742   0.93897   0.86630   0.00000  Uiso   1.00
N1012  N     0.22590   0.72768   0.63370   0.00000  Uiso   1.00
N1013  N     0.06302   0.77031   0.84806   0.00000  Uiso   1.00
N1014  N     0.27031   0.89630   0.65191   0.00000  Uiso   1.00
N1015  N     0.27305   0.76940   0.84810   0.00000  Uiso   1.00
N1016  N     0.06029   0.89727   0.65190   0.00000  Uiso   1.00
O1017  O     0.10655   0.87291   0.74999   0.00000  Uiso   1.00
O1018  O     0.22679   0.79375   0.75001   0.00000  Uiso   1.00
O1019  O     0.22679   0.87291   0.75000   0.00000  Uiso   1.00
O1020  O     0.10655   0.79375   0.74999   0.00000  Uiso   1.00
O1021  O     0.16666   0.87293   0.68513   0.00000  Uiso   1.00
O1022  O     0.16668   0.79373   0.81487   0.00000  Uiso   1.00
O1023  O     0.16668   0.87293   0.81487   0.00000  Uiso   1.00
O1024  O     0.16666   0.79373   0.68513   0.00000  Uiso   1.00
C1025  C     0.42086   0.83336   0.74982   0.00000  Uiso   1.00
C1026  C     0.37620   0.83342   0.74992   0.00000  Uiso   1.00
C1027  C     0.47519   0.69119   0.72143   0.00000  Uiso   1.00
C1028  C     0.52481   0.97548   0.77857   0.00000  Uiso   1.00
C1029  C     0.52482   0.69176   0.77856   0.00000  Uiso   1.00
C1030  C     0.47518   0.97491   0.72144   0.00000  Uiso   1.00
C1031  C     0.50120   0.83303   0.66437   0.00000  Uiso   1.00
C1032  C     0.49880   0.83364   0.83562   0.00000  Uiso   1.00
C1033  C     0.51495   0.79661   0.90651   0.00000  Uiso   1.00
C1034  C     0.48506   0.87006   0.59349   0.00000  Uiso   1.00
C1035  C     0.49731   0.83433   0.88404   0.00000  Uiso   1.00
C1036  C     0.57914   0.83330   0.75018   0.00000  Uiso   1.00
C1037  C     0.50269   0.83233   0.61596   0.00000  Uiso   1.00
C1038  C     0.47906   0.87183   0.90790   0.00000  Uiso   1.00
C1039  C     0.52094   0.79483   0.59210   0.00000  Uiso   1.00
C1040  C     0.48041   0.87178   0.95456   0.00000  Uiso   1.00
C1041  C     0.51959   0.79488   0.54544   0.00000  Uiso   1.00
C1042  C     0.49917   0.83366   0.97672   0.00000  Uiso   1.00
C1043  C     0.50084   0.83301   0.52328   0.00000  Uiso   1.00
C1044  C     0.51617   0.79605   0.95242   0.00000  Uiso   1.00
C1045  C     0.48384   0.87062   0.54758   0.00000  Uiso   1.00
C1046  C     0.46363   0.90888   0.97976   0.00000  Uiso   1.00
C1047  C     0.46542   0.90825   0.52570   0.00000  Uiso   1.00
C1048  C     0.53637   0.75779   0.52024   0.00000  Uiso   1.00
C1049  C     0.45776   0.90920   0.88474   0.00000  Uiso   1.00
C1050  C     0.54223   0.75746   0.61525   0.00000  Uiso   1.00
C1051  C     0.37814   0.78798   0.81965   0.00000  Uiso   1.00
C1052  C     0.62186   0.87866   0.68034   0.00000  Uiso   1.00
C1053  C     0.62369   0.78745   0.81965   0.00000  Uiso   1.00
C1054  C     0.37632   0.87922   0.68035   0.00000  Uiso   1.00
C1055  C     0.53458   0.75842   0.97430   0.00000  Uiso   1.00
C1056  C     0.35531   0.81023   0.78396   0.00000  Uiso   1.00
C1057  C     0.64469   0.85643   0.71604   0.00000  Uiso   1.00
C1058  C     0.64554   0.81009   0.78400   0.00000  Uiso   1.00
C1059  C     0.35446   0.85658   0.71600   0.00000  Uiso   1.00
C1060  C     0.62380   0.83325   0.75008   0.00000  Uiso   1.00
Cu1061 Cu    0.50000   0.88022   0.75000   0.00000  Uiso   1.00
Cu1062 Cu    0.50000   0.78645   0.75000   0.00000  Uiso   1.00
H1063  H     0.52848   0.76772   0.88808   0.00000  Uiso   1.00
H1064  H     0.45531   0.95597   0.69856   0.00000  Uiso   1.00
H1065  H     0.47152   0.89895   0.61192   0.00000  Uiso   1.00
H1066  H     0.44915   0.93878   0.96426   0.00000  Uiso   1.00
H1067  H     0.55085   0.72789   0.53574   0.00000  Uiso   1.00
H1068  H     0.45226   0.93729   0.54419   0.00000  Uiso   1.00
H1069  H     0.54774   0.72938   0.95581   0.00000  Uiso   1.00
H1070  H     0.45532   0.70967   0.69855   0.00000  Uiso   1.00
H1071  H     0.54468   0.95699   0.80145   0.00000  Uiso   1.00
H1072  H     0.54469   0.71069   0.80144   0.00000  Uiso   1.00
N1073  N     0.50000   0.95069   0.75000   0.00000  Uiso   1.00
N1074  N     0.50000   0.71598   0.75000   0.00000  Uiso   1.00
N1075  N     0.44075   0.93897   0.86630   0.00000  Uiso   1.00
N1076  N     0.55923   0.72768   0.63370   0.00000  Uiso   1.00
N1077  N     0.39635   0.77031   0.84806   0.00000  Uiso   1.00
N1078  N     0.60365   0.89630   0.65191   0.00000  Uiso   1.00
N1079  N     0.60638   0.76940   0.84810   0.00000  Uiso   1.00
N1080  N     0.39362   0.89727   0.65190   0.00000  Uiso   1.00
O1081  O     0.43988   0.87291   0.74999   0.00000  Uiso   1.00
O1082  O     0.56012   0.79375   0.75001   0.00000  Uiso   1.00
O1083  O     0.56012   0.87291   0.75000   0.00000  Uiso   1.00
O1084  O     0.43988   0.79375   0.74999   0.00000  Uiso   1.00
O1085  O     0.49999   0.87293   0.68513   0.00000  Uiso   1.00
O1086  O     0.50001   0.79373   0.81487   0.00000  Uiso   1.00
O1087  O     0.50001   0.87293   0.81487   0.00000  Uiso   1.00
O1088  O     0.49999   0.79373   0.68513   0.00000  Uiso   1.00
C1089  C     0.75419   0.83336   0.74982   0.00000  Uiso   1.00
C1090  C     0.70954   0.83342   0.74992   0.00000  Uiso   1.00
C1091  C     0.80852   0.69119   0.72143   0.00000  Uiso   1.00
C1092  C     0.85814   0.97548   0.77857   0.00000  Uiso   1.00
C1093  C     0.85815   0.69176   0.77856   0.00000  Uiso   1.00
C1094  C     0.80852   0.97491   0.72144   0.00000  Uiso   1.00
C1095  C     0.83454   0.83303   0.66437   0.00000  Uiso   1.00
C1096  C     0.83213   0.83364   0.83562   0.00000  Uiso   1.00
C1097  C     0.84828   0.79661   0.90651   0.00000  Uiso   1.00
C1098  C     0.81839   0.87006   0.59349   0.00000  Uiso   1.00
C1099  C     0.83064   0.83433   0.88404   0.00000  Uiso   1.00
C1100  C     0.91248   0.83330   0.75018   0.00000  Uiso   1.00
C1101  C     0.83603   0.83233   0.61596   0.00000  Uiso   1.00
C1102  C     0.81240   0.87183   0.90790   0.00000  Uiso   1.00
C1103  C     0.85427   0.79483   0.59210   0.00000  Uiso   1.00
C1104  C     0.81375   0.87178   0.95456   0.00000  Uiso   1.00
C1105  C     0.85292   0.79488   0.54544   0.00000  Uiso   1.00
C1106  C     0.83250   0.83366   0.97672   0.00000  Uiso   1.00
C1107  C     0.83417   0.83301   0.52328   0.00000  Uiso   1.00
C1108  C     0.84950   0.79605   0.95242   0.00000  Uiso   1.00
C1109  C     0.81717   0.87062   0.54758   0.00000  Uiso   1.00
C1110  C     0.79697   0.90888   0.97976   0.00000  Uiso   1.00
C1111  C     0.79876   0.90825   0.52570   0.00000  Uiso   1.00
C1112  C     0.86970   0.75779   0.52024   0.00000  Uiso   1.00
C1113  C     0.79109   0.90920   0.88474   0.00000  Uiso   1.00
C1114  C     0.87557   0.75746   0.61525   0.00000  Uiso   1.00
C1115  C     0.71147   0.78798   0.81965   0.00000  Uiso   1.00
C1116  C     0.95520   0.87866   0.68034   0.00000  Uiso   1.00
C1117  C     0.95702   0.78745   0.81965   0.00000  Uiso   1.00
C1118  C     0.70965   0.87922   0.68035   0.00000  Uiso   1.00
C1119  C     0.86792   0.75842   0.97430   0.00000  Uiso   1.00
C1120  C     0.68864   0.81023   0.78396   0.00000  Uiso   1.00
C1121  C     0.97802   0.85643   0.71604   0.00000  Uiso   1.00
C1122  C     0.97887   0.81009   0.78400   0.00000  Uiso   1.00
C1123  C     0.68780   0.85658   0.71600   0.00000  Uiso   1.00
C1124  C     0.95713   0.83325   0.75008   0.00000  Uiso   1.00
Cu1125 Cu    0.83333   0.88022   0.75000   0.00000  Uiso   1.00
Cu1126 Cu    0.83333   0.78645   0.75000   0.00000  Uiso   1.00
H1127  H     0.86181   0.76772   0.88808   0.00000  Uiso   1.00
H1128  H     0.78864   0.95597   0.69856   0.00000  Uiso   1.00
H1129  H     0.80486   0.89895   0.61192   0.00000  Uiso   1.00
H1130  H     0.78248   0.93878   0.96426   0.00000  Uiso   1.00
H1131  H     0.88418   0.72789   0.53574   0.00000  Uiso   1.00
H1132  H     0.78560   0.93729   0.54419   0.00000  Uiso   1.00
H1133  H     0.88108   0.72938   0.95581   0.00000  Uiso   1.00
H1134  H     0.78865   0.70967   0.69855   0.00000  Uiso   1.00
H1135  H     0.87801   0.95699   0.80145   0.00000  Uiso   1.00
H1136  H     0.87803   0.71069   0.80144   0.00000  Uiso   1.00
N1137  N     0.83333   0.95069   0.75000   0.00000  Uiso   1.00
N1138  N     0.83333   0.71598   0.75000   0.00000  Uiso   1.00
N1139  N     0.77409   0.93897   0.86630   0.00000  Uiso   1.00
N1140  N     0.89256   0.72768   0.63370   0.00000  Uiso   1.00
N1141  N     0.72969   0.77031   0.84806   0.00000  Uiso   1.00
N1142  N     0.93698   0.89630   0.65191   0.00000  Uiso   1.00
N1143  N     0.93971   0.76940   0.84810   0.00000  Uiso   1.00
N1144  N     0.72695   0.89727   0.65190   0.00000  Uiso   1.00
O1145  O     0.77321   0.87291   0.74999   0.00000  Uiso   1.00
O1146  O     0.89345   0.79375   0.75001   0.00000  Uiso   1.00
O1147  O     0.89345   0.87291   0.75000   0.00000  Uiso   1.00
O1148  O     0.77321   0.79375   0.74999   0.00000  Uiso   1.00
O1149  O     0.83332   0.87293   0.68513   0.00000  Uiso   1.00
O1150  O     0.83334   0.79373   0.81487   0.00000  Uiso   1.00
O1151  O     0.83334   0.87293   0.81487   0.00000  Uiso   1.00
O1152  O     0.83332   0.79373   0.68513   0.00000  Uiso   1.00
loop_
_geom_bond_atom_site_label_1
_geom_bond_atom_site_label_2
_geom_bond_distance
_geom_bond_site_symmetry_2
_ccdc_geom_bond_type
C1     O57     1.287   .     A
C1     C2      1.448   .     S
C1     O60     1.287   .     A
C2     C35     1.409   .     A
C2     C32     1.408   .     A
C3     N50     1.367   .     A
C3     H46     1.082   .     S
C3     C390    1.416   1_545 S
C4     N49     1.367   .     A
C4     H47     1.082   .     S
C4     C197    1.416   .     S
C5     N50     1.367   .     A
C5     H48     1.081   .     S
C5     C388    1.416   1_545 S
C6     N49     1.367   .     A
C6     H40     1.081   .     S
C6     C195    1.416   .     S
C7     O64     1.292   .     A
C7     C13     1.464   .     S
C7     O61     1.295   .     A
C8     C11     1.464   .     S
C8     O63     1.292   .     A
C8     O62     1.295   .     A
C9     C20     1.388   .     A
C9     H39     1.085   .     S
C9     C11     1.398   .     A
C10    H41     1.085   .     S
C10    C21     1.388   .     A
C10    C13     1.398   .     A
C11    C14     1.416   .     A
C12    C36     1.448   .     S
C12    O58     1.287   .     A
C12    O59     1.287   .     A
C13    C15     1.416   .     A
C14    C25     1.453   .     S
C14    C16     1.410   .     A
C15    C17     1.410   .     A
C15    C26     1.453   .     S
C16    C18     1.417   .     A
C16    C22     1.410   .     A
C17    C24     1.410   .     A
C17    C19     1.417   .     A
C18    C20     1.409   .     A
C18    C595    1.408   .     S
C19    C21     1.409   .     A
C19    C594    1.408   1_554 S
C20    C31     1.398   .     A
C21    C23     1.398   .     A
C22    H42     1.082   .     S
C22    C599    1.390   .     S
C23    H44     1.084   .     S
C23    C598    1.390   1_554 S
C24    H43     1.082   .     S
C24    C607    1.390   1_554 S
C25    N51     1.158   .     T
C26    N52     1.158   .     T
C27    N53     1.157   .     T
C27    C32     1.454   .     S
C28    C33     1.454   .     S
C28    N54     1.157   .     T
C29    C34     1.452   .     S
C29    N55     1.157   .     T
C30    N56     1.157   .     T
C30    C35     1.452   .     S
C31    H45     1.084   .     S
C31    C600    1.390   .     S
C32    C162    1.397   1_455 S
C33    C36     1.408   .     A
C33    C99     1.397   .     S
C34    C36     1.409   .     A
C34    C96     1.397   .     S
C35    C161    1.397   1_455 S
Cu37   O61     1.969   .     S
Cu37   O57     1.960   .     S
Cu37   Cu38    2.677   .     S
Cu37   N49     2.012   .     S
Cu37   O59     1.960   .     S
Cu37   O63     1.974   .     S
Cu38   N50     2.012   .     S
Cu38   O62     1.969   .     S
Cu38   O60     1.960   .     S
Cu38   O64     1.974   .     S
Cu38   O58     1.960   .     S
C65    O121    1.287   .     A
C65    C66     1.448   .     S
C65    O124    1.287   .     A
C66    C99     1.409   .     A
C66    C96     1.408   .     A
C67    N114    1.367   .     A
C67    H110    1.082   .     S
C67    C454    1.416   1_545 S
C68    N113    1.367   .     A
C68    H111    1.082   .     S
C68    C261    1.416   .     S
C69    N114    1.367   .     A
C69    H112    1.081   .     S
C69    C452    1.416   1_545 S
C70    N113    1.367   .     A
C70    H104    1.081   .     S
C70    C259    1.416   .     S
C71    O128    1.292   .     A
C71    C77     1.464   .     S
C71    O125    1.295   .     A
C72    C75     1.464   .     S
C72    O127    1.292   .     A
C72    O126    1.295   .     A
C73    C84     1.388   .     A
C73    H103    1.085   .     S
C73    C75     1.398   .     A
C74    H105    1.085   .     S
C74    C85     1.388   .     A
C74    C77     1.398   .     A
C75    C78     1.416   .     A
C76    C100    1.448   .     S
C76    O122    1.287   .     A
C76    O123    1.287   .     A
C77    C79     1.416   .     A
C78    C89     1.453   .     S
C78    C80     1.410   .     A
C79    C81     1.410   .     A
C79    C90     1.453   .     S
C80    C82     1.417   .     A
C80    C86     1.410   .     A
C81    C88     1.410   .     A
C81    C83     1.417   .     A
C82    C84     1.409   .     A
C82    C659    1.408   .     S
C83    C85     1.409   .     A
C83    C658    1.408   1_554 S
C84    C95     1.398   .     A
C85    C87     1.398   .     A
C86    H106    1.082   .     S
C86    C663    1.390   .     S
C87    H108    1.084   .     S
C87    C662    1.390   1_554 S
C88    H107    1.082   .     S
C88    C671    1.390   1_554 S
C89    N115    1.158   .     T
C90    N116    1.158   .     T
C91    N117    1.157   .     T
C91    C96     1.454   .     S
C92    C97     1.454   .     S
C92    N118    1.157   .     T
C93    C98     1.452   .     S
C93    N119    1.157   .     T
C94    N120    1.157   .     T
C94    C99     1.452   .     S
C95    H109    1.084   .     S
C95    C664    1.390   .     S
C97    C100    1.408   .     A
C97    C163    1.397   .     S
C98    C100    1.409   .     A
C98    C160    1.397   .     S
Cu101  O125    1.969   .     S
Cu101  O121    1.960   .     S
Cu101  Cu102   2.677   .     S
Cu101  N113    2.012   .     S
Cu101  O123    1.960   .     S
Cu101  O127    1.974   .     S
Cu102  N114    2.012   .     S
Cu102  O126    1.969   .     S
Cu102  O124    1.960   .     S
Cu102  O128    1.974   .     S
Cu102  O122    1.960   .     S
C129   O185    1.287   .     A
C129   C130    1.448   .     S
C129   O188    1.287   .     A
C130   C163    1.409   .     A
C130   C160    1.408   .     A
C131   N178    1.367   .     A
C131   H174    1.082   .     S
C131   C518    1.416   1_545 S
C132   N177    1.367   .     A
C132   H175    1.082   .     S
C132   C325    1.416   .     S
C133   N178    1.367   .     A
C133   H176    1.081   .     S
C133   C516    1.416   1_545 S
C134   N177    1.367   .     A
C134   H168    1.081   .     S
C134   C323    1.416   .     S
C135   O192    1.292   .     A
C135   C141    1.464   .     S
C135   O189    1.295   .     A
C136   C139    1.464   .     S
C136   O191    1.292   .     A
C136   O190    1.295   .     A
C137   C148    1.388   .     A
C137   H167    1.085   .     S
C137   C139    1.398   .     A
C138   H169    1.085   .     S
C138   C149    1.388   .     A
C138   C141    1.398   .     A
C139   C142    1.416   .     A
C140   C164    1.448   .     S
C140   O186    1.287   .     A
C140   O187    1.287   .     A
C141   C143    1.416   .     A
C142   C153    1.453   .     S
C142   C144    1.410   .     A
C143   C145    1.410   .     A
C143   C154    1.453   .     S
C144   C146    1.417   .     A
C144   C150    1.410   .     A
C145   C152    1.410   .     A
C145   C147    1.417   .     A
C146   C148    1.409   .     A
C146   C723    1.408   .     S
C147   C149    1.409   .     A
C147   C722    1.408   1_554 S
C148   C159    1.398   .     A
C149   C151    1.398   .     A
C150   H170    1.082   .     S
C150   C727    1.390   .     S
C151   H172    1.084   .     S
C151   C726    1.390   1_554 S
C152   H171    1.082   .     S
C152   C735    1.390   1_554 S
C153   N179    1.158   .     T
C154   N180    1.158   .     T
C155   N181    1.157   .     T
C155   C160    1.454   .     S
C156   C161    1.454   .     S
C156   N182    1.157   .     T
C157   C162    1.452   .     S
C157   N183    1.157   .     T
C158   N184    1.157   .     T
C158   C163    1.452   .     S
C159   H173    1.084   .     S
C159   C728    1.390   .     S
C161   C164    1.408   .     A
C161   C35     1.397   1_655 S
C162   C164    1.409   .     A
C162   C32     1.397   1_655 S
Cu165  O189    1.969   .     S
Cu165  O185    1.960   .     S
Cu165  Cu166   2.677   .     S
Cu165  N177    2.012   .     S
Cu165  O187    1.960   .     S
Cu165  O191    1.974   .     S
Cu166  N178    2.012   .     S
Cu166  O190    1.969   .     S
Cu166  O188    1.960   .     S
Cu166  O192    1.974   .     S
Cu166  O186    1.960   .     S
C193   O249    1.287   .     A
C193   C194    1.448   .     S
C193   O252    1.287   .     A
C194   C227    1.409   .     A
C194   C224    1.408   .     A
C195   N242    1.367   .     A
C195   H238    1.082   .     S
C196   N241    1.367   .     A
C196   H239    1.082   .     S
C196   C389    1.416   .     S
C197   N242    1.367   .     A
C197   H240    1.081   .     S
C198   N241    1.367   .     A
C198   H232    1.081   .     S
C198   C387    1.416   .     S
C199   O256    1.292   .     A
C199   C205    1.464   .     S
C199   O253    1.295   .     A
C200   C203    1.464   .     S
C200   O255    1.292   .     A
C200   O254    1.295   .     A
C201   C212    1.388   .     A
C201   H231    1.085   .     S
C201   C203    1.398   .     A
C202   H233    1.085   .     S
C202   C213    1.388   .     A
C202   C205    1.398   .     A
C203   C206    1.416   .     A
C204   C228    1.448   .     S
C204   O250    1.287   .     A
C204   O251    1.287   .     A
C205   C207    1.416   .     A
C206   C217    1.453   .     S
C206   C208    1.410   .     A
C207   C209    1.410   .     A
C207   C218    1.453   .     S
C208   C210    1.417   .     A
C208   C214    1.410   .     A
C209   C216    1.410   .     A
C209   C211    1.417   .     A
C210   C212    1.409   .     A
C210   C787    1.408   .     S
C211   C213    1.409   .     A
C211   C786    1.408   1_554 S
C212   C223    1.398   .     A
C213   C215    1.398   .     A
C214   H234    1.082   .     S
C214   C791    1.390   .     S
C215   H236    1.084   .     S
C215   C790    1.390   1_554 S
C216   H235    1.082   .     S
C216   C799    1.390   1_554 S
C217   N243    1.158   .     T
C218   N244    1.158   .     T
C219   N245    1.157   .     T
C219   C224    1.454   .     S
C220   C225    1.454   .     S
C220   N246    1.157   .     T
C221   C226    1.452   .     S
C221   N247    1.157   .     T
C222   N248    1.157   .     T
C222   C227    1.452   .     S
C223   H237    1.084   .     S
C223   C792    1.390   .     S
C224   C354    1.397   1_455 S
C225   C228    1.408   .     A
C225   C291    1.397   .     S
C226   C228    1.409   .     A
C226   C288    1.397   .     S
C227   C353    1.397   1_455 S
Cu229  O253    1.969   .     S
Cu229  O249    1.960   .     S
Cu229  Cu230   2.677   .     S
Cu229  N241    2.012   .     S
Cu229  O251    1.960   .     S
Cu229  O255    1.974   .     S
Cu230  N242    2.012   .     S
Cu230  O254    1.969   .     S
Cu230  O252    1.960   .     S
Cu230  O256    1.974   .     S
Cu230  O250    1.960   .     S
C257   O313    1.287   .     A
C257   C258    1.448   .     S
C257   O316    1.287   .     A
C258   C291    1.409   .     A
C258   C288    1.408   .     A
C259   N306    1.367   .     A
C259   H302    1.082   .     S
C260   N305    1.367   .     A
C260   H303    1.082   .     S
C260   C453    1.416   .     S
C261   N306    1.367   .     A
C261   H304    1.081   .     S
C262   N305    1.367   .     A
C262   H296    1.081   .     S
C262   C451    1.416   .     S
C263   O320    1.292   .     A
C263   C269    1.464   .     S
C263   O317    1.295   .     A
C264   C267    1.464   .     S
C264   O319    1.292   .     A
C264   O318    1.295   .     A
C265   C276    1.388   .     A
C265   H295    1.085   .     S
C265   C267    1.398   .     A
C266   H297    1.085   .     S
C266   C277    1.388   .     A
C266   C269    1.398   .     A
C267   C270    1.416   .     A
C268   C292    1.448   .     S
C268   O314    1.287   .     A
C268   O315    1.287   .     A
C269   C271    1.416   .     A
C270   C281    1.453   .     S
C270   C272    1.410   .     A
C271   C273    1.410   .     A
C271   C282    1.453   .     S
C272   C274    1.417   .     A
C272   C278    1.410   .     A
C273   C280    1.410   .     A
C273   C275    1.417   .     A
C274   C276    1.409   .     A
C274   C851    1.408   .     S
C275   C277    1.409   .     A
C275   C850    1.408   1_554 S
C276   C287    1.398   .     A
C277   C279    1.398   .     A
C278   H298    1.082   .     S
C278   C855    1.390   .     S
C279   H300    1.084   .     S
C279   C854    1.390   1_554 S
C280   H299    1.082   .     S
C280   C863    1.390   1_554 S
C281   N307    1.158   .     T
C282   N308    1.158   .     T
C283   N309    1.157   .     T
C283   C288    1.454   .     S
C284   C289    1.454   .     S
C284   N310    1.157   .     T
C285   C290    1.452   .     S
C285   N311    1.157   .     T
C286   N312    1.157   .     T
C286   C291    1.452   .     S
C287   H301    1.084   .     S
C287   C856    1.390   .     S
C289   C292    1.408   .     A
C289   C355    1.397   .     S
C290   C292    1.409   .     A
C290   C352    1.397   .     S
Cu293  O317    1.969   .     S
Cu293  O313    1.960   .     S
Cu293  Cu294   2.677   .     S
Cu293  N305    2.012   .     S
Cu293  O315    1.960   .     S
Cu293  O319    1.974   .     S
Cu294  N306    2.012   .     S
Cu294  O318    1.969   .     S
Cu294  O316    1.960   .     S
Cu294  O320    1.974   .     S
Cu294  O314    1.960   .     S
C321   O377    1.287   .     A
C321   C322    1.448   .     S
C321   O380    1.287   .     A
C322   C355    1.409   .     A
C322   C352    1.408   .     A
C323   N370    1.367   .     A
C323   H366    1.082   .     S
C324   N369    1.367   .     A
C324   H367    1.082   .     S
C324   C517    1.416   .     S
C325   N370    1.367   .     A
C325   H368    1.081   .     S
C326   N369    1.367   .     A
C326   H360    1.081   .     S
C326   C515    1.416   .     S
C327   O384    1.292   .     A
C327   C333    1.464   .     S
C327   O381    1.295   .     A
C328   C331    1.464   .     S
C328   O383    1.292   .     A
C328   O382    1.295   .     A
C329   C340    1.388   .     A
C329   H359    1.085   .     S
C329   C331    1.398   .     A
C330   H361    1.085   .     S
C330   C341    1.388   .     A
C330   C333    1.398   .     A
C331   C334    1.416   .     A
C332   C356    1.448   .     S
C332   O378    1.287   .     A
C332   O379    1.287   .     A
C333   C335    1.416   .     A
C334   C345    1.453   .     S
C334   C336    1.410   .     A
C335   C337    1.410   .     A
C335   C346    1.453   .     S
C336   C338    1.417   .     A
C336   C342    1.410   .     A
C337   C344    1.410   .     A
C337   C339    1.417   .     A
C338   C340    1.409   .     A
C338   C915    1.408   .     S
C339   C341    1.409   .     A
C339   C914    1.408   1_554 S
C340   C351    1.398   .     A
C341   C343    1.398   .     A
C342   H362    1.082   .     S
C342   C919    1.390   .     S
C343   H364    1.084   .     S
C343   C918    1.390   1_554 S
C344   H363    1.082   .     S
C344   C927    1.390   1_554 S
C345   N371    1.158   .     T
C346   N372    1.158   .     T
C347   N373    1.157   .     T
C347   C352    1.454   .     S
C348   C353    1.454   .     S
C348   N374    1.157   .     T
C349   C354    1.452   .     S
C349   N375    1.157   .     T
C350   N376    1.157   .     T
C350   C355    1.452   .     S
C351   H365    1.084   .     S
C351   C920    1.390   .     S
C353   C356    1.408   .     A
C353   C227    1.397   1_655 S
C354   C356    1.409   .     A
C354   C224    1.397   1_655 S
Cu357  O381    1.969   .     S
Cu357  O377    1.960   .     S
Cu357  Cu358   2.677   .     S
Cu357  N369    2.012   .     S
Cu357  O379    1.960   .     S
Cu357  O383    1.974   .     S
Cu358  N370    2.012   .     S
Cu358  O382    1.969   .     S
Cu358  O380    1.960   .     S
Cu358  O384    1.974   .     S
Cu358  O378    1.960   .     S
C385   O441    1.287   .     A
C385   C386    1.448   .     S
C385   O444    1.287   .     A
C386   C419    1.409   .     A
C386   C416    1.408   .     A
C387   N434    1.367   .     A
C387   H430    1.082   .     S
C388   N433    1.367   .     A
C388   H431    1.082   .     S
C388   C5      1.416   1_565 S
C389   N434    1.367   .     A
C389   H432    1.081   .     S
C390   N433    1.367   .     A
C390   H424    1.081   .     S
C390   C3      1.416   1_565 S
C391   O448    1.292   .     A
C391   C397    1.464   .     S
C391   O445    1.295   .     A
C392   C395    1.464   .     S
C392   O447    1.292   .     A
C392   O446    1.295   .     A
C393   C404    1.388   .     A
C393   H423    1.085   .     S
C393   C395    1.398   .     A
C394   H425    1.085   .     S
C394   C405    1.388   .     A
C394   C397    1.398   .     A
C395   C398    1.416   .     A
C396   C420    1.448   .     S
C396   O442    1.287   .     A
C396   O443    1.287   .     A
C397   C399    1.416   .     A
C398   C409    1.453   .     S
C398   C400    1.410   .     A
C399   C401    1.410   .     A
C399   C410    1.453   .     S
C400   C402    1.417   .     A
C400   C406    1.410   .     A
C401   C408    1.410   .     A
C401   C403    1.417   .     A
C402   C404    1.409   .     A
C402   C979    1.408   .     S
C403   C405    1.409   .     A
C403   C978    1.408   1_554 S
C404   C415    1.398   .     A
C405   C407    1.398   .     A
C406   H426    1.082   .     S
C406   C983    1.390   .     S
C407   H428    1.084   .     S
C407   C982    1.390   1_554 S
C408   H427    1.082   .     S
C408   C991    1.390   1_554 S
C409   N435    1.158   .     T
C410   N436    1.158   .     T
C411   N437    1.157   .     T
C411   C416    1.454   .     S
C412   C417    1.454   .     S
C412   N438    1.157   .     T
C413   C418    1.452   .     S
C413   N439    1.157   .     T
C414   N440    1.157   .     T
C414   C419    1.452   .     S
C415   H429    1.084   .     S
C415   C984    1.390   .     S
C416   C546    1.397   1_455 S
C417   C420    1.408   .     A
C417   C483    1.397   .     S
C418   C420    1.409   .     A
C418   C480    1.397   .     S
C419   C545    1.397   1_455 S
Cu421  O445    1.969   .     S
Cu421  O441    1.960   .     S
Cu421  Cu422   2.677   .     S
Cu421  N433    2.012   .     S
Cu421  O443    1.960   .     S
Cu421  O447    1.974   .     S
Cu422  N434    2.012   .     S
Cu422  O446    1.969   .     S
Cu422  O444    1.960   .     S
Cu422  O448    1.974   .     S
Cu422  O442    1.960   .     S
C449   O505    1.287   .     A
C449   C450    1.448   .     S
C449   O508    1.287   .     A
C450   C483    1.409   .     A
C450   C480    1.408   .     A
C451   N498    1.367   .     A
C451   H494    1.082   .     S
C452   N497    1.367   .     A
C452   H495    1.082   .     S
C452   C69     1.416   1_565 S
C453   N498    1.367   .     A
C453   H496    1.081   .     S
C454   N497    1.367   .     A
C454   H488    1.081   .     S
C454   C67     1.416   1_565 S
C455   O512    1.292   .     A
C455   C461    1.464   .     S
C455   O509    1.295   .     A
C456   C459    1.464   .     S
C456   O511    1.292   .     A
C456   O510    1.295   .     A
C457   C468    1.388   .     A
C457   H487    1.085   .     S
C457   C459    1.398   .     A
C458   H489    1.085   .     S
C458   C469    1.388   .     A
C458   C461    1.398   .     A
C459   C462    1.416   .     A
C460   C484    1.448   .     S
C460   O506    1.287   .     A
C460   O507    1.287   .     A
C461   C463    1.416   .     A
C462   C473    1.453   .     S
C462   C464    1.410   .     A
C463   C465    1.410   .     A
C463   C474    1.453   .     S
C464   C466    1.417   .     A
C464   C470    1.410   .     A
C465   C472    1.410   .     A
C465   C467    1.417   .     A
C466   C468    1.409   .     A
C466   C1043   1.408   .     S
C467   C469    1.409   .     A
C467   C1042   1.408   1_554 S
C468   C479    1.398   .     A
C469   C471    1.398   .     A
C470   H490    1.082   .     S
C470   C1047   1.390   .     S
C471   H492    1.084   .     S
C471   C1046   1.390   1_554 S
C472   H491    1.082   .     S
C472   C1055   1.390   1_554 S
C473   N499    1.158   .     T
C474   N500    1.158   .     T
C475   N501    1.157   .     T
C475   C480    1.454   .     S
C476   C481    1.454   .     S
C476   N502    1.157   .     T
C477   C482    1.452   .     S
C477   N503    1.157   .     T
C478   N504    1.157   .     T
C478   C483    1.452   .     S
C479   H493    1.084   .     S
C479   C1048   1.390   .     S
C481   C484    1.408   .     A
C481   C547    1.397   .     S
C482   C484    1.409   .     A
C482   C544    1.397   .     S
Cu485  O509    1.969   .     S
Cu485  O505    1.960   .     S
Cu485  Cu486   2.677   .     S
Cu485  N497    2.012   .     S
Cu485  O507    1.960   .     S
Cu485  O511    1.974   .     S
Cu486  N498    2.012   .     S
Cu486  O510    1.969   .     S
Cu486  O508    1.960   .     S
Cu486  O512    1.974   .     S
Cu486  O506    1.960   .     S
C513   O569    1.287   .     A
C513   C514    1.448   .     S
C513   O572    1.287   .     A
C514   C547    1.409   .     A
C514   C544    1.408   .     A
C515   N562    1.367   .     A
C515   H558    1.082   .     S
C516   N561    1.367   .     A
C516   H559    1.082   .     S
C516   C133    1.416   1_565 S
C517   N562    1.367   .     A
C517   H560    1.081   .     S
C518   N561    1.367   .     A
C518   H552    1.081   .     S
C518   C131    1.416   1_565 S
C519   O576    1.292   .     A
C519   C525    1.464   .     S
C519   O573    1.295   .     A
C520   C523    1.464   .     S
C520   O575    1.292   .     A
C520   O574    1.295   .     A
C521   C532    1.388   .     A
C521   H551    1.085   .     S
C521   C523    1.398   .     A
C522   H553    1.085   .     S
C522   C533    1.388   .     A
C522   C525    1.398   .     A
C523   C526    1.416   .     A
C524   C548    1.448   .     S
C524   O570    1.287   .     A
C524   O571    1.287   .     A
C525   C527    1.416   .     A
C526   C537    1.453   .     S
C526   C528    1.410   .     A
C527   C529    1.410   .     A
C527   C538    1.453   .     S
C528   C530    1.417   .     A
C528   C534    1.410   .     A
C529   C536    1.410   .     A
C529   C531    1.417   .     A
C530   C532    1.409   .     A
C530   C1107   1.408   .     S
C531   C533    1.409   .     A
C531   C1106   1.408   1_554 S
C532   C543    1.398   .     A
C533   C535    1.398   .     A
C534   H554    1.082   .     S
C534   C1111   1.390   .     S
C535   H556    1.084   .     S
C535   C1110   1.390   1_554 S
C536   H555    1.082   .     S
C536   C1119   1.390   1_554 S
C537   N563    1.158   .     T
C538   N564    1.158   .     T
C539   N565    1.157   .     T
C539   C544    1.454   .     S
C540   C545    1.454   .     S
C540   N566    1.157   .     T
C541   C546    1.452   .     S
C541   N567    1.157   .     T
C542   N568    1.157   .     T
C542   C547    1.452   .     S
C543   H557    1.084   .     S
C543   C1112   1.390   .     S
C545   C548    1.408   .     A
C545   C419    1.397   1_655 S
C546   C548    1.409   .     A
C546   C416    1.397   1_655 S
Cu549  O573    1.969   .     S
Cu549  O569    1.960   .     S
Cu549  Cu550   2.677   .     S
Cu549  N561    2.012   .     S
Cu549  O571    1.960   .     S
Cu549  O575    1.974   .     S
Cu550  N562    2.012   .     S
Cu550  O574    1.969   .     S
Cu550  O572    1.960   .     S
Cu550  O576    1.974   .     S
Cu550  O570    1.960   .     S
C577   O633    1.287   .     A
C577   C578    1.448   .     S
C577   O636    1.287   .     A
C578   C611    1.409   .     A
C578   C608    1.408   .     A
C579   N626    1.367   .     A
C579   H622    1.082   .     S
C579   C966    1.416   1_545 S
C580   N625    1.367   .     A
C580   H623    1.082   .     S
C580   C773    1.416   .     S
C581   N626    1.367   .     A
C581   H624    1.081   .     S
C581   C964    1.416   1_545 S
C582   N625    1.367   .     A
C582   H616    1.081   .     S
C582   C771    1.416   .     S
C583   O640    1.292   .     A
C583   C589    1.464   .     S
C583   O637    1.295   .     A
C584   C587    1.464   .     S
C584   O639    1.292   .     A
C584   O638    1.295   .     A
C585   C596    1.388   .     A
C585   H615    1.085   .     S
C585   C587    1.398   .     A
C586   H617    1.085   .     S
C586   C597    1.388   .     A
C586   C589    1.398   .     A
C587   C590    1.416   .     A
C588   C612    1.448   .     S
C588   O634    1.287   .     A
C588   O635    1.287   .     A
C589   C591    1.416   .     A
C590   C601    1.453   .     S
C590   C592    1.410   .     A
C591   C593    1.410   .     A
C591   C602    1.453   .     S
C592   C594    1.417   .     A
C592   C598    1.410   .     A
C593   C600    1.410   .     A
C593   C595    1.417   .     A
C594   C596    1.409   .     A
C594   C19     1.408   1_556 S
C595   C597    1.409   .     A
C596   C607    1.398   .     A
C597   C599    1.398   .     A
C598   H618    1.082   .     S
C598   C23     1.390   1_556 S
C599   H620    1.084   .     S
C600   H619    1.082   .     S
C601   N627    1.158   .     T
C602   N628    1.158   .     T
C603   N629    1.157   .     T
C603   C608    1.454   .     S
C604   C609    1.454   .     S
C604   N630    1.157   .     T
C605   C610    1.452   .     S
C605   N631    1.157   .     T
C606   N632    1.157   .     T
C606   C611    1.452   .     S
C607   H621    1.084   .     S
C607   C24     1.390   1_556 S
C608   C738    1.397   1_455 S
C609   C612    1.408   .     A
C609   C675    1.397   .     S
C610   C612    1.409   .     A
C610   C672    1.397   .     S
C611   C737    1.397   1_455 S
Cu613  O637    1.969   .     S
Cu613  O633    1.960   .     S
Cu613  Cu614   2.677   .     S
Cu613  N625    2.012   .     S
Cu613  O635    1.960   .     S
Cu613  O639    1.974   .     S
Cu614  N626    2.012   .     S
Cu614  O638    1.969   .     S
Cu614  O636    1.960   .     S
Cu614  O640    1.974   .     S
Cu614  O634    1.960   .     S
C641   O697    1.287   .     A
C641   C642    1.448   .     S
C641   O700    1.287   .     A
C642   C675    1.409   .     A
C642   C672    1.408   .     A
C643   N690    1.367   .     A
C643   H686    1.082   .     S
C643   C1030   1.416   1_545 S
C644   N689    1.367   .     A
C644   H687    1.082   .     S
C644   C837    1.416   .     S
C645   N690    1.367   .     A
C645   H688    1.081   .     S
C645   C1028   1.416   1_545 S
C646   N689    1.367   .     A
C646   H680    1.081   .     S
C646   C835    1.416   .     S
C647   O704    1.292   .     A
C647   C653    1.464   .     S
C647   O701    1.295   .     A
C648   C651    1.464   .     S
C648   O703    1.292   .     A
C648   O702    1.295   .     A
C649   C660    1.388   .     A
C649   H679    1.085   .     S
C649   C651    1.398   .     A
C650   H681    1.085   .     S
C650   C661    1.388   .     A
C650   C653    1.398   .     A
C651   C654    1.416   .     A
C652   C676    1.448   .     S
C652   O698    1.287   .     A
C652   O699    1.287   .     A
C653   C655    1.416   .     A
C654   C665    1.453   .     S
C654   C656    1.410   .     A
C655   C657    1.410   .     A
C655   C666    1.453   .     S
C656   C658    1.417   .     A
C656   C662    1.410   .     A
C657   C664    1.410   .     A
C657   C659    1.417   .     A
C658   C660    1.409   .     A
C658   C83     1.408   1_556 S
C659   C661    1.409   .     A
C660   C671    1.398   .     A
C661   C663    1.398   .     A
C662   H682    1.082   .     S
C662   C87     1.390   1_556 S
C663   H684    1.084   .     S
C664   H683    1.082   .     S
C665   N691    1.158   .     T
C666   N692    1.158   .     T
C667   N693    1.157   .     T
C667   C672    1.454   .     S
C668   C673    1.454   .     S
C668   N694    1.157   .     T
C669   C674    1.452   .     S
C669   N695    1.157   .     T
C670   N696    1.157   .     T
C670   C675    1.452   .     S
C671   H685    1.084   .     S
C671   C88     1.390   1_556 S
C673   C676    1.408   .     A
C673   C739    1.397   .     S
C674   C676    1.409   .     A
C674   C736    1.397   .     S
Cu677  O701    1.969   .     S
Cu677  O697    1.960   .     S
Cu677  Cu678   2.677   .     S
Cu677  N689    2.012   .     S
Cu677  O699    1.960   .     S
Cu677  O703    1.974   .     S
Cu678  N690    2.012   .     S
Cu678  O702    1.969   .     S
Cu678  O700    1.960   .     S
Cu678  O704    1.974   .     S
Cu678  O698    1.960   .     S
C705   O761    1.287   .     A
C705   C706    1.448   .     S
C705   O764    1.287   .     A
C706   C739    1.409   .     A
C706   C736    1.408   .     A
C707   N754    1.367   .     A
C707   H750    1.082   .     S
C707   C1094   1.416   1_545 S
C708   N753    1.367   .     A
C708   H751    1.082   .     S
C708   C901    1.416   .     S
C709   N754    1.367   .     A
C709   H752    1.081   .     S
C709   C1092   1.416   1_545 S
C710   N753    1.367   .     A
C710   H744    1.081   .     S
C710   C899    1.416   .     S
C711   O768    1.292   .     A
C711   C717    1.464   .     S
C711   O765    1.295   .     A
C712   C715    1.464   .     S
C712   O767    1.292   .     A
C712   O766    1.295   .     A
C713   C724    1.388   .     A
C713   H743    1.085   .     S
C713   C715    1.398   .     A
C714   H745    1.085   .     S
C714   C725    1.388   .     A
C714   C717    1.398   .     A
C715   C718    1.416   .     A
C716   C740    1.448   .     S
C716   O762    1.287   .     A
C716   O763    1.287   .     A
C717   C719    1.416   .     A
C718   C729    1.453   .     S
C718   C720    1.410   .     A
C719   C721    1.410   .     A
C719   C730    1.453   .     S
C720   C722    1.417   .     A
C720   C726    1.410   .     A
C721   C728    1.410   .     A
C721   C723    1.417   .     A
C722   C724    1.409   .     A
C722   C147    1.408   1_556 S
C723   C725    1.409   .     A
C724   C735    1.398   .     A
C725   C727    1.398   .     A
C726   H746    1.082   .     S
C726   C151    1.390   1_556 S
C727   H748    1.084   .     S
C728   H747    1.082   .     S
C729   N755    1.158   .     T
C730   N756    1.158   .     T
C731   N757    1.157   .     T
C731   C736    1.454   .     S
C732   C737    1.454   .     S
C732   N758    1.157   .     T
C733   C738    1.452   .     S
C733   N759    1.157   .     T
C734   N760    1.157   .     T
C734   C739    1.452   .     S
C735   H749    1.084   .     S
C735   C152    1.390   1_556 S
C737   C740    1.408   .     A
C737   C611    1.397   1_655 S
C738   C740    1.409   .     A
C738   C608    1.397   1_655 S
Cu741  O765    1.969   .     S
Cu741  O761    1.960   .     S
Cu741  Cu742   2.677   .     S
Cu741  N753    2.012   .     S
Cu741  O763    1.960   .     S
Cu741  O767    1.974   .     S
Cu742  N754    2.012   .     S
Cu742  O766    1.969   .     S
Cu742  O764    1.960   .     S
Cu742  O768    1.974   .     S
Cu742  O762    1.960   .     S
C769   O825    1.287   .     A
C769   C770    1.448   .     S
C769   O828    1.287   .     A
C770   C803    1.409   .     A
C770   C800    1.408   .     A
C771   N818    1.367   .     A
C771   H814    1.082   .     S
C772   N817    1.367   .     A
C772   H815    1.082   .     S
C772   C965    1.416   .     S
C773   N818    1.367   .     A
C773   H816    1.081   .     S
C774   N817    1.367   .     A
C774   H808    1.081   .     S
C774   C963    1.416   .     S
C775   O832    1.292   .     A
C775   C781    1.464   .     S
C775   O829    1.295   .     A
C776   C779    1.464   .     S
C776   O831    1.292   .     A
C776   O830    1.295   .     A
C777   C788    1.388   .     A
C777   H807    1.085   .     S
C777   C779    1.398   .     A
C778   H809    1.085   .     S
C778   C789    1.388   .     A
C778   C781    1.398   .     A
C779   C782    1.416   .     A
C780   C804    1.448   .     S
C780   O826    1.287   .     A
C780   O827    1.287   .     A
C781   C783    1.416   .     A
C782   C793    1.453   .     S
C782   C784    1.410   .     A
C783   C785    1.410   .     A
C783   C794    1.453   .     S
C784   C786    1.417   .     A
C784   C790    1.410   .     A
C785   C792    1.410   .     A
C785   C787    1.417   .     A
C786   C788    1.409   .     A
C786   C211    1.408   1_556 S
C787   C789    1.409   .     A
C788   C799    1.398   .     A
C789   C791    1.398   .     A
C790   H810    1.082   .     S
C790   C215    1.390   1_556 S
C791   H812    1.084   .     S
C792   H811    1.082   .     S
C793   N819    1.158   .     T
C794   N820    1.158   .     T
C795   N821    1.157   .     T
C795   C800    1.454   .     S
C796   C801    1.454   .     S
C796   N822    1.157   .     T
C797   C802    1.452   .     S
C797   N823    1.157   .     T
C798   N824    1.157   .     T
C798   C803    1.452   .     S
C799   H813    1.084   .     S
C799   C216    1.390   1_556 S
C800   C930    1.397   1_455 S
C801   C804    1.408   .     A
C801   C867    1.397   .     S
C802   C804    1.409   .     A
C802   C864    1.397   .     S
C803   C929    1.397   1_455 S
Cu805  O829    1.969   .     S
Cu805  O825    1.960   .     S
Cu805  Cu806   2.677   .     S
Cu805  N817    2.012   .     S
Cu805  O827    1.960   .     S
Cu805  O831    1.974   .     S
Cu806  N818    2.012   .     S
Cu806  O830    1.969   .     S
Cu806  O828    1.960   .     S
Cu806  O832    1.974   .     S
Cu806  O826    1.960   .     S
C833   O889    1.287   .     A
C833   C834    1.448   .     S
C833   O892    1.287   .     A
C834   C867    1.409   .     A
C834   C864    1.408   .     A
C835   N882    1.367   .     A
C835   H878    1.082   .     S
C836   N881    1.367   .     A
C836   H879    1.082   .     S
C836   C1029   1.416   .     S
C837   N882    1.367   .     A
C837   H880    1.081   .     S
C838   N881    1.367   .     A
C838   H872    1.081   .     S
C838   C1027   1.416   .     S
C839   O896    1.292   .     A
C839   C845    1.464   .     S
C839   O893    1.295   .     A
C840   C843    1.464   .     S
C840   O895    1.292   .     A
C840   O894    1.295   .     A
C841   C852    1.388   .     A
C841   H871    1.085   .     S
C841   C843    1.398   .     A
C842   H873    1.085   .     S
C842   C853    1.388   .     A
C842   C845    1.398   .     A
C843   C846    1.416   .     A
C844   C868    1.448   .     S
C844   O890    1.287   .     A
C844   O891    1.287   .     A
C845   C847    1.416   .     A
C846   C857    1.453   .     S
C846   C848    1.410   .     A
C847   C849    1.410   .     A
C847   C858    1.453   .     S
C848   C850    1.417   .     A
C848   C854    1.410   .     A
C849   C856    1.410   .     A
C849   C851    1.417   .     A
C850   C852    1.409   .     A
C850   C275    1.408   1_556 S
C851   C853    1.409   .     A
C852   C863    1.398   .     A
C853   C855    1.398   .     A
C854   H874    1.082   .     S
C854   C279    1.390   1_556 S
C855   H876    1.084   .     S
C856   H875    1.082   .     S
C857   N883    1.158   .     T
C858   N884    1.158   .     T
C859   N885    1.157   .     T
C859   C864    1.454   .     S
C860   C865    1.454   .     S
C860   N886    1.157   .     T
C861   C866    1.452   .     S
C861   N887    1.157   .     T
C862   N888    1.157   .     T
C862   C867    1.452   .     S
C863   H877    1.084   .     S
C863   C280    1.390   1_556 S
C865   C868    1.408   .     A
C865   C931    1.397   .     S
C866   C868    1.409   .     A
C866   C928    1.397   .     S
Cu869  O893    1.969   .     S
Cu869  O889    1.960   .     S
Cu869  Cu870   2.677   .     S
Cu869  N881    2.012   .     S
Cu869  O891    1.960   .     S
Cu869  O895    1.974   .     S
Cu870  N882    2.012   .     S
Cu870  O894    1.969   .     S
Cu870  O892    1.960   .     S
Cu870  O896    1.974   .     S
Cu870  O890    1.960   .     S
C897   O953    1.287   .     A
C897   C898    1.448   .     S
C897   O956    1.287   .     A
C898   C931    1.409   .     A
C898   C928    1.408   .     A
C899   N946    1.367   .     A
C899   H942    1.082   .     S
C900   N945    1.367   .     A
C900   H943    1.082   .     S
C900   C1093   1.416   .     S
C901   N946    1.367   .     A
C901   H944    1.081   .     S
C902   N945    1.367   .     A
C902   H936    1.081   .     S
C902   C1091   1.416   .     S
C903   O960    1.292   .     A
C903   C909    1.464   .     S
C903   O957    1.295   .     A
C904   C907    1.464   .     S
C904   O959    1.292   .     A
C904   O958    1.295   .     A
C905   C916    1.388   .     A
C905   H935    1.085   .     S
C905   C907    1.398   .     A
C906   H937    1.085   .     S
C906   C917    1.388   .     A
C906   C909    1.398   .     A
C907   C910    1.416   .     A
C908   C932    1.448   .     S
C908   O954    1.287   .     A
C908   O955    1.287   .     A
C909   C911    1.416   .     A
C910   C921    1.453   .     S
C910   C912    1.410   .     A
C911   C913    1.410   .     A
C911   C922    1.453   .     S
C912   C914    1.417   .     A
C912   C918    1.410   .     A
C913   C920    1.410   .     A
C913   C915    1.417   .     A
C914   C916    1.409   .     A
C914   C339    1.408   1_556 S
C915   C917    1.409   .     A
C916   C927    1.398   .     A
C917   C919    1.398   .     A
C918   H938    1.082   .     S
C918   C343    1.390   1_556 S
C919   H940    1.084   .     S
C920   H939    1.082   .     S
C921   N947    1.158   .     T
C922   N948    1.158   .     T
C923   N949    1.157   .     T
C923   C928    1.454   .     S
C924   C929    1.454   .     S
C924   N950    1.157   .     T
C925   C930    1.452   .     S
C925   N951    1.157   .     T
C926   N952    1.157   .     T
C926   C931    1.452   .     S
C927   H941    1.084   .     S
C927   C344    1.390   1_556 S
C929   C932    1.408   .     A
C929   C803    1.397   1_655 S
C930   C932    1.409   .     A
C930   C800    1.397   1_655 S
Cu933  O957    1.969   .     S
Cu933  O953    1.960   .     S
Cu933  Cu934   2.677   .     S
Cu933  N945    2.012   .     S
Cu933  O955    1.960   .     S
Cu933  O959    1.974   .     S
Cu934  N946    2.012   .     S
Cu934  O958    1.969   .     S
Cu934  O956    1.960   .     S
Cu934  O960    1.974   .     S
Cu934  O954    1.960   .     S
C961   O1017   1.287   .     A
C961   C962    1.448   .     S
C961   O1020   1.287   .     A
C962   C995    1.409   .     A
C962   C992    1.408   .     A
C963   N1010   1.367   .     A
C963   H1006   1.082   .     S
C964   N1009   1.367   .     A
C964   H1007   1.082   .     S
C964   C581    1.416   1_565 S
C965   N1010   1.367   .     A
C965   H1008   1.081   .     S
C966   N1009   1.367   .     A
C966   H1000   1.081   .     S
C966   C579    1.416   1_565 S
C967   O1024   1.292   .     A
C967   C973    1.464   .     S
C967   O1021   1.295   .     A
C968   C971    1.464   .     S
C968   O1023   1.292   .     A
C968   O1022   1.295   .     A
C969   C980    1.388   .     A
C969   H999    1.085   .     S
C969   C971    1.398   .     A
C970   H1001   1.085   .     S
C970   C981    1.388   .     A
C970   C973    1.398   .     A
C971   C974    1.416   .     A
C972   C996    1.448   .     S
C972   O1018   1.287   .     A
C972   O1019   1.287   .     A
C973   C975    1.416   .     A
C974   C985    1.453   .     S
C974   C976    1.410   .     A
C975   C977    1.410   .     A
C975   C986    1.453   .     S
C976   C978    1.417   .     A
C976   C982    1.410   .     A
C977   C984    1.410   .     A
C977   C979    1.417   .     A
C978   C980    1.409   .     A
C978   C403    1.408   1_556 S
C979   C981    1.409   .     A
C980   C991    1.398   .     A
C981   C983    1.398   .     A
C982   H1002   1.082   .     S
C982   C407    1.390   1_556 S
C983   H1004   1.084   .     S
C984   H1003   1.082   .     S
C985   N1011   1.158   .     T
C986   N1012   1.158   .     T
C987   N1013   1.157   .     T
C987   C992    1.454   .     S
C988   C993    1.454   .     S
C988   N1014   1.157   .     T
C989   C994    1.452   .     S
C989   N1015   1.157   .     T
C990   N1016   1.157   .     T
C990   C995    1.452   .     S
C991   H1005   1.084   .     S
C991   C408    1.390   1_556 S
C992   C1122   1.397   1_455 S
C993   C996    1.408   .     A
C993   C1059   1.397   .     S
C994   C996    1.409   .     A
C994   C1056   1.397   .     S
C995   C1121   1.397   1_455 S
Cu997  O1021   1.969   .     S
Cu997  O1017   1.960   .     S
Cu997  Cu998   2.677   .     S
Cu997  N1009   2.012   .     S
Cu997  O1019   1.960   .     S
Cu997  O1023   1.974   .     S
Cu998  N1010   2.012   .     S
Cu998  O1022   1.969   .     S
Cu998  O1020   1.960   .     S
Cu998  O1024   1.974   .     S
Cu998  O1018   1.960   .     S
C1025  O1081   1.287   .     A
C1025  C1026   1.448   .     S
C1025  O1084   1.287   .     A
C1026  C1059   1.409   .     A
C1026  C1056   1.408   .     A
C1027  N1074   1.367   .     A
C1027  H1070   1.082   .     S
C1028  N1073   1.367   .     A
C1028  H1071   1.082   .     S
C1028  C645    1.416   1_565 S
C1029  N1074   1.367   .     A
C1029  H1072   1.081   .     S
C1030  N1073   1.367   .     A
C1030  H1064   1.081   .     S
C1030  C643    1.416   1_565 S
C1031  O1088   1.292   .     A
C1031  C1037   1.464   .     S
C1031  O1085   1.295   .     A
C1032  C1035   1.464   .     S
C1032  O1087   1.292   .     A
C1032  O1086   1.295   .     A
C1033  C1044   1.388   .     A
C1033  H1063   1.085   .     S
C1033  C1035   1.398   .     A
C1034  H1065   1.085   .     S
C1034  C1045   1.388   .     A
C1034  C1037   1.398   .     A
C1035  C1038   1.416   .     A
C1036  C1060   1.448   .     S
C1036  O1082   1.287   .     A
C1036  O1083   1.287   .     A
C1037  C1039   1.416   .     A
C1038  C1049   1.453   .     S
C1038  C1040   1.410   .     A
C1039  C1041   1.410   .     A
C1039  C1050   1.453   .     S
C1040  C1042   1.417   .     A
C1040  C1046   1.410   .     A
C1041  C1048   1.410   .     A
C1041  C1043   1.417   .     A
C1042  C1044   1.409   .     A
C1042  C467    1.408   1_556 S
C1043  C1045   1.409   .     A
C1044  C1055   1.398   .     A
C1045  C1047   1.398   .     A
C1046  H1066   1.082   .     S
C1046  C471    1.390   1_556 S
C1047  H1068   1.084   .     S
C1048  H1067   1.082   .     S
C1049  N1075   1.158   .     T
C1050  N1076   1.158   .     T
C1051  N1077   1.157   .     T
C1051  C1056   1.454   .     S
C1052  C1057   1.454   .     S
C1052  N1078   1.157   .     T
C1053  C1058   1.452   .     S
C1053  N1079   1.157   .     T
C1054  N1080   1.157   .     T
C1054  C1059   1.452   .     S
C1055  H1069   1.084   .     S
C1055  C472    1.390   1_556 S
C1057  C1060   1.408   .     A
C1057  C1123   1.397   .     S
C1058  C1060   1.409   .     A
C1058  C1120   1.397   .     S
Cu1061 O1085   1.969   .     S
Cu1061 O1081   1.960   .     S
Cu1061 Cu1062  2.677   .     S
Cu1061 N1073   2.012   .     S
Cu1061 O1083   1.960   .     S
Cu1061 O1087   1.974   .     S
Cu1062 N1074   2.012   .     S
Cu1062 O1086   1.969   .     S
Cu1062 O1084   1.960   .     S
Cu1062 O1088   1.974   .     S
Cu1062 O1082   1.960   .     S
C1089  O1145   1.287   .     A
C1089  C1090   1.448   .     S
C1089  O1148   1.287   .     A
C1090  C1123   1.409   .     A
C1090  C1120   1.408   .     A
C1091  N1138   1.367   .     A
C1091  H1134   1.082   .     S
C1092  N1137   1.367   .     A
C1092  H1135   1.082   .     S
C1092  C709    1.416   1_565 S
C1093  N1138   1.367   .     A
C1093  H1136   1.081   .     S
C1094  N1137   1.367   .     A
C1094  H1128   1.081   .     S
C1094  C707    1.416   1_565 S
C1095  O1152   1.292   .     A
C1095  C1101   1.464   .     S
C1095  O1149   1.295   .     A
C1096  C1099   1.464   .     S
C1096  O1151   1.292   .     A
C1096  O1150   1.295   .     A
C1097  C1108   1.388   .     A
C1097  H1127   1.085   .     S
C1097  C1099   1.398   .     A
C1098  H1129   1.085   .     S
C1098  C1109   1.388   .     A
C1098  C1101   1.398   .     A
C1099  C1102   1.416   .     A
C1100  C1124   1.448   .     S
C1100  O1146   1.287   .     A
C1100  O1147   1.287   .     A
C1101  C1103   1.416   .     A
C1102  C1113   1.453   .     S
C1102  C1104   1.410   .     A
C1103  C1105   1.410   .     A
C1103  C1114   1.453   .     S
C1104  C1106   1.417   .     A
C1104  C1110   1.410   .     A
C1105  C1112   1.410   .     A
C1105  C1107   1.417   .     A
C1106  C1108   1.409   .     A
C1106  C531    1.408   1_556 S
C1107  C1109   1.409   .     A
C1108  C1119   1.398   .     A
C1109  C1111   1.398   .     A
C1110  H1130   1.082   .     S
C1110  C535    1.390   1_556 S
C1111  H1132   1.084   .     S
C1112  H1131   1.082   .     S
C1113  N1139   1.158   .     T
C1114  N1140   1.158   .     T
C1115  N1141   1.157   .     T
C1115  C1120   1.454   .     S
C1116  C1121   1.454   .     S
C1116  N1142   1.157   .     T
C1117  C1122   1.452   .     S
C1117  N1143   1.157   .     T
C1118  N1144   1.157   .     T
C1118  C1123   1.452   .     S
C1119  H1133   1.084   .     S
C1119  C536    1.390   1_556 S
C1121  C1124   1.408   .     A
C1121  C995    1.397   1_655 S
C1122  C1124   1.409   .     A
C1122  C992    1.397   1_655 S
Cu1125 O1149   1.969   .     S
Cu1125 O1145   1.960   .     S
Cu1125 Cu1126  2.677   .     S
Cu1125 N1137   2.012   .     S
Cu1125 O1147   1.960   .     S
Cu1125 O1151   1.974   .     S
Cu1126 N1138   2.012   .     S
Cu1126 O1150   1.969   .     S
Cu1126 O1148   1.960   .     S
Cu1126 O1152   1.974   .     S
Cu1126 O1146   1.960   .     S
