data_str_m2_o2_o10_pcu_sym.154
_audit_creation_date              2020-01-03
_audit_creation_method            'Materials Studio'
_symmetry_space_group_name_H-M    'P1'
_symmetry_Int_Tables_number       1
_symmetry_cell_setting            triclinic
loop_
_symmetry_equiv_pos_as_xyz
  x,y,z
_cell_length_a                    26.1564
_cell_length_b                    30.2817
_cell_length_c                    27.6715
_cell_angle_alpha                 90.0413
_cell_angle_beta                  98.0695
_cell_angle_gamma                 89.9870
loop_
_atom_site_label
_atom_site_type_symbol
_atom_site_fract_x
_atom_site_fract_y
_atom_site_fract_z
_atom_site_U_iso_or_equiv
_atom_site_adp_type
_atom_site_occupancy
C1     C     0.16666   0.16492   0.24999   0.00000  Uiso   1.00
C2     C     0.16667   0.33508   0.25002   0.00000  Uiso   1.00
C3     C     0.18609   0.28555   0.05595   0.00000  Uiso   1.00
C4     C     0.18946   0.21630   0.44969   0.00000  Uiso   1.00
C5     C     0.18666   0.28486   0.10690   0.00000  Uiso   1.00
C6     C     0.18994   0.21677   0.39891   0.00000  Uiso   1.00
C7     C     0.14618   0.21499   0.10206   0.00000  Uiso   1.00
C8     C     0.14281   0.28351   0.39178   0.00000  Uiso   1.00
C9     C     0.14496   0.21401   0.05088   0.00000  Uiso   1.00
C10    C     0.14063   0.28433   0.44247   0.00000  Uiso   1.00
C11    C     0.16554   0.24985   0.02703   0.00000  Uiso   1.00
C12    C     0.16521   0.25039   0.47253   0.00000  Uiso   1.00
C13    C     0.06786   0.25002   0.23751   0.00000  Uiso   1.00
C14    C     0.26548   0.25005   0.26250   0.00000  Uiso   1.00
C15    C     0.01257   0.25004   0.23064   0.00000  Uiso   1.00
C16    C     0.32078   0.25014   0.26943   0.00000  Uiso   1.00
C17    C     0.15119   0.04765   0.28934   0.00000  Uiso   1.00
C18    C     0.15098   0.45236   0.20667   0.00000  Uiso   1.00
C19    C     0.15154   0.09355   0.28948   0.00000  Uiso   1.00
C20    C     0.15134   0.40647   0.20660   0.00000  Uiso   1.00
C21    C     0.16666   0.11670   0.24998   0.00000  Uiso   1.00
C22    C     0.16666   0.38329   0.25005   0.00000  Uiso   1.00
C23    C     0.18179   0.09347   0.21051   0.00000  Uiso   1.00
C24    C     0.18199   0.40650   0.29351   0.00000  Uiso   1.00
C25    C     0.18219   0.04757   0.21071   0.00000  Uiso   1.00
C26    C     0.18238   0.45240   0.29345   0.00000  Uiso   1.00
C27    C     0.16670   0.02428   0.25004   0.00000  Uiso   1.00
C28    C     0.16669   0.47572   0.25006   0.00000  Uiso   1.00
Cu29   Cu    0.16667   0.25000   0.29821   0.00000  Uiso   1.00
Cu30   Cu    0.16667   0.25001   0.20178   0.00000  Uiso   1.00
H31    H     0.32580   0.24995   0.19347   0.00000  Uiso   1.00
H32    H     0.00753   0.25026   0.30661   0.00000  Uiso   1.00
H33    H     0.13819   0.03049   0.31970   0.00000  Uiso   1.00
H34    H     0.13781   0.46954   0.17291   0.00000  Uiso   1.00
H35    H     0.13931   0.11089   0.32014   0.00000  Uiso   1.00
H36    H     0.13895   0.38913   0.17271   0.00000  Uiso   1.00
H37    H     0.19400   0.11076   0.17983   0.00000  Uiso   1.00
H38    H     0.19437   0.38919   0.32739   0.00000  Uiso   1.00
H39    H     0.19521   0.03034   0.18037   0.00000  Uiso   1.00
H40    H     0.19556   0.46962   0.32722   0.00000  Uiso   1.00
H41    H     0.20230   0.31364   0.03924   0.00000  Uiso   1.00
H42    H     0.20852   0.18962   0.47117   0.00000  Uiso   1.00
H43    H     0.20332   0.31244   0.12841   0.00000  Uiso   1.00
H44    H     0.20926   0.19045   0.38221   0.00000  Uiso   1.00
H45    H     0.13015   0.18750   0.11980   0.00000  Uiso   1.00
H46    H     0.12442   0.30972   0.36916   0.00000  Uiso   1.00
N47    N     0.16667   0.25001   0.12934   0.00000  Uiso   1.00
N48    N     0.16667   0.24999   0.37065   0.00000  Uiso   1.00
O49    O     0.16667   0.18573   0.29071   0.00000  Uiso   1.00
O50    O     0.16666   0.31428   0.20928   0.00000  Uiso   1.00
O51    O     0.16667   0.18573   0.20928   0.00000  Uiso   1.00
O52    O     0.16666   0.31427   0.29072   0.00000  Uiso   1.00
O53    O     0.09161   0.24999   0.28132   0.00000  Uiso   1.00
O54    O     0.24172   0.25001   0.21868   0.00000  Uiso   1.00
O55    O     0.09161   0.25000   0.19988   0.00000  Uiso   1.00
O56    O     0.24172   0.25000   0.30011   0.00000  Uiso   1.00
O57    O     0.12542   0.17700   0.02534   0.00000  Uiso   1.00
C58    C     0.07370   0.18520   0.00495   0.00000  Uiso   1.00
H59    H     0.07268   0.20749   0.47295   0.00000  Uiso   1.00
H60    H     0.05107   0.20010   0.03221   0.00000  Uiso   1.00
C61    C     0.04802   0.14177   0.48711   0.00000  Uiso   1.00
H62    H     0.06988   0.12651   0.45973   0.00000  Uiso   1.00
H63    H     0.04863   0.11868   0.01841   0.00000  Uiso   1.00
C64    C     0.32552   0.14919   0.46390   0.00000  Uiso   1.00
H65    H     0.30273   0.16364   0.49100   0.00000  Uiso   1.00
H66    H     0.30786   0.11716   0.45113   0.00000  Uiso   1.00
H67    H     0.32401   0.17181   0.43213   0.00000  Uiso   1.00
O68    O     0.11725   0.32018   0.46158   0.00000  Uiso   1.00
C69    C     0.06815   0.30835   0.47364   0.00000  Uiso   1.00
H70    H     0.05444   0.33648   0.49419   0.00000  Uiso   1.00
H71    H     0.07036   0.27976   0.49883   0.00000  Uiso   1.00
C72    C     0.02814   0.30013   0.42819   0.00000  Uiso   1.00
H73    H     0.02611   0.32952   0.40395   0.00000  Uiso   1.00
H74    H     0.03963   0.27112   0.40761   0.00000  Uiso   1.00
C75    C     0.30803   0.29105   0.44218   0.00000  Uiso   1.00
H76    H     0.30903   0.26116   0.46556   0.00000  Uiso   1.00
H77    H     0.28011   0.28534   0.40866   0.00000  Uiso   1.00
H78    H     0.29459   0.31970   0.46210   0.00000  Uiso   1.00
C79    C     0.50000   0.16492   0.24999   0.00000  Uiso   1.00
C80    C     0.50000   0.33508   0.25002   0.00000  Uiso   1.00
C81    C     0.51943   0.28555   0.05595   0.00000  Uiso   1.00
C82    C     0.52279   0.21630   0.44969   0.00000  Uiso   1.00
C83    C     0.51999   0.28486   0.10690   0.00000  Uiso   1.00
C84    C     0.52327   0.21677   0.39891   0.00000  Uiso   1.00
C85    C     0.47952   0.21499   0.10206   0.00000  Uiso   1.00
C86    C     0.47615   0.28351   0.39178   0.00000  Uiso   1.00
C87    C     0.47829   0.21401   0.05088   0.00000  Uiso   1.00
C88    C     0.47397   0.28433   0.44247   0.00000  Uiso   1.00
C89    C     0.49887   0.24985   0.02703   0.00000  Uiso   1.00
C90    C     0.49854   0.25039   0.47253   0.00000  Uiso   1.00
C91    C     0.40119   0.25002   0.23751   0.00000  Uiso   1.00
C92    C     0.59882   0.25005   0.26250   0.00000  Uiso   1.00
C93    C     0.34590   0.25004   0.23064   0.00000  Uiso   1.00
C94    C     0.65411   0.25014   0.26943   0.00000  Uiso   1.00
C95    C     0.48453   0.04765   0.28934   0.00000  Uiso   1.00
C96    C     0.48431   0.45236   0.20667   0.00000  Uiso   1.00
C97    C     0.48488   0.09355   0.28948   0.00000  Uiso   1.00
C98    C     0.48467   0.40647   0.20660   0.00000  Uiso   1.00
C99    C     0.49999   0.11670   0.24998   0.00000  Uiso   1.00
C100   C     0.50000   0.38329   0.25005   0.00000  Uiso   1.00
C101   C     0.51512   0.09347   0.21051   0.00000  Uiso   1.00
C102   C     0.51533   0.40650   0.29351   0.00000  Uiso   1.00
C103   C     0.51553   0.04757   0.21071   0.00000  Uiso   1.00
C104   C     0.51572   0.45240   0.29345   0.00000  Uiso   1.00
C105   C     0.50004   0.02428   0.25004   0.00000  Uiso   1.00
C106   C     0.50003   0.47572   0.25006   0.00000  Uiso   1.00
Cu107  Cu    0.50000   0.25000   0.29821   0.00000  Uiso   1.00
Cu108  Cu    0.50000   0.25001   0.20178   0.00000  Uiso   1.00
H109   H     0.65913   0.24995   0.19347   0.00000  Uiso   1.00
H110   H     0.34086   0.25026   0.30661   0.00000  Uiso   1.00
H111   H     0.47152   0.03049   0.31970   0.00000  Uiso   1.00
H112   H     0.47114   0.46954   0.17291   0.00000  Uiso   1.00
H113   H     0.47265   0.11089   0.32014   0.00000  Uiso   1.00
H114   H     0.47228   0.38913   0.17271   0.00000  Uiso   1.00
H115   H     0.52733   0.11076   0.17983   0.00000  Uiso   1.00
H116   H     0.52771   0.38919   0.32739   0.00000  Uiso   1.00
H117   H     0.52854   0.03034   0.18037   0.00000  Uiso   1.00
H118   H     0.52889   0.46962   0.32722   0.00000  Uiso   1.00
H119   H     0.53563   0.31364   0.03924   0.00000  Uiso   1.00
H120   H     0.54185   0.18962   0.47117   0.00000  Uiso   1.00
H121   H     0.53665   0.31244   0.12841   0.00000  Uiso   1.00
H122   H     0.54259   0.19045   0.38221   0.00000  Uiso   1.00
H123   H     0.46348   0.18750   0.11980   0.00000  Uiso   1.00
H124   H     0.45775   0.30972   0.36916   0.00000  Uiso   1.00
N125   N     0.50000   0.25001   0.12934   0.00000  Uiso   1.00
N126   N     0.50000   0.24999   0.37065   0.00000  Uiso   1.00
O127   O     0.50000   0.18573   0.29071   0.00000  Uiso   1.00
O128   O     0.50000   0.31428   0.20928   0.00000  Uiso   1.00
O129   O     0.50000   0.18573   0.20928   0.00000  Uiso   1.00
O130   O     0.50000   0.31427   0.29072   0.00000  Uiso   1.00
O131   O     0.42495   0.24999   0.28132   0.00000  Uiso   1.00
O132   O     0.57505   0.25001   0.21868   0.00000  Uiso   1.00
O133   O     0.42495   0.25000   0.19988   0.00000  Uiso   1.00
O134   O     0.57505   0.25000   0.30011   0.00000  Uiso   1.00
O135   O     0.45875   0.17700   0.02534   0.00000  Uiso   1.00
C136   C     0.40703   0.18520   0.00495   0.00000  Uiso   1.00
H137   H     0.40602   0.20749   0.47295   0.00000  Uiso   1.00
H138   H     0.38440   0.20010   0.03221   0.00000  Uiso   1.00
C139   C     0.38135   0.14177   0.48711   0.00000  Uiso   1.00
H140   H     0.40322   0.12651   0.45973   0.00000  Uiso   1.00
H141   H     0.38197   0.11868   0.01841   0.00000  Uiso   1.00
C142   C     0.65885   0.14919   0.46390   0.00000  Uiso   1.00
H143   H     0.63606   0.16364   0.49100   0.00000  Uiso   1.00
H144   H     0.64119   0.11716   0.45113   0.00000  Uiso   1.00
H145   H     0.65734   0.17181   0.43213   0.00000  Uiso   1.00
O146   O     0.45058   0.32018   0.46158   0.00000  Uiso   1.00
C147   C     0.40149   0.30835   0.47364   0.00000  Uiso   1.00
H148   H     0.38777   0.33648   0.49419   0.00000  Uiso   1.00
H149   H     0.40370   0.27976   0.49883   0.00000  Uiso   1.00
C150   C     0.36147   0.30013   0.42819   0.00000  Uiso   1.00
H151   H     0.35945   0.32952   0.40395   0.00000  Uiso   1.00
H152   H     0.37296   0.27112   0.40761   0.00000  Uiso   1.00
C153   C     0.64137   0.29105   0.44218   0.00000  Uiso   1.00
H154   H     0.64237   0.26116   0.46556   0.00000  Uiso   1.00
H155   H     0.61344   0.28534   0.40866   0.00000  Uiso   1.00
H156   H     0.62792   0.31970   0.46210   0.00000  Uiso   1.00
C157   C     0.83333   0.16492   0.24999   0.00000  Uiso   1.00
C158   C     0.83333   0.33508   0.25002   0.00000  Uiso   1.00
C159   C     0.85276   0.28555   0.05595   0.00000  Uiso   1.00
C160   C     0.85612   0.21630   0.44969   0.00000  Uiso   1.00
C161   C     0.85332   0.28486   0.10690   0.00000  Uiso   1.00
C162   C     0.85661   0.21677   0.39891   0.00000  Uiso   1.00
C163   C     0.81285   0.21499   0.10206   0.00000  Uiso   1.00
C164   C     0.80948   0.28351   0.39178   0.00000  Uiso   1.00
C165   C     0.81163   0.21401   0.05088   0.00000  Uiso   1.00
C166   C     0.80730   0.28433   0.44247   0.00000  Uiso   1.00
C167   C     0.83221   0.24985   0.02703   0.00000  Uiso   1.00
C168   C     0.83187   0.25039   0.47253   0.00000  Uiso   1.00
C169   C     0.73452   0.25002   0.23751   0.00000  Uiso   1.00
C170   C     0.93215   0.25005   0.26250   0.00000  Uiso   1.00
C171   C     0.67923   0.25004   0.23064   0.00000  Uiso   1.00
C172   C     0.98744   0.25014   0.26943   0.00000  Uiso   1.00
C173   C     0.81786   0.04765   0.28934   0.00000  Uiso   1.00
C174   C     0.81764   0.45236   0.20667   0.00000  Uiso   1.00
C175   C     0.81821   0.09355   0.28948   0.00000  Uiso   1.00
C176   C     0.81801   0.40647   0.20660   0.00000  Uiso   1.00
C177   C     0.83332   0.11670   0.24998   0.00000  Uiso   1.00
C178   C     0.83333   0.38329   0.25005   0.00000  Uiso   1.00
C179   C     0.84845   0.09347   0.21051   0.00000  Uiso   1.00
C180   C     0.84866   0.40650   0.29351   0.00000  Uiso   1.00
C181   C     0.84886   0.04757   0.21071   0.00000  Uiso   1.00
C182   C     0.84905   0.45240   0.29345   0.00000  Uiso   1.00
C183   C     0.83337   0.02428   0.25004   0.00000  Uiso   1.00
C184   C     0.83336   0.47572   0.25006   0.00000  Uiso   1.00
Cu185  Cu    0.83333   0.25000   0.29821   0.00000  Uiso   1.00
Cu186  Cu    0.83333   0.25001   0.20178   0.00000  Uiso   1.00
H187   H     0.99247   0.24995   0.19347   0.00000  Uiso   1.00
H188   H     0.67420   0.25026   0.30661   0.00000  Uiso   1.00
H189   H     0.80486   0.03049   0.31970   0.00000  Uiso   1.00
H190   H     0.80448   0.46954   0.17291   0.00000  Uiso   1.00
H191   H     0.80598   0.11089   0.32014   0.00000  Uiso   1.00
H192   H     0.80562   0.38913   0.17271   0.00000  Uiso   1.00
H193   H     0.86067   0.11076   0.17983   0.00000  Uiso   1.00
H194   H     0.86104   0.38919   0.32739   0.00000  Uiso   1.00
H195   H     0.86188   0.03034   0.18037   0.00000  Uiso   1.00
H196   H     0.86222   0.46962   0.32722   0.00000  Uiso   1.00
H197   H     0.86897   0.31364   0.03924   0.00000  Uiso   1.00
H198   H     0.87518   0.18962   0.47117   0.00000  Uiso   1.00
H199   H     0.86998   0.31244   0.12841   0.00000  Uiso   1.00
H200   H     0.87593   0.19045   0.38221   0.00000  Uiso   1.00
H201   H     0.79681   0.18750   0.11980   0.00000  Uiso   1.00
H202   H     0.79108   0.30972   0.36916   0.00000  Uiso   1.00
N203   N     0.83333   0.25001   0.12934   0.00000  Uiso   1.00
N204   N     0.83333   0.24999   0.37065   0.00000  Uiso   1.00
O205   O     0.83334   0.18573   0.29071   0.00000  Uiso   1.00
O206   O     0.83333   0.31428   0.20928   0.00000  Uiso   1.00
O207   O     0.83334   0.18573   0.20928   0.00000  Uiso   1.00
O208   O     0.83333   0.31427   0.29072   0.00000  Uiso   1.00
O209   O     0.75828   0.24999   0.28132   0.00000  Uiso   1.00
O210   O     0.90839   0.25001   0.21868   0.00000  Uiso   1.00
O211   O     0.75828   0.25000   0.19988   0.00000  Uiso   1.00
O212   O     0.90839   0.25000   0.30011   0.00000  Uiso   1.00
O213   O     0.79208   0.17700   0.02534   0.00000  Uiso   1.00
C214   C     0.74036   0.18520   0.00495   0.00000  Uiso   1.00
H215   H     0.73935   0.20749   0.47295   0.00000  Uiso   1.00
H216   H     0.71774   0.20010   0.03221   0.00000  Uiso   1.00
C217   C     0.71468   0.14177   0.48711   0.00000  Uiso   1.00
H218   H     0.73655   0.12651   0.45973   0.00000  Uiso   1.00
H219   H     0.71530   0.11868   0.01841   0.00000  Uiso   1.00
C220   C     0.99218   0.14919   0.46390   0.00000  Uiso   1.00
H221   H     0.96940   0.16364   0.49100   0.00000  Uiso   1.00
H222   H     0.97453   0.11716   0.45113   0.00000  Uiso   1.00
H223   H     0.99067   0.17181   0.43213   0.00000  Uiso   1.00
O224   O     0.78392   0.32018   0.46158   0.00000  Uiso   1.00
C225   C     0.73482   0.30835   0.47364   0.00000  Uiso   1.00
H226   H     0.72110   0.33648   0.49419   0.00000  Uiso   1.00
H227   H     0.73703   0.27976   0.49883   0.00000  Uiso   1.00
C228   C     0.69481   0.30013   0.42819   0.00000  Uiso   1.00
H229   H     0.69278   0.32952   0.40395   0.00000  Uiso   1.00
H230   H     0.70630   0.27112   0.40761   0.00000  Uiso   1.00
C231   C     0.97470   0.29105   0.44218   0.00000  Uiso   1.00
H232   H     0.97570   0.26116   0.46556   0.00000  Uiso   1.00
H233   H     0.94677   0.28534   0.40866   0.00000  Uiso   1.00
H234   H     0.96125   0.31970   0.46210   0.00000  Uiso   1.00
C235   C     0.16666   0.66492   0.24999   0.00000  Uiso   1.00
C236   C     0.16667   0.83508   0.25002   0.00000  Uiso   1.00
C237   C     0.18609   0.78555   0.05595   0.00000  Uiso   1.00
C238   C     0.18946   0.71630   0.44969   0.00000  Uiso   1.00
C239   C     0.18666   0.78486   0.10690   0.00000  Uiso   1.00
C240   C     0.18994   0.71677   0.39891   0.00000  Uiso   1.00
C241   C     0.14618   0.71499   0.10206   0.00000  Uiso   1.00
C242   C     0.14281   0.78351   0.39178   0.00000  Uiso   1.00
C243   C     0.14496   0.71401   0.05088   0.00000  Uiso   1.00
C244   C     0.14063   0.78433   0.44247   0.00000  Uiso   1.00
C245   C     0.16554   0.74985   0.02703   0.00000  Uiso   1.00
C246   C     0.16521   0.75039   0.47253   0.00000  Uiso   1.00
C247   C     0.06786   0.75002   0.23751   0.00000  Uiso   1.00
C248   C     0.26548   0.75005   0.26250   0.00000  Uiso   1.00
C249   C     0.01257   0.75004   0.23064   0.00000  Uiso   1.00
C250   C     0.32078   0.75014   0.26943   0.00000  Uiso   1.00
C251   C     0.15119   0.54765   0.28934   0.00000  Uiso   1.00
C252   C     0.15098   0.95236   0.20667   0.00000  Uiso   1.00
C253   C     0.15154   0.59355   0.28948   0.00000  Uiso   1.00
C254   C     0.15134   0.90647   0.20660   0.00000  Uiso   1.00
C255   C     0.16666   0.61670   0.24998   0.00000  Uiso   1.00
C256   C     0.16666   0.88329   0.25005   0.00000  Uiso   1.00
C257   C     0.18179   0.59347   0.21051   0.00000  Uiso   1.00
C258   C     0.18199   0.90650   0.29351   0.00000  Uiso   1.00
C259   C     0.18219   0.54757   0.21071   0.00000  Uiso   1.00
C260   C     0.18238   0.95240   0.29345   0.00000  Uiso   1.00
C261   C     0.16670   0.52428   0.25004   0.00000  Uiso   1.00
C262   C     0.16669   0.97572   0.25006   0.00000  Uiso   1.00
Cu263  Cu    0.16667   0.75000   0.29821   0.00000  Uiso   1.00
Cu264  Cu    0.16667   0.75001   0.20178   0.00000  Uiso   1.00
H265   H     0.32580   0.74995   0.19347   0.00000  Uiso   1.00
H266   H     0.00753   0.75026   0.30661   0.00000  Uiso   1.00
H267   H     0.13819   0.53049   0.31970   0.00000  Uiso   1.00
H268   H     0.13781   0.96954   0.17291   0.00000  Uiso   1.00
H269   H     0.13931   0.61089   0.32014   0.00000  Uiso   1.00
H270   H     0.13895   0.88913   0.17271   0.00000  Uiso   1.00
H271   H     0.19400   0.61076   0.17983   0.00000  Uiso   1.00
H272   H     0.19437   0.88919   0.32739   0.00000  Uiso   1.00
H273   H     0.19521   0.53034   0.18037   0.00000  Uiso   1.00
H274   H     0.19556   0.96962   0.32722   0.00000  Uiso   1.00
H275   H     0.20230   0.81364   0.03924   0.00000  Uiso   1.00
H276   H     0.20852   0.68962   0.47117   0.00000  Uiso   1.00
H277   H     0.20332   0.81244   0.12841   0.00000  Uiso   1.00
H278   H     0.20926   0.69045   0.38221   0.00000  Uiso   1.00
H279   H     0.13015   0.68750   0.11980   0.00000  Uiso   1.00
H280   H     0.12442   0.80972   0.36916   0.00000  Uiso   1.00
N281   N     0.16667   0.75001   0.12934   0.00000  Uiso   1.00
N282   N     0.16667   0.74999   0.37065   0.00000  Uiso   1.00
O283   O     0.16667   0.68573   0.29071   0.00000  Uiso   1.00
O284   O     0.16666   0.81428   0.20928   0.00000  Uiso   1.00
O285   O     0.16667   0.68573   0.20928   0.00000  Uiso   1.00
O286   O     0.16666   0.81427   0.29072   0.00000  Uiso   1.00
O287   O     0.09161   0.74999   0.28132   0.00000  Uiso   1.00
O288   O     0.24172   0.75001   0.21868   0.00000  Uiso   1.00
O289   O     0.09161   0.75000   0.19988   0.00000  Uiso   1.00
O290   O     0.24172   0.75000   0.30011   0.00000  Uiso   1.00
O291   O     0.12542   0.67700   0.02534   0.00000  Uiso   1.00
C292   C     0.07370   0.68520   0.00495   0.00000  Uiso   1.00
H293   H     0.07268   0.70749   0.47295   0.00000  Uiso   1.00
H294   H     0.05107   0.70010   0.03221   0.00000  Uiso   1.00
C295   C     0.04802   0.64177   0.48711   0.00000  Uiso   1.00
H296   H     0.06988   0.62651   0.45973   0.00000  Uiso   1.00
H297   H     0.04863   0.61868   0.01841   0.00000  Uiso   1.00
C298   C     0.32552   0.64919   0.46390   0.00000  Uiso   1.00
H299   H     0.30273   0.66364   0.49100   0.00000  Uiso   1.00
H300   H     0.30786   0.61716   0.45113   0.00000  Uiso   1.00
H301   H     0.32401   0.67181   0.43213   0.00000  Uiso   1.00
O302   O     0.11725   0.82018   0.46158   0.00000  Uiso   1.00
C303   C     0.06815   0.80835   0.47364   0.00000  Uiso   1.00
H304   H     0.05444   0.83648   0.49419   0.00000  Uiso   1.00
H305   H     0.07036   0.77976   0.49883   0.00000  Uiso   1.00
C306   C     0.02814   0.80013   0.42819   0.00000  Uiso   1.00
H307   H     0.02611   0.82952   0.40395   0.00000  Uiso   1.00
H308   H     0.03963   0.77112   0.40761   0.00000  Uiso   1.00
C309   C     0.30803   0.79105   0.44218   0.00000  Uiso   1.00
H310   H     0.30903   0.76116   0.46556   0.00000  Uiso   1.00
H311   H     0.28011   0.78534   0.40866   0.00000  Uiso   1.00
H312   H     0.29459   0.81970   0.46210   0.00000  Uiso   1.00
C313   C     0.50000   0.66492   0.24999   0.00000  Uiso   1.00
C314   C     0.50000   0.83508   0.25002   0.00000  Uiso   1.00
C315   C     0.51943   0.78555   0.05595   0.00000  Uiso   1.00
C316   C     0.52279   0.71630   0.44969   0.00000  Uiso   1.00
C317   C     0.51999   0.78486   0.10690   0.00000  Uiso   1.00
C318   C     0.52327   0.71677   0.39891   0.00000  Uiso   1.00
C319   C     0.47952   0.71499   0.10206   0.00000  Uiso   1.00
C320   C     0.47615   0.78351   0.39178   0.00000  Uiso   1.00
C321   C     0.47829   0.71401   0.05088   0.00000  Uiso   1.00
C322   C     0.47397   0.78433   0.44247   0.00000  Uiso   1.00
C323   C     0.49887   0.74985   0.02703   0.00000  Uiso   1.00
C324   C     0.49854   0.75039   0.47253   0.00000  Uiso   1.00
C325   C     0.40119   0.75002   0.23751   0.00000  Uiso   1.00
C326   C     0.59882   0.75005   0.26250   0.00000  Uiso   1.00
C327   C     0.34590   0.75004   0.23064   0.00000  Uiso   1.00
C328   C     0.65411   0.75014   0.26943   0.00000  Uiso   1.00
C329   C     0.48453   0.54765   0.28934   0.00000  Uiso   1.00
C330   C     0.48431   0.95236   0.20667   0.00000  Uiso   1.00
C331   C     0.48488   0.59355   0.28948   0.00000  Uiso   1.00
C332   C     0.48467   0.90647   0.20660   0.00000  Uiso   1.00
C333   C     0.49999   0.61670   0.24998   0.00000  Uiso   1.00
C334   C     0.50000   0.88329   0.25005   0.00000  Uiso   1.00
C335   C     0.51512   0.59347   0.21051   0.00000  Uiso   1.00
C336   C     0.51533   0.90650   0.29351   0.00000  Uiso   1.00
C337   C     0.51553   0.54757   0.21071   0.00000  Uiso   1.00
C338   C     0.51572   0.95240   0.29345   0.00000  Uiso   1.00
C339   C     0.50004   0.52428   0.25004   0.00000  Uiso   1.00
C340   C     0.50003   0.97572   0.25006   0.00000  Uiso   1.00
Cu341  Cu    0.50000   0.75000   0.29821   0.00000  Uiso   1.00
Cu342  Cu    0.50000   0.75001   0.20178   0.00000  Uiso   1.00
H343   H     0.65913   0.74995   0.19347   0.00000  Uiso   1.00
H344   H     0.34086   0.75026   0.30661   0.00000  Uiso   1.00
H345   H     0.47152   0.53049   0.31970   0.00000  Uiso   1.00
H346   H     0.47114   0.96954   0.17291   0.00000  Uiso   1.00
H347   H     0.47265   0.61089   0.32014   0.00000  Uiso   1.00
H348   H     0.47228   0.88913   0.17271   0.00000  Uiso   1.00
H349   H     0.52733   0.61076   0.17983   0.00000  Uiso   1.00
H350   H     0.52771   0.88919   0.32739   0.00000  Uiso   1.00
H351   H     0.52854   0.53034   0.18037   0.00000  Uiso   1.00
H352   H     0.52889   0.96962   0.32722   0.00000  Uiso   1.00
H353   H     0.53563   0.81364   0.03924   0.00000  Uiso   1.00
H354   H     0.54185   0.68962   0.47117   0.00000  Uiso   1.00
H355   H     0.53665   0.81244   0.12841   0.00000  Uiso   1.00
H356   H     0.54259   0.69045   0.38221   0.00000  Uiso   1.00
H357   H     0.46348   0.68750   0.11980   0.00000  Uiso   1.00
H358   H     0.45775   0.80972   0.36916   0.00000  Uiso   1.00
N359   N     0.50000   0.75001   0.12934   0.00000  Uiso   1.00
N360   N     0.50000   0.74999   0.37065   0.00000  Uiso   1.00
O361   O     0.50000   0.68573   0.29071   0.00000  Uiso   1.00
O362   O     0.50000   0.81428   0.20928   0.00000  Uiso   1.00
O363   O     0.50000   0.68573   0.20928   0.00000  Uiso   1.00
O364   O     0.50000   0.81427   0.29072   0.00000  Uiso   1.00
O365   O     0.42495   0.74999   0.28132   0.00000  Uiso   1.00
O366   O     0.57505   0.75001   0.21868   0.00000  Uiso   1.00
O367   O     0.42495   0.75000   0.19988   0.00000  Uiso   1.00
O368   O     0.57505   0.75000   0.30011   0.00000  Uiso   1.00
O369   O     0.45875   0.67700   0.02534   0.00000  Uiso   1.00
C370   C     0.40703   0.68520   0.00495   0.00000  Uiso   1.00
H371   H     0.40602   0.70749   0.47295   0.00000  Uiso   1.00
H372   H     0.38440   0.70010   0.03221   0.00000  Uiso   1.00
C373   C     0.38135   0.64177   0.48711   0.00000  Uiso   1.00
H374   H     0.40322   0.62651   0.45973   0.00000  Uiso   1.00
H375   H     0.38197   0.61868   0.01841   0.00000  Uiso   1.00
C376   C     0.65885   0.64919   0.46390   0.00000  Uiso   1.00
H377   H     0.63606   0.66364   0.49100   0.00000  Uiso   1.00
H378   H     0.64119   0.61716   0.45113   0.00000  Uiso   1.00
H379   H     0.65734   0.67181   0.43213   0.00000  Uiso   1.00
O380   O     0.45058   0.82018   0.46158   0.00000  Uiso   1.00
C381   C     0.40149   0.80835   0.47364   0.00000  Uiso   1.00
H382   H     0.38777   0.83648   0.49419   0.00000  Uiso   1.00
H383   H     0.40370   0.77976   0.49883   0.00000  Uiso   1.00
C384   C     0.36147   0.80013   0.42819   0.00000  Uiso   1.00
H385   H     0.35945   0.82952   0.40395   0.00000  Uiso   1.00
H386   H     0.37296   0.77112   0.40761   0.00000  Uiso   1.00
C387   C     0.64137   0.79105   0.44218   0.00000  Uiso   1.00
H388   H     0.64237   0.76116   0.46556   0.00000  Uiso   1.00
H389   H     0.61344   0.78534   0.40866   0.00000  Uiso   1.00
H390   H     0.62792   0.81970   0.46210   0.00000  Uiso   1.00
C391   C     0.83333   0.66492   0.24999   0.00000  Uiso   1.00
C392   C     0.83333   0.83508   0.25002   0.00000  Uiso   1.00
C393   C     0.85276   0.78555   0.05595   0.00000  Uiso   1.00
C394   C     0.85612   0.71630   0.44969   0.00000  Uiso   1.00
C395   C     0.85332   0.78486   0.10690   0.00000  Uiso   1.00
C396   C     0.85661   0.71677   0.39891   0.00000  Uiso   1.00
C397   C     0.81285   0.71499   0.10206   0.00000  Uiso   1.00
C398   C     0.80948   0.78351   0.39178   0.00000  Uiso   1.00
C399   C     0.81163   0.71401   0.05088   0.00000  Uiso   1.00
C400   C     0.80730   0.78433   0.44247   0.00000  Uiso   1.00
C401   C     0.83221   0.74985   0.02703   0.00000  Uiso   1.00
C402   C     0.83187   0.75039   0.47253   0.00000  Uiso   1.00
C403   C     0.73452   0.75002   0.23751   0.00000  Uiso   1.00
C404   C     0.93215   0.75005   0.26250   0.00000  Uiso   1.00
C405   C     0.67923   0.75004   0.23064   0.00000  Uiso   1.00
C406   C     0.98744   0.75014   0.26943   0.00000  Uiso   1.00
C407   C     0.81786   0.54765   0.28934   0.00000  Uiso   1.00
C408   C     0.81764   0.95236   0.20667   0.00000  Uiso   1.00
C409   C     0.81821   0.59355   0.28948   0.00000  Uiso   1.00
C410   C     0.81801   0.90647   0.20660   0.00000  Uiso   1.00
C411   C     0.83332   0.61670   0.24998   0.00000  Uiso   1.00
C412   C     0.83333   0.88329   0.25005   0.00000  Uiso   1.00
C413   C     0.84845   0.59347   0.21051   0.00000  Uiso   1.00
C414   C     0.84866   0.90650   0.29351   0.00000  Uiso   1.00
C415   C     0.84886   0.54757   0.21071   0.00000  Uiso   1.00
C416   C     0.84905   0.95240   0.29345   0.00000  Uiso   1.00
C417   C     0.83337   0.52428   0.25004   0.00000  Uiso   1.00
C418   C     0.83336   0.97572   0.25006   0.00000  Uiso   1.00
Cu419  Cu    0.83333   0.75000   0.29821   0.00000  Uiso   1.00
Cu420  Cu    0.83333   0.75001   0.20178   0.00000  Uiso   1.00
H421   H     0.99247   0.74995   0.19347   0.00000  Uiso   1.00
H422   H     0.67420   0.75026   0.30661   0.00000  Uiso   1.00
H423   H     0.80486   0.53049   0.31970   0.00000  Uiso   1.00
H424   H     0.80448   0.96954   0.17291   0.00000  Uiso   1.00
H425   H     0.80598   0.61089   0.32014   0.00000  Uiso   1.00
H426   H     0.80562   0.88913   0.17271   0.00000  Uiso   1.00
H427   H     0.86067   0.61076   0.17983   0.00000  Uiso   1.00
H428   H     0.86104   0.88919   0.32739   0.00000  Uiso   1.00
H429   H     0.86188   0.53034   0.18037   0.00000  Uiso   1.00
H430   H     0.86222   0.96962   0.32722   0.00000  Uiso   1.00
H431   H     0.86897   0.81364   0.03924   0.00000  Uiso   1.00
H432   H     0.87518   0.68962   0.47117   0.00000  Uiso   1.00
H433   H     0.86998   0.81244   0.12841   0.00000  Uiso   1.00
H434   H     0.87593   0.69045   0.38221   0.00000  Uiso   1.00
H435   H     0.79681   0.68750   0.11980   0.00000  Uiso   1.00
H436   H     0.79108   0.80972   0.36916   0.00000  Uiso   1.00
N437   N     0.83333   0.75001   0.12934   0.00000  Uiso   1.00
N438   N     0.83333   0.74999   0.37065   0.00000  Uiso   1.00
O439   O     0.83334   0.68573   0.29071   0.00000  Uiso   1.00
O440   O     0.83333   0.81428   0.20928   0.00000  Uiso   1.00
O441   O     0.83334   0.68573   0.20928   0.00000  Uiso   1.00
O442   O     0.83333   0.81427   0.29072   0.00000  Uiso   1.00
O443   O     0.75828   0.74999   0.28132   0.00000  Uiso   1.00
O444   O     0.90839   0.75001   0.21868   0.00000  Uiso   1.00
O445   O     0.75828   0.75000   0.19988   0.00000  Uiso   1.00
O446   O     0.90839   0.75000   0.30011   0.00000  Uiso   1.00
O447   O     0.79208   0.67700   0.02534   0.00000  Uiso   1.00
C448   C     0.74036   0.68520   0.00495   0.00000  Uiso   1.00
H449   H     0.73935   0.70749   0.47295   0.00000  Uiso   1.00
H450   H     0.71774   0.70010   0.03221   0.00000  Uiso   1.00
C451   C     0.71468   0.64177   0.48711   0.00000  Uiso   1.00
H452   H     0.73655   0.62651   0.45973   0.00000  Uiso   1.00
H453   H     0.71530   0.61868   0.01841   0.00000  Uiso   1.00
C454   C     0.99218   0.64919   0.46390   0.00000  Uiso   1.00
H455   H     0.96940   0.66364   0.49100   0.00000  Uiso   1.00
H456   H     0.97453   0.61716   0.45113   0.00000  Uiso   1.00
H457   H     0.99067   0.67181   0.43213   0.00000  Uiso   1.00
O458   O     0.78392   0.82018   0.46158   0.00000  Uiso   1.00
C459   C     0.73482   0.80835   0.47364   0.00000  Uiso   1.00
H460   H     0.72110   0.83648   0.49419   0.00000  Uiso   1.00
H461   H     0.73703   0.77976   0.49883   0.00000  Uiso   1.00
C462   C     0.69481   0.80013   0.42819   0.00000  Uiso   1.00
H463   H     0.69278   0.82952   0.40395   0.00000  Uiso   1.00
H464   H     0.70630   0.77112   0.40761   0.00000  Uiso   1.00
C465   C     0.97470   0.79105   0.44218   0.00000  Uiso   1.00
H466   H     0.97570   0.76116   0.46556   0.00000  Uiso   1.00
H467   H     0.94677   0.78534   0.40866   0.00000  Uiso   1.00
H468   H     0.96125   0.81970   0.46210   0.00000  Uiso   1.00
C469   C     0.16666   0.16492   0.74999   0.00000  Uiso   1.00
C470   C     0.16667   0.33508   0.75002   0.00000  Uiso   1.00
C471   C     0.18609   0.28555   0.55595   0.00000  Uiso   1.00
C472   C     0.18946   0.21630   0.94969   0.00000  Uiso   1.00
C473   C     0.18666   0.28486   0.60690   0.00000  Uiso   1.00
C474   C     0.18994   0.21677   0.89891   0.00000  Uiso   1.00
C475   C     0.14618   0.21499   0.60206   0.00000  Uiso   1.00
C476   C     0.14281   0.28351   0.89178   0.00000  Uiso   1.00
C477   C     0.14496   0.21401   0.55088   0.00000  Uiso   1.00
C478   C     0.14063   0.28433   0.94247   0.00000  Uiso   1.00
C479   C     0.16554   0.24985   0.52703   0.00000  Uiso   1.00
C480   C     0.16521   0.25039   0.97253   0.00000  Uiso   1.00
C481   C     0.06786   0.25002   0.73751   0.00000  Uiso   1.00
C482   C     0.26548   0.25005   0.76250   0.00000  Uiso   1.00
C483   C     0.01257   0.25004   0.73064   0.00000  Uiso   1.00
C484   C     0.32078   0.25014   0.76943   0.00000  Uiso   1.00
C485   C     0.15119   0.04765   0.78934   0.00000  Uiso   1.00
C486   C     0.15098   0.45236   0.70667   0.00000  Uiso   1.00
C487   C     0.15154   0.09355   0.78948   0.00000  Uiso   1.00
C488   C     0.15134   0.40647   0.70660   0.00000  Uiso   1.00
C489   C     0.16666   0.11670   0.74998   0.00000  Uiso   1.00
C490   C     0.16666   0.38329   0.75005   0.00000  Uiso   1.00
C491   C     0.18179   0.09347   0.71051   0.00000  Uiso   1.00
C492   C     0.18199   0.40650   0.79351   0.00000  Uiso   1.00
C493   C     0.18219   0.04757   0.71071   0.00000  Uiso   1.00
C494   C     0.18238   0.45240   0.79345   0.00000  Uiso   1.00
C495   C     0.16670   0.02428   0.75004   0.00000  Uiso   1.00
C496   C     0.16669   0.47572   0.75006   0.00000  Uiso   1.00
Cu497  Cu    0.16667   0.25000   0.79821   0.00000  Uiso   1.00
Cu498  Cu    0.16667   0.25001   0.70178   0.00000  Uiso   1.00
H499   H     0.32580   0.24995   0.69347   0.00000  Uiso   1.00
H500   H     0.00753   0.25026   0.80661   0.00000  Uiso   1.00
H501   H     0.13819   0.03049   0.81970   0.00000  Uiso   1.00
H502   H     0.13781   0.46954   0.67291   0.00000  Uiso   1.00
H503   H     0.13931   0.11089   0.82014   0.00000  Uiso   1.00
H504   H     0.13895   0.38913   0.67271   0.00000  Uiso   1.00
H505   H     0.19400   0.11076   0.67983   0.00000  Uiso   1.00
H506   H     0.19437   0.38919   0.82739   0.00000  Uiso   1.00
H507   H     0.19521   0.03034   0.68037   0.00000  Uiso   1.00
H508   H     0.19556   0.46962   0.82722   0.00000  Uiso   1.00
H509   H     0.20230   0.31364   0.53924   0.00000  Uiso   1.00
H510   H     0.20852   0.18962   0.97117   0.00000  Uiso   1.00
H511   H     0.20332   0.31244   0.62841   0.00000  Uiso   1.00
H512   H     0.20926   0.19045   0.88221   0.00000  Uiso   1.00
H513   H     0.13015   0.18750   0.61980   0.00000  Uiso   1.00
H514   H     0.12442   0.30972   0.86916   0.00000  Uiso   1.00
N515   N     0.16667   0.25001   0.62934   0.00000  Uiso   1.00
N516   N     0.16667   0.24999   0.87065   0.00000  Uiso   1.00
O517   O     0.16667   0.18573   0.79071   0.00000  Uiso   1.00
O518   O     0.16666   0.31428   0.70928   0.00000  Uiso   1.00
O519   O     0.16667   0.18573   0.70928   0.00000  Uiso   1.00
O520   O     0.16666   0.31427   0.79072   0.00000  Uiso   1.00
O521   O     0.09161   0.24999   0.78132   0.00000  Uiso   1.00
O522   O     0.24172   0.25001   0.71868   0.00000  Uiso   1.00
O523   O     0.09161   0.25000   0.69988   0.00000  Uiso   1.00
O524   O     0.24172   0.25000   0.80011   0.00000  Uiso   1.00
O525   O     0.12542   0.17700   0.52534   0.00000  Uiso   1.00
C526   C     0.07370   0.18520   0.50495   0.00000  Uiso   1.00
H527   H     0.07268   0.20749   0.97295   0.00000  Uiso   1.00
H528   H     0.05107   0.20010   0.53221   0.00000  Uiso   1.00
C529   C     0.04802   0.14177   0.98711   0.00000  Uiso   1.00
H530   H     0.06988   0.12651   0.95973   0.00000  Uiso   1.00
H531   H     0.04863   0.11868   0.51841   0.00000  Uiso   1.00
C532   C     0.32552   0.14919   0.96390   0.00000  Uiso   1.00
H533   H     0.30273   0.16364   0.99100   0.00000  Uiso   1.00
H534   H     0.30786   0.11716   0.95113   0.00000  Uiso   1.00
H535   H     0.32401   0.17181   0.93213   0.00000  Uiso   1.00
O536   O     0.11725   0.32018   0.96158   0.00000  Uiso   1.00
C537   C     0.06815   0.30835   0.97364   0.00000  Uiso   1.00
H538   H     0.05444   0.33648   0.99419   0.00000  Uiso   1.00
H539   H     0.07036   0.27976   0.99883   0.00000  Uiso   1.00
C540   C     0.02814   0.30013   0.92819   0.00000  Uiso   1.00
H541   H     0.02611   0.32952   0.90395   0.00000  Uiso   1.00
H542   H     0.03963   0.27112   0.90761   0.00000  Uiso   1.00
C543   C     0.30803   0.29105   0.94218   0.00000  Uiso   1.00
H544   H     0.30903   0.26116   0.96556   0.00000  Uiso   1.00
H545   H     0.28011   0.28534   0.90866   0.00000  Uiso   1.00
H546   H     0.29459   0.31970   0.96210   0.00000  Uiso   1.00
C547   C     0.50000   0.16492   0.74999   0.00000  Uiso   1.00
C548   C     0.50000   0.33508   0.75002   0.00000  Uiso   1.00
C549   C     0.51943   0.28555   0.55595   0.00000  Uiso   1.00
C550   C     0.52279   0.21630   0.94969   0.00000  Uiso   1.00
C551   C     0.51999   0.28486   0.60690   0.00000  Uiso   1.00
C552   C     0.52327   0.21677   0.89891   0.00000  Uiso   1.00
C553   C     0.47952   0.21499   0.60206   0.00000  Uiso   1.00
C554   C     0.47615   0.28351   0.89178   0.00000  Uiso   1.00
C555   C     0.47829   0.21401   0.55088   0.00000  Uiso   1.00
C556   C     0.47397   0.28433   0.94247   0.00000  Uiso   1.00
C557   C     0.49887   0.24985   0.52703   0.00000  Uiso   1.00
C558   C     0.49854   0.25039   0.97253   0.00000  Uiso   1.00
C559   C     0.40119   0.25002   0.73751   0.00000  Uiso   1.00
C560   C     0.59882   0.25005   0.76250   0.00000  Uiso   1.00
C561   C     0.34590   0.25004   0.73064   0.00000  Uiso   1.00
C562   C     0.65411   0.25014   0.76943   0.00000  Uiso   1.00
C563   C     0.48453   0.04765   0.78934   0.00000  Uiso   1.00
C564   C     0.48431   0.45236   0.70667   0.00000  Uiso   1.00
C565   C     0.48488   0.09355   0.78948   0.00000  Uiso   1.00
C566   C     0.48467   0.40647   0.70660   0.00000  Uiso   1.00
C567   C     0.49999   0.11670   0.74998   0.00000  Uiso   1.00
C568   C     0.50000   0.38329   0.75005   0.00000  Uiso   1.00
C569   C     0.51512   0.09347   0.71051   0.00000  Uiso   1.00
C570   C     0.51533   0.40650   0.79351   0.00000  Uiso   1.00
C571   C     0.51553   0.04757   0.71071   0.00000  Uiso   1.00
C572   C     0.51572   0.45240   0.79345   0.00000  Uiso   1.00
C573   C     0.50004   0.02428   0.75004   0.00000  Uiso   1.00
C574   C     0.50003   0.47572   0.75006   0.00000  Uiso   1.00
Cu575  Cu    0.50000   0.25000   0.79821   0.00000  Uiso   1.00
Cu576  Cu    0.50000   0.25001   0.70178   0.00000  Uiso   1.00
H577   H     0.65913   0.24995   0.69347   0.00000  Uiso   1.00
H578   H     0.34086   0.25026   0.80661   0.00000  Uiso   1.00
H579   H     0.47152   0.03049   0.81970   0.00000  Uiso   1.00
H580   H     0.47114   0.46954   0.67291   0.00000  Uiso   1.00
H581   H     0.47265   0.11089   0.82014   0.00000  Uiso   1.00
H582   H     0.47228   0.38913   0.67271   0.00000  Uiso   1.00
H583   H     0.52733   0.11076   0.67983   0.00000  Uiso   1.00
H584   H     0.52771   0.38919   0.82739   0.00000  Uiso   1.00
H585   H     0.52854   0.03034   0.68037   0.00000  Uiso   1.00
H586   H     0.52889   0.46962   0.82722   0.00000  Uiso   1.00
H587   H     0.53563   0.31364   0.53924   0.00000  Uiso   1.00
H588   H     0.54185   0.18962   0.97117   0.00000  Uiso   1.00
H589   H     0.53665   0.31244   0.62841   0.00000  Uiso   1.00
H590   H     0.54259   0.19045   0.88221   0.00000  Uiso   1.00
H591   H     0.46348   0.18750   0.61980   0.00000  Uiso   1.00
H592   H     0.45775   0.30972   0.86916   0.00000  Uiso   1.00
N593   N     0.50000   0.25001   0.62934   0.00000  Uiso   1.00
N594   N     0.50000   0.24999   0.87065   0.00000  Uiso   1.00
O595   O     0.50000   0.18573   0.79071   0.00000  Uiso   1.00
O596   O     0.50000   0.31428   0.70928   0.00000  Uiso   1.00
O597   O     0.50000   0.18573   0.70928   0.00000  Uiso   1.00
O598   O     0.50000   0.31427   0.79072   0.00000  Uiso   1.00
O599   O     0.42495   0.24999   0.78132   0.00000  Uiso   1.00
O600   O     0.57505   0.25001   0.71868   0.00000  Uiso   1.00
O601   O     0.42495   0.25000   0.69988   0.00000  Uiso   1.00
O602   O     0.57505   0.25000   0.80011   0.00000  Uiso   1.00
O603   O     0.45875   0.17700   0.52534   0.00000  Uiso   1.00
C604   C     0.40703   0.18520   0.50495   0.00000  Uiso   1.00
H605   H     0.40602   0.20749   0.97295   0.00000  Uiso   1.00
H606   H     0.38440   0.20010   0.53221   0.00000  Uiso   1.00
C607   C     0.38135   0.14177   0.98711   0.00000  Uiso   1.00
H608   H     0.40322   0.12651   0.95973   0.00000  Uiso   1.00
H609   H     0.38197   0.11868   0.51841   0.00000  Uiso   1.00
C610   C     0.65885   0.14919   0.96390   0.00000  Uiso   1.00
H611   H     0.63606   0.16364   0.99100   0.00000  Uiso   1.00
H612   H     0.64119   0.11716   0.95113   0.00000  Uiso   1.00
H613   H     0.65734   0.17181   0.93213   0.00000  Uiso   1.00
O614   O     0.45058   0.32018   0.96158   0.00000  Uiso   1.00
C615   C     0.40149   0.30835   0.97364   0.00000  Uiso   1.00
H616   H     0.38777   0.33648   0.99419   0.00000  Uiso   1.00
H617   H     0.40370   0.27976   0.99883   0.00000  Uiso   1.00
C618   C     0.36147   0.30013   0.92819   0.00000  Uiso   1.00
H619   H     0.35945   0.32952   0.90395   0.00000  Uiso   1.00
H620   H     0.37296   0.27112   0.90761   0.00000  Uiso   1.00
C621   C     0.64137   0.29105   0.94218   0.00000  Uiso   1.00
H622   H     0.64237   0.26116   0.96556   0.00000  Uiso   1.00
H623   H     0.61344   0.28534   0.90866   0.00000  Uiso   1.00
H624   H     0.62792   0.31970   0.96210   0.00000  Uiso   1.00
C625   C     0.83333   0.16492   0.74999   0.00000  Uiso   1.00
C626   C     0.83333   0.33508   0.75002   0.00000  Uiso   1.00
C627   C     0.85276   0.28555   0.55595   0.00000  Uiso   1.00
C628   C     0.85612   0.21630   0.94969   0.00000  Uiso   1.00
C629   C     0.85332   0.28486   0.60690   0.00000  Uiso   1.00
C630   C     0.85661   0.21677   0.89891   0.00000  Uiso   1.00
C631   C     0.81285   0.21499   0.60206   0.00000  Uiso   1.00
C632   C     0.80948   0.28351   0.89178   0.00000  Uiso   1.00
C633   C     0.81163   0.21401   0.55088   0.00000  Uiso   1.00
C634   C     0.80730   0.28433   0.94247   0.00000  Uiso   1.00
C635   C     0.83221   0.24985   0.52703   0.00000  Uiso   1.00
C636   C     0.83187   0.25039   0.97253   0.00000  Uiso   1.00
C637   C     0.73452   0.25002   0.73751   0.00000  Uiso   1.00
C638   C     0.93215   0.25005   0.76250   0.00000  Uiso   1.00
C639   C     0.67923   0.25004   0.73064   0.00000  Uiso   1.00
C640   C     0.98744   0.25014   0.76943   0.00000  Uiso   1.00
C641   C     0.81786   0.04765   0.78934   0.00000  Uiso   1.00
C642   C     0.81764   0.45236   0.70667   0.00000  Uiso   1.00
C643   C     0.81821   0.09355   0.78948   0.00000  Uiso   1.00
C644   C     0.81801   0.40647   0.70660   0.00000  Uiso   1.00
C645   C     0.83332   0.11670   0.74998   0.00000  Uiso   1.00
C646   C     0.83333   0.38329   0.75005   0.00000  Uiso   1.00
C647   C     0.84845   0.09347   0.71051   0.00000  Uiso   1.00
C648   C     0.84866   0.40650   0.79351   0.00000  Uiso   1.00
C649   C     0.84886   0.04757   0.71071   0.00000  Uiso   1.00
C650   C     0.84905   0.45240   0.79345   0.00000  Uiso   1.00
C651   C     0.83337   0.02428   0.75004   0.00000  Uiso   1.00
C652   C     0.83336   0.47572   0.75006   0.00000  Uiso   1.00
Cu653  Cu    0.83333   0.25000   0.79821   0.00000  Uiso   1.00
Cu654  Cu    0.83333   0.25001   0.70178   0.00000  Uiso   1.00
H655   H     0.99247   0.24995   0.69347   0.00000  Uiso   1.00
H656   H     0.67420   0.25026   0.80661   0.00000  Uiso   1.00
H657   H     0.80486   0.03049   0.81970   0.00000  Uiso   1.00
H658   H     0.80448   0.46954   0.67291   0.00000  Uiso   1.00
H659   H     0.80598   0.11089   0.82014   0.00000  Uiso   1.00
H660   H     0.80562   0.38913   0.67271   0.00000  Uiso   1.00
H661   H     0.86067   0.11076   0.67983   0.00000  Uiso   1.00
H662   H     0.86104   0.38919   0.82739   0.00000  Uiso   1.00
H663   H     0.86188   0.03034   0.68037   0.00000  Uiso   1.00
H664   H     0.86222   0.46962   0.82722   0.00000  Uiso   1.00
H665   H     0.86897   0.31364   0.53924   0.00000  Uiso   1.00
H666   H     0.87518   0.18962   0.97117   0.00000  Uiso   1.00
H667   H     0.86998   0.31244   0.62841   0.00000  Uiso   1.00
H668   H     0.87593   0.19045   0.88221   0.00000  Uiso   1.00
H669   H     0.79681   0.18750   0.61980   0.00000  Uiso   1.00
H670   H     0.79108   0.30972   0.86916   0.00000  Uiso   1.00
N671   N     0.83333   0.25001   0.62934   0.00000  Uiso   1.00
N672   N     0.83333   0.24999   0.87065   0.00000  Uiso   1.00
O673   O     0.83334   0.18573   0.79071   0.00000  Uiso   1.00
O674   O     0.83333   0.31428   0.70928   0.00000  Uiso   1.00
O675   O     0.83334   0.18573   0.70928   0.00000  Uiso   1.00
O676   O     0.83333   0.31427   0.79072   0.00000  Uiso   1.00
O677   O     0.75828   0.24999   0.78132   0.00000  Uiso   1.00
O678   O     0.90839   0.25001   0.71868   0.00000  Uiso   1.00
O679   O     0.75828   0.25000   0.69988   0.00000  Uiso   1.00
O680   O     0.90839   0.25000   0.80011   0.00000  Uiso   1.00
O681   O     0.79208   0.17700   0.52534   0.00000  Uiso   1.00
C682   C     0.74036   0.18520   0.50495   0.00000  Uiso   1.00
H683   H     0.73935   0.20749   0.97295   0.00000  Uiso   1.00
H684   H     0.71774   0.20010   0.53221   0.00000  Uiso   1.00
C685   C     0.71468   0.14177   0.98711   0.00000  Uiso   1.00
H686   H     0.73655   0.12651   0.95973   0.00000  Uiso   1.00
H687   H     0.71530   0.11868   0.51841   0.00000  Uiso   1.00
C688   C     0.99218   0.14919   0.96390   0.00000  Uiso   1.00
H689   H     0.96940   0.16364   0.99100   0.00000  Uiso   1.00
H690   H     0.97453   0.11716   0.95113   0.00000  Uiso   1.00
H691   H     0.99067   0.17181   0.93213   0.00000  Uiso   1.00
O692   O     0.78392   0.32018   0.96158   0.00000  Uiso   1.00
C693   C     0.73482   0.30835   0.97364   0.00000  Uiso   1.00
H694   H     0.72110   0.33648   0.99419   0.00000  Uiso   1.00
H695   H     0.73703   0.27976   0.99883   0.00000  Uiso   1.00
C696   C     0.69481   0.30013   0.92819   0.00000  Uiso   1.00
H697   H     0.69278   0.32952   0.90395   0.00000  Uiso   1.00
H698   H     0.70630   0.27112   0.90761   0.00000  Uiso   1.00
C699   C     0.97470   0.29105   0.94218   0.00000  Uiso   1.00
H700   H     0.97570   0.26116   0.96556   0.00000  Uiso   1.00
H701   H     0.94677   0.28534   0.90866   0.00000  Uiso   1.00
H702   H     0.96125   0.31970   0.96210   0.00000  Uiso   1.00
C703   C     0.16666   0.66492   0.74999   0.00000  Uiso   1.00
C704   C     0.16667   0.83508   0.75002   0.00000  Uiso   1.00
C705   C     0.18609   0.78555   0.55595   0.00000  Uiso   1.00
C706   C     0.18946   0.71630   0.94969   0.00000  Uiso   1.00
C707   C     0.18666   0.78486   0.60690   0.00000  Uiso   1.00
C708   C     0.18994   0.71677   0.89891   0.00000  Uiso   1.00
C709   C     0.14618   0.71499   0.60206   0.00000  Uiso   1.00
C710   C     0.14281   0.78351   0.89178   0.00000  Uiso   1.00
C711   C     0.14496   0.71401   0.55088   0.00000  Uiso   1.00
C712   C     0.14063   0.78433   0.94247   0.00000  Uiso   1.00
C713   C     0.16554   0.74985   0.52703   0.00000  Uiso   1.00
C714   C     0.16521   0.75039   0.97253   0.00000  Uiso   1.00
C715   C     0.06786   0.75002   0.73751   0.00000  Uiso   1.00
C716   C     0.26548   0.75005   0.76250   0.00000  Uiso   1.00
C717   C     0.01257   0.75004   0.73064   0.00000  Uiso   1.00
C718   C     0.32078   0.75014   0.76943   0.00000  Uiso   1.00
C719   C     0.15119   0.54765   0.78934   0.00000  Uiso   1.00
C720   C     0.15098   0.95236   0.70667   0.00000  Uiso   1.00
C721   C     0.15154   0.59355   0.78948   0.00000  Uiso   1.00
C722   C     0.15134   0.90647   0.70660   0.00000  Uiso   1.00
C723   C     0.16666   0.61670   0.74998   0.00000  Uiso   1.00
C724   C     0.16666   0.88329   0.75005   0.00000  Uiso   1.00
C725   C     0.18179   0.59347   0.71051   0.00000  Uiso   1.00
C726   C     0.18199   0.90650   0.79351   0.00000  Uiso   1.00
C727   C     0.18219   0.54757   0.71071   0.00000  Uiso   1.00
C728   C     0.18238   0.95240   0.79345   0.00000  Uiso   1.00
C729   C     0.16670   0.52428   0.75004   0.00000  Uiso   1.00
C730   C     0.16669   0.97572   0.75006   0.00000  Uiso   1.00
Cu731  Cu    0.16667   0.75000   0.79821   0.00000  Uiso   1.00
Cu732  Cu    0.16667   0.75001   0.70178   0.00000  Uiso   1.00
H733   H     0.32580   0.74995   0.69347   0.00000  Uiso   1.00
H734   H     0.00753   0.75026   0.80661   0.00000  Uiso   1.00
H735   H     0.13819   0.53049   0.81970   0.00000  Uiso   1.00
H736   H     0.13781   0.96954   0.67291   0.00000  Uiso   1.00
H737   H     0.13931   0.61089   0.82014   0.00000  Uiso   1.00
H738   H     0.13895   0.88913   0.67271   0.00000  Uiso   1.00
H739   H     0.19400   0.61076   0.67983   0.00000  Uiso   1.00
H740   H     0.19437   0.88919   0.82739   0.00000  Uiso   1.00
H741   H     0.19521   0.53034   0.68037   0.00000  Uiso   1.00
H742   H     0.19556   0.96962   0.82722   0.00000  Uiso   1.00
H743   H     0.20230   0.81364   0.53924   0.00000  Uiso   1.00
H744   H     0.20852   0.68962   0.97117   0.00000  Uiso   1.00
H745   H     0.20332   0.81244   0.62841   0.00000  Uiso   1.00
H746   H     0.20926   0.69045   0.88221   0.00000  Uiso   1.00
H747   H     0.13015   0.68750   0.61980   0.00000  Uiso   1.00
H748   H     0.12442   0.80972   0.86916   0.00000  Uiso   1.00
N749   N     0.16667   0.75001   0.62934   0.00000  Uiso   1.00
N750   N     0.16667   0.74999   0.87065   0.00000  Uiso   1.00
O751   O     0.16667   0.68573   0.79071   0.00000  Uiso   1.00
O752   O     0.16666   0.81428   0.70928   0.00000  Uiso   1.00
O753   O     0.16667   0.68573   0.70928   0.00000  Uiso   1.00
O754   O     0.16666   0.81427   0.79072   0.00000  Uiso   1.00
O755   O     0.09161   0.74999   0.78132   0.00000  Uiso   1.00
O756   O     0.24172   0.75001   0.71868   0.00000  Uiso   1.00
O757   O     0.09161   0.75000   0.69988   0.00000  Uiso   1.00
O758   O     0.24172   0.75000   0.80011   0.00000  Uiso   1.00
O759   O     0.12542   0.67700   0.52534   0.00000  Uiso   1.00
C760   C     0.07370   0.68520   0.50495   0.00000  Uiso   1.00
H761   H     0.07268   0.70749   0.97295   0.00000  Uiso   1.00
H762   H     0.05107   0.70010   0.53221   0.00000  Uiso   1.00
C763   C     0.04802   0.64177   0.98711   0.00000  Uiso   1.00
H764   H     0.06988   0.62651   0.95973   0.00000  Uiso   1.00
H765   H     0.04863   0.61868   0.51841   0.00000  Uiso   1.00
C766   C     0.32552   0.64919   0.96390   0.00000  Uiso   1.00
H767   H     0.30273   0.66364   0.99100   0.00000  Uiso   1.00
H768   H     0.30786   0.61716   0.95113   0.00000  Uiso   1.00
H769   H     0.32401   0.67181   0.93213   0.00000  Uiso   1.00
O770   O     0.11725   0.82018   0.96158   0.00000  Uiso   1.00
C771   C     0.06815   0.80835   0.97364   0.00000  Uiso   1.00
H772   H     0.05444   0.83648   0.99419   0.00000  Uiso   1.00
H773   H     0.07036   0.77976   0.99883   0.00000  Uiso   1.00
C774   C     0.02814   0.80013   0.92819   0.00000  Uiso   1.00
H775   H     0.02611   0.82952   0.90395   0.00000  Uiso   1.00
H776   H     0.03963   0.77112   0.90761   0.00000  Uiso   1.00
C777   C     0.30803   0.79105   0.94218   0.00000  Uiso   1.00
H778   H     0.30903   0.76116   0.96556   0.00000  Uiso   1.00
H779   H     0.28011   0.78534   0.90866   0.00000  Uiso   1.00
H780   H     0.29459   0.81970   0.96210   0.00000  Uiso   1.00
C781   C     0.50000   0.66492   0.74999   0.00000  Uiso   1.00
C782   C     0.50000   0.83508   0.75002   0.00000  Uiso   1.00
C783   C     0.51943   0.78555   0.55595   0.00000  Uiso   1.00
C784   C     0.52279   0.71630   0.94969   0.00000  Uiso   1.00
C785   C     0.51999   0.78486   0.60690   0.00000  Uiso   1.00
C786   C     0.52327   0.71677   0.89891   0.00000  Uiso   1.00
C787   C     0.47952   0.71499   0.60206   0.00000  Uiso   1.00
C788   C     0.47615   0.78351   0.89178   0.00000  Uiso   1.00
C789   C     0.47829   0.71401   0.55088   0.00000  Uiso   1.00
C790   C     0.47397   0.78433   0.94247   0.00000  Uiso   1.00
C791   C     0.49887   0.74985   0.52703   0.00000  Uiso   1.00
C792   C     0.49854   0.75039   0.97253   0.00000  Uiso   1.00
C793   C     0.40119   0.75002   0.73751   0.00000  Uiso   1.00
C794   C     0.59882   0.75005   0.76250   0.00000  Uiso   1.00
C795   C     0.34590   0.75004   0.73064   0.00000  Uiso   1.00
C796   C     0.65411   0.75014   0.76943   0.00000  Uiso   1.00
C797   C     0.48453   0.54765   0.78934   0.00000  Uiso   1.00
C798   C     0.48431   0.95236   0.70667   0.00000  Uiso   1.00
C799   C     0.48488   0.59355   0.78948   0.00000  Uiso   1.00
C800   C     0.48467   0.90647   0.70660   0.00000  Uiso   1.00
C801   C     0.49999   0.61670   0.74998   0.00000  Uiso   1.00
C802   C     0.50000   0.88329   0.75005   0.00000  Uiso   1.00
C803   C     0.51512   0.59347   0.71051   0.00000  Uiso   1.00
C804   C     0.51533   0.90650   0.79351   0.00000  Uiso   1.00
C805   C     0.51553   0.54757   0.71071   0.00000  Uiso   1.00
C806   C     0.51572   0.95240   0.79345   0.00000  Uiso   1.00
C807   C     0.50004   0.52428   0.75004   0.00000  Uiso   1.00
C808   C     0.50003   0.97572   0.75006   0.00000  Uiso   1.00
Cu809  Cu    0.50000   0.75000   0.79821   0.00000  Uiso   1.00
Cu810  Cu    0.50000   0.75001   0.70178   0.00000  Uiso   1.00
H811   H     0.65913   0.74995   0.69347   0.00000  Uiso   1.00
H812   H     0.34086   0.75026   0.80661   0.00000  Uiso   1.00
H813   H     0.47152   0.53049   0.81970   0.00000  Uiso   1.00
H814   H     0.47114   0.96954   0.67291   0.00000  Uiso   1.00
H815   H     0.47265   0.61089   0.82014   0.00000  Uiso   1.00
H816   H     0.47228   0.88913   0.67271   0.00000  Uiso   1.00
H817   H     0.52733   0.61076   0.67983   0.00000  Uiso   1.00
H818   H     0.52771   0.88919   0.82739   0.00000  Uiso   1.00
H819   H     0.52854   0.53034   0.68037   0.00000  Uiso   1.00
H820   H     0.52889   0.96962   0.82722   0.00000  Uiso   1.00
H821   H     0.53563   0.81364   0.53924   0.00000  Uiso   1.00
H822   H     0.54185   0.68962   0.97117   0.00000  Uiso   1.00
H823   H     0.53665   0.81244   0.62841   0.00000  Uiso   1.00
H824   H     0.54259   0.69045   0.88221   0.00000  Uiso   1.00
H825   H     0.46348   0.68750   0.61980   0.00000  Uiso   1.00
H826   H     0.45775   0.80972   0.86916   0.00000  Uiso   1.00
N827   N     0.50000   0.75001   0.62934   0.00000  Uiso   1.00
N828   N     0.50000   0.74999   0.87065   0.00000  Uiso   1.00
O829   O     0.50000   0.68573   0.79071   0.00000  Uiso   1.00
O830   O     0.50000   0.81428   0.70928   0.00000  Uiso   1.00
O831   O     0.50000   0.68573   0.70928   0.00000  Uiso   1.00
O832   O     0.50000   0.81427   0.79072   0.00000  Uiso   1.00
O833   O     0.42495   0.74999   0.78132   0.00000  Uiso   1.00
O834   O     0.57505   0.75001   0.71868   0.00000  Uiso   1.00
O835   O     0.42495   0.75000   0.69988   0.00000  Uiso   1.00
O836   O     0.57505   0.75000   0.80011   0.00000  Uiso   1.00
O837   O     0.45875   0.67700   0.52534   0.00000  Uiso   1.00
C838   C     0.40703   0.68520   0.50495   0.00000  Uiso   1.00
H839   H     0.40602   0.70749   0.97295   0.00000  Uiso   1.00
H840   H     0.38440   0.70010   0.53221   0.00000  Uiso   1.00
C841   C     0.38135   0.64177   0.98711   0.00000  Uiso   1.00
H842   H     0.40322   0.62651   0.95973   0.00000  Uiso   1.00
H843   H     0.38197   0.61868   0.51841   0.00000  Uiso   1.00
C844   C     0.65885   0.64919   0.96390   0.00000  Uiso   1.00
H845   H     0.63606   0.66364   0.99100   0.00000  Uiso   1.00
H846   H     0.64119   0.61716   0.95113   0.00000  Uiso   1.00
H847   H     0.65734   0.67181   0.93213   0.00000  Uiso   1.00
O848   O     0.45058   0.82018   0.96158   0.00000  Uiso   1.00
C849   C     0.40149   0.80835   0.97364   0.00000  Uiso   1.00
H850   H     0.38777   0.83648   0.99419   0.00000  Uiso   1.00
H851   H     0.40370   0.77976   0.99883   0.00000  Uiso   1.00
C852   C     0.36147   0.80013   0.92819   0.00000  Uiso   1.00
H853   H     0.35945   0.82952   0.90395   0.00000  Uiso   1.00
H854   H     0.37296   0.77112   0.90761   0.00000  Uiso   1.00
C855   C     0.64137   0.79105   0.94218   0.00000  Uiso   1.00
H856   H     0.64237   0.76116   0.96556   0.00000  Uiso   1.00
H857   H     0.61344   0.78534   0.90866   0.00000  Uiso   1.00
H858   H     0.62792   0.81970   0.96210   0.00000  Uiso   1.00
C859   C     0.83333   0.66492   0.74999   0.00000  Uiso   1.00
C860   C     0.83333   0.83508   0.75002   0.00000  Uiso   1.00
C861   C     0.85276   0.78555   0.55595   0.00000  Uiso   1.00
C862   C     0.85612   0.71630   0.94969   0.00000  Uiso   1.00
C863   C     0.85332   0.78486   0.60690   0.00000  Uiso   1.00
C864   C     0.85661   0.71677   0.89891   0.00000  Uiso   1.00
C865   C     0.81285   0.71499   0.60206   0.00000  Uiso   1.00
C866   C     0.80948   0.78351   0.89178   0.00000  Uiso   1.00
C867   C     0.81163   0.71401   0.55088   0.00000  Uiso   1.00
C868   C     0.80730   0.78433   0.94247   0.00000  Uiso   1.00
C869   C     0.83221   0.74985   0.52703   0.00000  Uiso   1.00
C870   C     0.83187   0.75039   0.97253   0.00000  Uiso   1.00
C871   C     0.73452   0.75002   0.73751   0.00000  Uiso   1.00
C872   C     0.93215   0.75005   0.76250   0.00000  Uiso   1.00
C873   C     0.67923   0.75004   0.73064   0.00000  Uiso   1.00
C874   C     0.98744   0.75014   0.76943   0.00000  Uiso   1.00
C875   C     0.81786   0.54765   0.78934   0.00000  Uiso   1.00
C876   C     0.81764   0.95236   0.70667   0.00000  Uiso   1.00
C877   C     0.81821   0.59355   0.78948   0.00000  Uiso   1.00
C878   C     0.81801   0.90647   0.70660   0.00000  Uiso   1.00
C879   C     0.83332   0.61670   0.74998   0.00000  Uiso   1.00
C880   C     0.83333   0.88329   0.75005   0.00000  Uiso   1.00
C881   C     0.84845   0.59347   0.71051   0.00000  Uiso   1.00
C882   C     0.84866   0.90650   0.79351   0.00000  Uiso   1.00
C883   C     0.84886   0.54757   0.71071   0.00000  Uiso   1.00
C884   C     0.84905   0.95240   0.79345   0.00000  Uiso   1.00
C885   C     0.83337   0.52428   0.75004   0.00000  Uiso   1.00
C886   C     0.83336   0.97572   0.75006   0.00000  Uiso   1.00
Cu887  Cu    0.83333   0.75000   0.79821   0.00000  Uiso   1.00
Cu888  Cu    0.83333   0.75001   0.70178   0.00000  Uiso   1.00
H889   H     0.99247   0.74995   0.69347   0.00000  Uiso   1.00
H890   H     0.67420   0.75026   0.80661   0.00000  Uiso   1.00
H891   H     0.80486   0.53049   0.81970   0.00000  Uiso   1.00
H892   H     0.80448   0.96954   0.67291   0.00000  Uiso   1.00
H893   H     0.80598   0.61089   0.82014   0.00000  Uiso   1.00
H894   H     0.80562   0.88913   0.67271   0.00000  Uiso   1.00
H895   H     0.86067   0.61076   0.67983   0.00000  Uiso   1.00
H896   H     0.86104   0.88919   0.82739   0.00000  Uiso   1.00
H897   H     0.86188   0.53034   0.68037   0.00000  Uiso   1.00
H898   H     0.86222   0.96962   0.82722   0.00000  Uiso   1.00
H899   H     0.86897   0.81364   0.53924   0.00000  Uiso   1.00
H900   H     0.87518   0.68962   0.97117   0.00000  Uiso   1.00
H901   H     0.86998   0.81244   0.62841   0.00000  Uiso   1.00
H902   H     0.87593   0.69045   0.88221   0.00000  Uiso   1.00
H903   H     0.79681   0.68750   0.61980   0.00000  Uiso   1.00
H904   H     0.79108   0.80972   0.86916   0.00000  Uiso   1.00
N905   N     0.83333   0.75001   0.62934   0.00000  Uiso   1.00
N906   N     0.83333   0.74999   0.87065   0.00000  Uiso   1.00
O907   O     0.83334   0.68573   0.79071   0.00000  Uiso   1.00
O908   O     0.83333   0.81428   0.70928   0.00000  Uiso   1.00
O909   O     0.83334   0.68573   0.70928   0.00000  Uiso   1.00
O910   O     0.83333   0.81427   0.79072   0.00000  Uiso   1.00
O911   O     0.75828   0.74999   0.78132   0.00000  Uiso   1.00
O912   O     0.90839   0.75001   0.71868   0.00000  Uiso   1.00
O913   O     0.75828   0.75000   0.69988   0.00000  Uiso   1.00
O914   O     0.90839   0.75000   0.80011   0.00000  Uiso   1.00
O915   O     0.79208   0.67700   0.52534   0.00000  Uiso   1.00
C916   C     0.74036   0.68520   0.50495   0.00000  Uiso   1.00
H917   H     0.73935   0.70749   0.97295   0.00000  Uiso   1.00
H918   H     0.71774   0.70010   0.53221   0.00000  Uiso   1.00
C919   C     0.71468   0.64177   0.98711   0.00000  Uiso   1.00
H920   H     0.73655   0.62651   0.95973   0.00000  Uiso   1.00
H921   H     0.71530   0.61868   0.51841   0.00000  Uiso   1.00
C922   C     0.99218   0.64919   0.96390   0.00000  Uiso   1.00
H923   H     0.96940   0.66364   0.99100   0.00000  Uiso   1.00
H924   H     0.97453   0.61716   0.95113   0.00000  Uiso   1.00
H925   H     0.99067   0.67181   0.93213   0.00000  Uiso   1.00
O926   O     0.78392   0.82018   0.96158   0.00000  Uiso   1.00
C927   C     0.73482   0.80835   0.97364   0.00000  Uiso   1.00
H928   H     0.72110   0.83648   0.99419   0.00000  Uiso   1.00
H929   H     0.73703   0.77976   0.99883   0.00000  Uiso   1.00
C930   C     0.69481   0.80013   0.92819   0.00000  Uiso   1.00
H931   H     0.69278   0.82952   0.90395   0.00000  Uiso   1.00
H932   H     0.70630   0.77112   0.90761   0.00000  Uiso   1.00
C933   C     0.97470   0.79105   0.94218   0.00000  Uiso   1.00
H934   H     0.97570   0.76116   0.96556   0.00000  Uiso   1.00
H935   H     0.94677   0.78534   0.90866   0.00000  Uiso   1.00
H936   H     0.96125   0.81970   0.96210   0.00000  Uiso   1.00
loop_
_geom_bond_atom_site_label_1
_geom_bond_atom_site_label_2
_geom_bond_distance
_geom_bond_site_symmetry_2
_ccdc_geom_bond_type
C1     C21     1.460   .     S
C1     O51     1.291   .     A
C1     O49     1.291   .     A
C2     O50     1.291   .     A
C2     C22     1.460   .     S
C2     O52     1.291   .     A
C3     H41     1.083   .     S
C3     C5      1.408   .     A
C3     C11     1.406   .     A
C4     C12     1.407   .     A
C4     C6      1.407   .     A
C4     H42     1.083   .     S
C5     N47     1.366   .     A
C5     H43     1.081   .     S
C6     N48     1.364   .     A
C6     H44     1.081   .     S
C7     H45     1.081   .     S
C7     N47     1.366   .     A
C7     C9      1.412   .     A
C8     N48     1.365   .     A
C8     H46     1.081   .     S
C8     C10     1.412   .     A
C9     O57     1.384   .     S
C9     C11     1.416   .     A
C10    C12     1.419   .     A
C10    O68     1.386   .     S
C11    C480    1.507   1_554 S
C12    C479    1.507   .     S
C13    O53     1.282   .     A
C13    C15     1.432   .     S
C13    O55     1.285   .     A
C14    O56     1.285   .     A
C14    C16     1.432   .     S
C14    O54     1.283   .     A
C15    C172    1.335   1_455 S
C15    H187    1.087   1_455 S
C16    C93     1.335   .     S
C16    H110    1.088   .     S
C17    H33     1.083   .     S
C17    C27     1.404   .     A
C17    C19     1.390   .     A
C18    C28     1.404   .     A
C18    H34     1.083   .     S
C18    C20     1.390   .     A
C19    C21     1.402   .     A
C19    H35     1.083   .     S
C20    C22     1.402   .     A
C20    H36     1.083   .     S
C21    C23     1.402   .     A
C22    C24     1.402   .     A
C23    H37     1.083   .     S
C23    C25     1.390   .     A
C24    C26     1.390   .     A
C24    H38     1.083   .     S
C25    C27     1.404   .     A
C25    H39     1.083   .     S
C26    C28     1.404   .     A
C26    H40     1.083   .     S
C27    C262    1.471   1_545 S
C28    C261    1.471   .     S
Cu29   O49     1.957   .     S
Cu29   N48     2.005   .     S
Cu29   O53     1.953   .     S
Cu29   Cu30    2.668   .     S
Cu29   O56     1.956   .     S
Cu29   O52     1.958   .     S
Cu30   O51     1.958   .     S
Cu30   O54     1.953   .     S
Cu30   O50     1.957   .     S
Cu30   N47     2.005   .     S
Cu30   O55     1.956   .     S
H31    C93     1.087   .     S
H32    C172    1.088   1_455 S
O57    C58     1.413   .     S
C58    H60     1.117   .     S
C58    H527    1.111   1_554 S
C58    C529    1.527   1_554 S
H59    C526    1.111   .     S
C61    H62     1.112   .     S
C61    C526    1.527   .     S
C61    H531    1.112   .     S
C61    C220    1.527   1_455 S
H63    C529    1.112   1_554 S
C64    H67     1.111   .     S
C64    H65     1.111   .     S
C64    H66     1.110   .     S
C64    C139    1.527   .     S
O68    C69     1.418   .     S
C69    C72     1.539   .     S
C69    H71     1.108   .     S
C69    H70     1.111   .     S
C72    H74     1.111   .     S
C72    H73     1.111   .     S
C72    C231    1.527   1_455 S
C75    H76     1.111   .     S
C75    H78     1.111   .     S
C75    H77     1.111   .     S
C75    C150    1.527   .     S
C79    C99     1.460   .     S
C79    O129    1.291   .     A
C79    O127    1.291   .     A
C80    O128    1.291   .     A
C80    C100    1.460   .     S
C80    O130    1.291   .     A
C81    H119    1.083   .     S
C81    C83     1.408   .     A
C81    C89     1.406   .     A
C82    C90     1.407   .     A
C82    C84     1.407   .     A
C82    H120    1.083   .     S
C83    N125    1.366   .     A
C83    H121    1.081   .     S
C84    N126    1.364   .     A
C84    H122    1.081   .     S
C85    H123    1.081   .     S
C85    N125    1.366   .     A
C85    C87     1.412   .     A
C86    N126    1.365   .     A
C86    H124    1.081   .     S
C86    C88     1.412   .     A
C87    O135    1.384   .     S
C87    C89     1.416   .     A
C88    C90     1.419   .     A
C88    O146    1.386   .     S
C89    C558    1.507   1_554 S
C90    C557    1.507   .     S
C91    O131    1.282   .     A
C91    C93     1.432   .     S
C91    O133    1.285   .     A
C92    O134    1.285   .     A
C92    C94     1.432   .     S
C92    O132    1.283   .     A
C94    C171    1.335   .     S
C94    H188    1.088   .     S
C95    H111    1.083   .     S
C95    C105    1.404   .     A
C95    C97     1.390   .     A
C96    C106    1.404   .     A
C96    H112    1.083   .     S
C96    C98     1.390   .     A
C97    C99     1.402   .     A
C97    H113    1.083   .     S
C98    C100    1.402   .     A
C98    H114    1.083   .     S
C99    C101    1.402   .     A
C100   C102    1.402   .     A
C101   H115    1.083   .     S
C101   C103    1.390   .     A
C102   C104    1.390   .     A
C102   H116    1.083   .     S
C103   C105    1.404   .     A
C103   H117    1.083   .     S
C104   C106    1.404   .     A
C104   H118    1.083   .     S
C105   C340    1.471   1_545 S
C106   C339    1.471   .     S
Cu107  O127    1.957   .     S
Cu107  N126    2.005   .     S
Cu107  O131    1.953   .     S
Cu107  Cu108   2.668   .     S
Cu107  O134    1.956   .     S
Cu107  O130    1.958   .     S
Cu108  O129    1.958   .     S
Cu108  O132    1.953   .     S
Cu108  O128    1.957   .     S
Cu108  N125    2.005   .     S
Cu108  O133    1.956   .     S
H109   C171    1.087   .     S
O135   C136    1.413   .     S
C136   H138    1.117   .     S
C136   H605    1.111   1_554 S
C136   C607    1.527   1_554 S
H137   C604    1.111   .     S
C139   H140    1.112   .     S
C139   C604    1.527   .     S
C139   H609    1.112   .     S
H141   C607    1.112   1_554 S
C142   H145    1.111   .     S
C142   H143    1.111   .     S
C142   H144    1.110   .     S
C142   C217    1.527   .     S
O146   C147    1.418   .     S
C147   C150    1.539   .     S
C147   H149    1.108   .     S
C147   H148    1.111   .     S
C150   H152    1.111   .     S
C150   H151    1.111   .     S
C153   H154    1.111   .     S
C153   H156    1.111   .     S
C153   H155    1.111   .     S
C153   C228    1.527   .     S
C157   C177    1.460   .     S
C157   O207    1.291   .     A
C157   O205    1.291   .     A
C158   O206    1.291   .     A
C158   C178    1.460   .     S
C158   O208    1.291   .     A
C159   H197    1.083   .     S
C159   C161    1.408   .     A
C159   C167    1.406   .     A
C160   C168    1.407   .     A
C160   C162    1.407   .     A
C160   H198    1.083   .     S
C161   N203    1.366   .     A
C161   H199    1.081   .     S
C162   N204    1.364   .     A
C162   H200    1.081   .     S
C163   H201    1.081   .     S
C163   N203    1.366   .     A
C163   C165    1.412   .     A
C164   N204    1.365   .     A
C164   H202    1.081   .     S
C164   C166    1.412   .     A
C165   O213    1.384   .     S
C165   C167    1.416   .     A
C166   C168    1.419   .     A
C166   O224    1.386   .     S
C167   C636    1.507   1_554 S
C168   C635    1.507   .     S
C169   O209    1.282   .     A
C169   C171    1.432   .     S
C169   O211    1.285   .     A
C170   O212    1.285   .     A
C170   C172    1.432   .     S
C170   O210    1.283   .     A
C172   C15     1.335   1_655 S
C172   H32     1.088   1_655 S
C173   H189    1.083   .     S
C173   C183    1.404   .     A
C173   C175    1.390   .     A
C174   C184    1.404   .     A
C174   H190    1.083   .     S
C174   C176    1.390   .     A
C175   C177    1.402   .     A
C175   H191    1.083   .     S
C176   C178    1.402   .     A
C176   H192    1.083   .     S
C177   C179    1.402   .     A
C178   C180    1.402   .     A
C179   H193    1.083   .     S
C179   C181    1.390   .     A
C180   C182    1.390   .     A
C180   H194    1.083   .     S
C181   C183    1.404   .     A
C181   H195    1.083   .     S
C182   C184    1.404   .     A
C182   H196    1.083   .     S
C183   C418    1.471   1_545 S
C184   C417    1.471   .     S
Cu185  O205    1.957   .     S
Cu185  N204    2.005   .     S
Cu185  O209    1.953   .     S
Cu185  Cu186   2.668   .     S
Cu185  O212    1.956   .     S
Cu185  O208    1.958   .     S
Cu186  O207    1.958   .     S
Cu186  O210    1.953   .     S
Cu186  O206    1.957   .     S
Cu186  N203    2.005   .     S
Cu186  O211    1.956   .     S
H187   C15     1.087   1_655 S
O213   C214    1.413   .     S
C214   H216    1.117   .     S
C214   H683    1.111   1_554 S
C214   C685    1.527   1_554 S
H215   C682    1.111   .     S
C217   H218    1.112   .     S
C217   C682    1.527   .     S
C217   H687    1.112   .     S
H219   C685    1.112   1_554 S
C220   H223    1.111   .     S
C220   H221    1.111   .     S
C220   H222    1.110   .     S
C220   C61     1.527   1_655 S
O224   C225    1.418   .     S
C225   C228    1.539   .     S
C225   H227    1.108   .     S
C225   H226    1.111   .     S
C228   H230    1.111   .     S
C228   H229    1.111   .     S
C231   H232    1.111   .     S
C231   H234    1.111   .     S
C231   H233    1.111   .     S
C231   C72     1.527   1_655 S
C235   C255    1.460   .     S
C235   O285    1.291   .     A
C235   O283    1.291   .     A
C236   O284    1.291   .     A
C236   C256    1.460   .     S
C236   O286    1.291   .     A
C237   H275    1.083   .     S
C237   C239    1.408   .     A
C237   C245    1.406   .     A
C238   C246    1.407   .     A
C238   C240    1.407   .     A
C238   H276    1.083   .     S
C239   N281    1.366   .     A
C239   H277    1.081   .     S
C240   N282    1.364   .     A
C240   H278    1.081   .     S
C241   H279    1.081   .     S
C241   N281    1.366   .     A
C241   C243    1.412   .     A
C242   N282    1.365   .     A
C242   H280    1.081   .     S
C242   C244    1.412   .     A
C243   O291    1.384   .     S
C243   C245    1.416   .     A
C244   C246    1.419   .     A
C244   O302    1.386   .     S
C245   C714    1.507   1_554 S
C246   C713    1.507   .     S
C247   O287    1.282   .     A
C247   C249    1.432   .     S
C247   O289    1.285   .     A
C248   O290    1.285   .     A
C248   C250    1.432   .     S
C248   O288    1.283   .     A
C249   C406    1.335   1_455 S
C249   H421    1.087   1_455 S
C250   C327    1.335   .     S
C250   H344    1.088   .     S
C251   H267    1.083   .     S
C251   C261    1.404   .     A
C251   C253    1.390   .     A
C252   C262    1.404   .     A
C252   H268    1.083   .     S
C252   C254    1.390   .     A
C253   C255    1.402   .     A
C253   H269    1.083   .     S
C254   C256    1.402   .     A
C254   H270    1.083   .     S
C255   C257    1.402   .     A
C256   C258    1.402   .     A
C257   H271    1.083   .     S
C257   C259    1.390   .     A
C258   C260    1.390   .     A
C258   H272    1.083   .     S
C259   C261    1.404   .     A
C259   H273    1.083   .     S
C260   C262    1.404   .     A
C260   H274    1.083   .     S
C262   C27     1.471   1_565 S
Cu263  O283    1.957   .     S
Cu263  N282    2.005   .     S
Cu263  O287    1.953   .     S
Cu263  Cu264   2.668   .     S
Cu263  O290    1.956   .     S
Cu263  O286    1.958   .     S
Cu264  O285    1.958   .     S
Cu264  O288    1.953   .     S
Cu264  O284    1.957   .     S
Cu264  N281    2.005   .     S
Cu264  O289    1.956   .     S
H265   C327    1.087   .     S
H266   C406    1.088   1_455 S
O291   C292    1.413   .     S
C292   H294    1.117   .     S
C292   H761    1.111   1_554 S
C292   C763    1.527   1_554 S
H293   C760    1.111   .     S
C295   H296    1.112   .     S
C295   C760    1.527   .     S
C295   H765    1.112   .     S
C295   C454    1.527   1_455 S
H297   C763    1.112   1_554 S
C298   H301    1.111   .     S
C298   H299    1.111   .     S
C298   H300    1.110   .     S
C298   C373    1.527   .     S
O302   C303    1.418   .     S
C303   C306    1.539   .     S
C303   H305    1.108   .     S
C303   H304    1.111   .     S
C306   H308    1.111   .     S
C306   H307    1.111   .     S
C306   C465    1.527   1_455 S
C309   H310    1.111   .     S
C309   H312    1.111   .     S
C309   H311    1.111   .     S
C309   C384    1.527   .     S
C313   C333    1.460   .     S
C313   O363    1.291   .     A
C313   O361    1.291   .     A
C314   O362    1.291   .     A
C314   C334    1.460   .     S
C314   O364    1.291   .     A
C315   H353    1.083   .     S
C315   C317    1.408   .     A
C315   C323    1.406   .     A
C316   C324    1.407   .     A
C316   C318    1.407   .     A
C316   H354    1.083   .     S
C317   N359    1.366   .     A
C317   H355    1.081   .     S
C318   N360    1.364   .     A
C318   H356    1.081   .     S
C319   H357    1.081   .     S
C319   N359    1.366   .     A
C319   C321    1.412   .     A
C320   N360    1.365   .     A
C320   H358    1.081   .     S
C320   C322    1.412   .     A
C321   O369    1.384   .     S
C321   C323    1.416   .     A
C322   C324    1.419   .     A
C322   O380    1.386   .     S
C323   C792    1.507   1_554 S
C324   C791    1.507   .     S
C325   O365    1.282   .     A
C325   C327    1.432   .     S
C325   O367    1.285   .     A
C326   O368    1.285   .     A
C326   C328    1.432   .     S
C326   O366    1.283   .     A
C328   C405    1.335   .     S
C328   H422    1.088   .     S
C329   H345    1.083   .     S
C329   C339    1.404   .     A
C329   C331    1.390   .     A
C330   C340    1.404   .     A
C330   H346    1.083   .     S
C330   C332    1.390   .     A
C331   C333    1.402   .     A
C331   H347    1.083   .     S
C332   C334    1.402   .     A
C332   H348    1.083   .     S
C333   C335    1.402   .     A
C334   C336    1.402   .     A
C335   H349    1.083   .     S
C335   C337    1.390   .     A
C336   C338    1.390   .     A
C336   H350    1.083   .     S
C337   C339    1.404   .     A
C337   H351    1.083   .     S
C338   C340    1.404   .     A
C338   H352    1.083   .     S
C340   C105    1.471   1_565 S
Cu341  O361    1.957   .     S
Cu341  N360    2.005   .     S
Cu341  O365    1.953   .     S
Cu341  Cu342   2.668   .     S
Cu341  O368    1.956   .     S
Cu341  O364    1.958   .     S
Cu342  O363    1.958   .     S
Cu342  O366    1.953   .     S
Cu342  O362    1.957   .     S
Cu342  N359    2.005   .     S
Cu342  O367    1.956   .     S
H343   C405    1.087   .     S
O369   C370    1.413   .     S
C370   H372    1.117   .     S
C370   H839    1.111   1_554 S
C370   C841    1.527   1_554 S
H371   C838    1.111   .     S
C373   H374    1.112   .     S
C373   C838    1.527   .     S
C373   H843    1.112   .     S
H375   C841    1.112   1_554 S
C376   H379    1.111   .     S
C376   H377    1.111   .     S
C376   H378    1.110   .     S
C376   C451    1.527   .     S
O380   C381    1.418   .     S
C381   C384    1.539   .     S
C381   H383    1.108   .     S
C381   H382    1.111   .     S
C384   H386    1.111   .     S
C384   H385    1.111   .     S
C387   H388    1.111   .     S
C387   H390    1.111   .     S
C387   H389    1.111   .     S
C387   C462    1.527   .     S
C391   C411    1.460   .     S
C391   O441    1.291   .     A
C391   O439    1.291   .     A
C392   O440    1.291   .     A
C392   C412    1.460   .     S
C392   O442    1.291   .     A
C393   H431    1.083   .     S
C393   C395    1.408   .     A
C393   C401    1.406   .     A
C394   C402    1.407   .     A
C394   C396    1.407   .     A
C394   H432    1.083   .     S
C395   N437    1.366   .     A
C395   H433    1.081   .     S
C396   N438    1.364   .     A
C396   H434    1.081   .     S
C397   H435    1.081   .     S
C397   N437    1.366   .     A
C397   C399    1.412   .     A
C398   N438    1.365   .     A
C398   H436    1.081   .     S
C398   C400    1.412   .     A
C399   O447    1.384   .     S
C399   C401    1.416   .     A
C400   C402    1.419   .     A
C400   O458    1.386   .     S
C401   C870    1.507   1_554 S
C402   C869    1.507   .     S
C403   O443    1.282   .     A
C403   C405    1.432   .     S
C403   O445    1.285   .     A
C404   O446    1.285   .     A
C404   C406    1.432   .     S
C404   O444    1.283   .     A
C406   C249    1.335   1_655 S
C406   H266    1.088   1_655 S
C407   H423    1.083   .     S
C407   C417    1.404   .     A
C407   C409    1.390   .     A
C408   C418    1.404   .     A
C408   H424    1.083   .     S
C408   C410    1.390   .     A
C409   C411    1.402   .     A
C409   H425    1.083   .     S
C410   C412    1.402   .     A
C410   H426    1.083   .     S
C411   C413    1.402   .     A
C412   C414    1.402   .     A
C413   H427    1.083   .     S
C413   C415    1.390   .     A
C414   C416    1.390   .     A
C414   H428    1.083   .     S
C415   C417    1.404   .     A
C415   H429    1.083   .     S
C416   C418    1.404   .     A
C416   H430    1.083   .     S
C418   C183    1.471   1_565 S
Cu419  O439    1.957   .     S
Cu419  N438    2.005   .     S
Cu419  O443    1.953   .     S
Cu419  Cu420   2.668   .     S
Cu419  O446    1.956   .     S
Cu419  O442    1.958   .     S
Cu420  O441    1.958   .     S
Cu420  O444    1.953   .     S
Cu420  O440    1.957   .     S
Cu420  N437    2.005   .     S
Cu420  O445    1.956   .     S
H421   C249    1.087   1_655 S
O447   C448    1.413   .     S
C448   H450    1.117   .     S
C448   H917    1.111   1_554 S
C448   C919    1.527   1_554 S
H449   C916    1.111   .     S
C451   H452    1.112   .     S
C451   C916    1.527   .     S
C451   H921    1.112   .     S
H453   C919    1.112   1_554 S
C454   H457    1.111   .     S
C454   H455    1.111   .     S
C454   H456    1.110   .     S
C454   C295    1.527   1_655 S
O458   C459    1.418   .     S
C459   C462    1.539   .     S
C459   H461    1.108   .     S
C459   H460    1.111   .     S
C462   H464    1.111   .     S
C462   H463    1.111   .     S
C465   H466    1.111   .     S
C465   H468    1.111   .     S
C465   H467    1.111   .     S
C465   C306    1.527   1_655 S
C469   C489    1.460   .     S
C469   O519    1.291   .     A
C469   O517    1.291   .     A
C470   O518    1.291   .     A
C470   C490    1.460   .     S
C470   O520    1.291   .     A
C471   H509    1.083   .     S
C471   C473    1.408   .     A
C471   C479    1.406   .     A
C472   C480    1.407   .     A
C472   C474    1.407   .     A
C472   H510    1.083   .     S
C473   N515    1.366   .     A
C473   H511    1.081   .     S
C474   N516    1.364   .     A
C474   H512    1.081   .     S
C475   H513    1.081   .     S
C475   N515    1.366   .     A
C475   C477    1.412   .     A
C476   N516    1.365   .     A
C476   H514    1.081   .     S
C476   C478    1.412   .     A
C477   O525    1.384   .     S
C477   C479    1.416   .     A
C478   C480    1.419   .     A
C478   O536    1.386   .     S
C480   C11     1.507   1_556 S
C481   O521    1.282   .     A
C481   C483    1.432   .     S
C481   O523    1.285   .     A
C482   O524    1.285   .     A
C482   C484    1.432   .     S
C482   O522    1.283   .     A
C483   C640    1.335   1_455 S
C483   H655    1.087   1_455 S
C484   C561    1.335   .     S
C484   H578    1.088   .     S
C485   H501    1.083   .     S
C485   C495    1.404   .     A
C485   C487    1.390   .     A
C486   C496    1.404   .     A
C486   H502    1.083   .     S
C486   C488    1.390   .     A
C487   C489    1.402   .     A
C487   H503    1.083   .     S
C488   C490    1.402   .     A
C488   H504    1.083   .     S
C489   C491    1.402   .     A
C490   C492    1.402   .     A
C491   H505    1.083   .     S
C491   C493    1.390   .     A
C492   C494    1.390   .     A
C492   H506    1.083   .     S
C493   C495    1.404   .     A
C493   H507    1.083   .     S
C494   C496    1.404   .     A
C494   H508    1.083   .     S
C495   C730    1.471   1_545 S
C496   C729    1.471   .     S
Cu497  O517    1.957   .     S
Cu497  N516    2.005   .     S
Cu497  O521    1.953   .     S
Cu497  Cu498   2.668   .     S
Cu497  O524    1.956   .     S
Cu497  O520    1.958   .     S
Cu498  O519    1.958   .     S
Cu498  O522    1.953   .     S
Cu498  O518    1.957   .     S
Cu498  N515    2.005   .     S
Cu498  O523    1.956   .     S
H499   C561    1.087   .     S
H500   C640    1.088   1_455 S
O525   C526    1.413   .     S
C526   H528    1.117   .     S
H527   C58     1.111   1_556 S
C529   H530    1.112   .     S
C529   C58     1.527   1_556 S
C529   H63     1.112   1_556 S
C529   C688    1.527   1_455 S
C532   H535    1.111   .     S
C532   H533    1.111   .     S
C532   H534    1.110   .     S
C532   C607    1.527   .     S
O536   C537    1.418   .     S
C537   C540    1.539   .     S
C537   H539    1.108   .     S
C537   H538    1.111   .     S
C540   H542    1.111   .     S
C540   H541    1.111   .     S
C540   C699    1.527   1_455 S
C543   H544    1.111   .     S
C543   H546    1.111   .     S
C543   H545    1.111   .     S
C543   C618    1.527   .     S
C547   C567    1.460   .     S
C547   O597    1.291   .     A
C547   O595    1.291   .     A
C548   O596    1.291   .     A
C548   C568    1.460   .     S
C548   O598    1.291   .     A
C549   H587    1.083   .     S
C549   C551    1.408   .     A
C549   C557    1.406   .     A
C550   C558    1.407   .     A
C550   C552    1.407   .     A
C550   H588    1.083   .     S
C551   N593    1.366   .     A
C551   H589    1.081   .     S
C552   N594    1.364   .     A
C552   H590    1.081   .     S
C553   H591    1.081   .     S
C553   N593    1.366   .     A
C553   C555    1.412   .     A
C554   N594    1.365   .     A
C554   H592    1.081   .     S
C554   C556    1.412   .     A
C555   O603    1.384   .     S
C555   C557    1.416   .     A
C556   C558    1.419   .     A
C556   O614    1.386   .     S
C558   C89     1.507   1_556 S
C559   O599    1.282   .     A
C559   C561    1.432   .     S
C559   O601    1.285   .     A
C560   O602    1.285   .     A
C560   C562    1.432   .     S
C560   O600    1.283   .     A
C562   C639    1.335   .     S
C562   H656    1.088   .     S
C563   H579    1.083   .     S
C563   C573    1.404   .     A
C563   C565    1.390   .     A
C564   C574    1.404   .     A
C564   H580    1.083   .     S
C564   C566    1.390   .     A
C565   C567    1.402   .     A
C565   H581    1.083   .     S
C566   C568    1.402   .     A
C566   H582    1.083   .     S
C567   C569    1.402   .     A
C568   C570    1.402   .     A
C569   H583    1.083   .     S
C569   C571    1.390   .     A
C570   C572    1.390   .     A
C570   H584    1.083   .     S
C571   C573    1.404   .     A
C571   H585    1.083   .     S
C572   C574    1.404   .     A
C572   H586    1.083   .     S
C573   C808    1.471   1_545 S
C574   C807    1.471   .     S
Cu575  O595    1.957   .     S
Cu575  N594    2.005   .     S
Cu575  O599    1.953   .     S
Cu575  Cu576   2.668   .     S
Cu575  O602    1.956   .     S
Cu575  O598    1.958   .     S
Cu576  O597    1.958   .     S
Cu576  O600    1.953   .     S
Cu576  O596    1.957   .     S
Cu576  N593    2.005   .     S
Cu576  O601    1.956   .     S
H577   C639    1.087   .     S
O603   C604    1.413   .     S
C604   H606    1.117   .     S
H605   C136    1.111   1_556 S
C607   H608    1.112   .     S
C607   C136    1.527   1_556 S
C607   H141    1.112   1_556 S
C610   H613    1.111   .     S
C610   H611    1.111   .     S
C610   H612    1.110   .     S
C610   C685    1.527   .     S
O614   C615    1.418   .     S
C615   C618    1.539   .     S
C615   H617    1.108   .     S
C615   H616    1.111   .     S
C618   H620    1.111   .     S
C618   H619    1.111   .     S
C621   H622    1.111   .     S
C621   H624    1.111   .     S
C621   H623    1.111   .     S
C621   C696    1.527   .     S
C625   C645    1.460   .     S
C625   O675    1.291   .     A
C625   O673    1.291   .     A
C626   O674    1.291   .     A
C626   C646    1.460   .     S
C626   O676    1.291   .     A
C627   H665    1.083   .     S
C627   C629    1.408   .     A
C627   C635    1.406   .     A
C628   C636    1.407   .     A
C628   C630    1.407   .     A
C628   H666    1.083   .     S
C629   N671    1.366   .     A
C629   H667    1.081   .     S
C630   N672    1.364   .     A
C630   H668    1.081   .     S
C631   H669    1.081   .     S
C631   N671    1.366   .     A
C631   C633    1.412   .     A
C632   N672    1.365   .     A
C632   H670    1.081   .     S
C632   C634    1.412   .     A
C633   O681    1.384   .     S
C633   C635    1.416   .     A
C634   C636    1.419   .     A
C634   O692    1.386   .     S
C636   C167    1.507   1_556 S
C637   O677    1.282   .     A
C637   C639    1.432   .     S
C637   O679    1.285   .     A
C638   O680    1.285   .     A
C638   C640    1.432   .     S
C638   O678    1.283   .     A
C640   C483    1.335   1_655 S
C640   H500    1.088   1_655 S
C641   H657    1.083   .     S
C641   C651    1.404   .     A
C641   C643    1.390   .     A
C642   C652    1.404   .     A
C642   H658    1.083   .     S
C642   C644    1.390   .     A
C643   C645    1.402   .     A
C643   H659    1.083   .     S
C644   C646    1.402   .     A
C644   H660    1.083   .     S
C645   C647    1.402   .     A
C646   C648    1.402   .     A
C647   H661    1.083   .     S
C647   C649    1.390   .     A
C648   C650    1.390   .     A
C648   H662    1.083   .     S
C649   C651    1.404   .     A
C649   H663    1.083   .     S
C650   C652    1.404   .     A
C650   H664    1.083   .     S
C651   C886    1.471   1_545 S
C652   C885    1.471   .     S
Cu653  O673    1.957   .     S
Cu653  N672    2.005   .     S
Cu653  O677    1.953   .     S
Cu653  Cu654   2.668   .     S
Cu653  O680    1.956   .     S
Cu653  O676    1.958   .     S
Cu654  O675    1.958   .     S
Cu654  O678    1.953   .     S
Cu654  O674    1.957   .     S
Cu654  N671    2.005   .     S
Cu654  O679    1.956   .     S
H655   C483    1.087   1_655 S
O681   C682    1.413   .     S
C682   H684    1.117   .     S
H683   C214    1.111   1_556 S
C685   H686    1.112   .     S
C685   C214    1.527   1_556 S
C685   H219    1.112   1_556 S
C688   H691    1.111   .     S
C688   H689    1.111   .     S
C688   H690    1.110   .     S
C688   C529    1.527   1_655 S
O692   C693    1.418   .     S
C693   C696    1.539   .     S
C693   H695    1.108   .     S
C693   H694    1.111   .     S
C696   H698    1.111   .     S
C696   H697    1.111   .     S
C699   H700    1.111   .     S
C699   H702    1.111   .     S
C699   H701    1.111   .     S
C699   C540    1.527   1_655 S
C703   C723    1.460   .     S
C703   O753    1.291   .     A
C703   O751    1.291   .     A
C704   O752    1.291   .     A
C704   C724    1.460   .     S
C704   O754    1.291   .     A
C705   H743    1.083   .     S
C705   C707    1.408   .     A
C705   C713    1.406   .     A
C706   C714    1.407   .     A
C706   C708    1.407   .     A
C706   H744    1.083   .     S
C707   N749    1.366   .     A
C707   H745    1.081   .     S
C708   N750    1.364   .     A
C708   H746    1.081   .     S
C709   H747    1.081   .     S
C709   N749    1.366   .     A
C709   C711    1.412   .     A
C710   N750    1.365   .     A
C710   H748    1.081   .     S
C710   C712    1.412   .     A
C711   O759    1.384   .     S
C711   C713    1.416   .     A
C712   C714    1.419   .     A
C712   O770    1.386   .     S
C714   C245    1.507   1_556 S
C715   O755    1.282   .     A
C715   C717    1.432   .     S
C715   O757    1.285   .     A
C716   O758    1.285   .     A
C716   C718    1.432   .     S
C716   O756    1.283   .     A
C717   C874    1.335   1_455 S
C717   H889    1.087   1_455 S
C718   C795    1.335   .     S
C718   H812    1.088   .     S
C719   H735    1.083   .     S
C719   C729    1.404   .     A
C719   C721    1.390   .     A
C720   C730    1.404   .     A
C720   H736    1.083   .     S
C720   C722    1.390   .     A
C721   C723    1.402   .     A
C721   H737    1.083   .     S
C722   C724    1.402   .     A
C722   H738    1.083   .     S
C723   C725    1.402   .     A
C724   C726    1.402   .     A
C725   H739    1.083   .     S
C725   C727    1.390   .     A
C726   C728    1.390   .     A
C726   H740    1.083   .     S
C727   C729    1.404   .     A
C727   H741    1.083   .     S
C728   C730    1.404   .     A
C728   H742    1.083   .     S
C730   C495    1.471   1_565 S
Cu731  O751    1.957   .     S
Cu731  N750    2.005   .     S
Cu731  O755    1.953   .     S
Cu731  Cu732   2.668   .     S
Cu731  O758    1.956   .     S
Cu731  O754    1.958   .     S
Cu732  O753    1.958   .     S
Cu732  O756    1.953   .     S
Cu732  O752    1.957   .     S
Cu732  N749    2.005   .     S
Cu732  O757    1.956   .     S
H733   C795    1.087   .     S
H734   C874    1.088   1_455 S
O759   C760    1.413   .     S
C760   H762    1.117   .     S
H761   C292    1.111   1_556 S
C763   H764    1.112   .     S
C763   C292    1.527   1_556 S
C763   H297    1.112   1_556 S
C763   C922    1.527   1_455 S
C766   H769    1.111   .     S
C766   H767    1.111   .     S
C766   H768    1.110   .     S
C766   C841    1.527   .     S
O770   C771    1.418   .     S
C771   C774    1.539   .     S
C771   H773    1.108   .     S
C771   H772    1.111   .     S
C774   H776    1.111   .     S
C774   H775    1.111   .     S
C774   C933    1.527   1_455 S
C777   H778    1.111   .     S
C777   H780    1.111   .     S
C777   H779    1.111   .     S
C777   C852    1.527   .     S
C781   C801    1.460   .     S
C781   O831    1.291   .     A
C781   O829    1.291   .     A
C782   O830    1.291   .     A
C782   C802    1.460   .     S
C782   O832    1.291   .     A
C783   H821    1.083   .     S
C783   C785    1.408   .     A
C783   C791    1.406   .     A
C784   C792    1.407   .     A
C784   C786    1.407   .     A
C784   H822    1.083   .     S
C785   N827    1.366   .     A
C785   H823    1.081   .     S
C786   N828    1.364   .     A
C786   H824    1.081   .     S
C787   H825    1.081   .     S
C787   N827    1.366   .     A
C787   C789    1.412   .     A
C788   N828    1.365   .     A
C788   H826    1.081   .     S
C788   C790    1.412   .     A
C789   O837    1.384   .     S
C789   C791    1.416   .     A
C790   C792    1.419   .     A
C790   O848    1.386   .     S
C792   C323    1.507   1_556 S
C793   O833    1.282   .     A
C793   C795    1.432   .     S
C793   O835    1.285   .     A
C794   O836    1.285   .     A
C794   C796    1.432   .     S
C794   O834    1.283   .     A
C796   C873    1.335   .     S
C796   H890    1.088   .     S
C797   H813    1.083   .     S
C797   C807    1.404   .     A
C797   C799    1.390   .     A
C798   C808    1.404   .     A
C798   H814    1.083   .     S
C798   C800    1.390   .     A
C799   C801    1.402   .     A
C799   H815    1.083   .     S
C800   C802    1.402   .     A
C800   H816    1.083   .     S
C801   C803    1.402   .     A
C802   C804    1.402   .     A
C803   H817    1.083   .     S
C803   C805    1.390   .     A
C804   C806    1.390   .     A
C804   H818    1.083   .     S
C805   C807    1.404   .     A
C805   H819    1.083   .     S
C806   C808    1.404   .     A
C806   H820    1.083   .     S
C808   C573    1.471   1_565 S
Cu809  O829    1.957   .     S
Cu809  N828    2.005   .     S
Cu809  O833    1.953   .     S
Cu809  Cu810   2.668   .     S
Cu809  O836    1.956   .     S
Cu809  O832    1.958   .     S
Cu810  O831    1.958   .     S
Cu810  O834    1.953   .     S
Cu810  O830    1.957   .     S
Cu810  N827    2.005   .     S
Cu810  O835    1.956   .     S
H811   C873    1.087   .     S
O837   C838    1.413   .     S
C838   H840    1.117   .     S
H839   C370    1.111   1_556 S
C841   H842    1.112   .     S
C841   C370    1.527   1_556 S
C841   H375    1.112   1_556 S
C844   H847    1.111   .     S
C844   H845    1.111   .     S
C844   H846    1.110   .     S
C844   C919    1.527   .     S
O848   C849    1.418   .     S
C849   C852    1.539   .     S
C849   H851    1.108   .     S
C849   H850    1.111   .     S
C852   H854    1.111   .     S
C852   H853    1.111   .     S
C855   H856    1.111   .     S
C855   H858    1.111   .     S
C855   H857    1.111   .     S
C855   C930    1.527   .     S
C859   C879    1.460   .     S
C859   O909    1.291   .     A
C859   O907    1.291   .     A
C860   O908    1.291   .     A
C860   C880    1.460   .     S
C860   O910    1.291   .     A
C861   H899    1.083   .     S
C861   C863    1.408   .     A
C861   C869    1.406   .     A
C862   C870    1.407   .     A
C862   C864    1.407   .     A
C862   H900    1.083   .     S
C863   N905    1.366   .     A
C863   H901    1.081   .     S
C864   N906    1.364   .     A
C864   H902    1.081   .     S
C865   H903    1.081   .     S
C865   N905    1.366   .     A
C865   C867    1.412   .     A
C866   N906    1.365   .     A
C866   H904    1.081   .     S
C866   C868    1.412   .     A
C867   O915    1.384   .     S
C867   C869    1.416   .     A
C868   C870    1.419   .     A
C868   O926    1.386   .     S
C870   C401    1.507   1_556 S
C871   O911    1.282   .     A
C871   C873    1.432   .     S
C871   O913    1.285   .     A
C872   O914    1.285   .     A
C872   C874    1.432   .     S
C872   O912    1.283   .     A
C874   C717    1.335   1_655 S
C874   H734    1.088   1_655 S
C875   H891    1.083   .     S
C875   C885    1.404   .     A
C875   C877    1.390   .     A
C876   C886    1.404   .     A
C876   H892    1.083   .     S
C876   C878    1.390   .     A
C877   C879    1.402   .     A
C877   H893    1.083   .     S
C878   C880    1.402   .     A
C878   H894    1.083   .     S
C879   C881    1.402   .     A
C880   C882    1.402   .     A
C881   H895    1.083   .     S
C881   C883    1.390   .     A
C882   C884    1.390   .     A
C882   H896    1.083   .     S
C883   C885    1.404   .     A
C883   H897    1.083   .     S
C884   C886    1.404   .     A
C884   H898    1.083   .     S
C886   C651    1.471   1_565 S
Cu887  O907    1.957   .     S
Cu887  N906    2.005   .     S
Cu887  O911    1.953   .     S
Cu887  Cu888   2.668   .     S
Cu887  O914    1.956   .     S
Cu887  O910    1.958   .     S
Cu888  O909    1.958   .     S
Cu888  O912    1.953   .     S
Cu888  O908    1.957   .     S
Cu888  N905    2.005   .     S
Cu888  O913    1.956   .     S
H889   C717    1.087   1_655 S
O915   C916    1.413   .     S
C916   H918    1.117   .     S
H917   C448    1.111   1_556 S
C919   H920    1.112   .     S
C919   C448    1.527   1_556 S
C919   H453    1.112   1_556 S
C922   H925    1.111   .     S
C922   H923    1.111   .     S
C922   H924    1.110   .     S
C922   C763    1.527   1_655 S
O926   C927    1.418   .     S
C927   C930    1.539   .     S
C927   H929    1.108   .     S
C927   H928    1.111   .     S
C930   H932    1.111   .     S
C930   H931    1.111   .     S
C933   H934    1.111   .     S
C933   H936    1.111   .     S
C933   H935    1.111   .     S
C933   C774    1.527   1_655 S
