data_str_m2_o1_o18_pcu_sym.220
_audit_creation_date              2020-01-03
_audit_creation_method            'Materials Studio'
_symmetry_space_group_name_H-M    'P1'
_symmetry_Int_Tables_number       1
_symmetry_cell_setting            triclinic
loop_
_symmetry_equiv_pos_as_xyz
  x,y,z
_cell_length_a                    28.8416
_cell_length_b                    32.4872
_cell_length_c                    30.8155
_cell_angle_alpha                 87.7429
_cell_angle_beta                  74.6304
_cell_angle_gamma                 90.2386
loop_
_atom_site_label
_atom_site_type_symbol
_atom_site_fract_x
_atom_site_fract_y
_atom_site_fract_z
_atom_site_U_iso_or_equiv
_atom_site_adp_type
_atom_site_occupancy
C1     C     0.00010   0.08748   0.24988   0.00000  Uiso   1.00
C2     C     0.33332   0.24588   0.25050   0.00000  Uiso   1.00
C3     C     0.19368   0.16556   0.04904   0.00000  Uiso   1.00
C4     C     0.14336   0.19867   0.45423   0.00000  Uiso   1.00
C5     C     0.24180   0.16079   0.02719   0.00000  Uiso   1.00
C6     C     0.09633   0.20761   0.47697   0.00000  Uiso   1.00
C7     C     0.29823   0.02167   0.23646   0.00000  Uiso   1.00
C8     C     0.03695   0.31173   0.26309   0.00000  Uiso   1.00
C9     C     0.29708   0.31250   0.23853   0.00000  Uiso   1.00
C10    C     0.03700   0.02112   0.26285   0.00000  Uiso   1.00
C11    C     0.00017   0.29057   0.25092   0.00000  Uiso   1.00
C12    C     0.00069   0.04287   0.24970   0.00000  Uiso   1.00
C13    C     0.18293   0.14214   0.28032   0.00000  Uiso   1.00
C14    C     0.15152   0.18818   0.21697   0.00000  Uiso   1.00
C15    C     0.13243   0.14364   0.28193   0.00000  Uiso   1.00
C16    C     0.20116   0.18760   0.21669   0.00000  Uiso   1.00
C17    C     0.30596   0.16768   0.33616   0.00000  Uiso   1.00
C18    C     0.02720   0.16797   0.16389   0.00000  Uiso   1.00
C19    C     0.29005   0.16905   0.38575   0.00000  Uiso   1.00
C20    C     0.04271   0.17493   0.11472   0.00000  Uiso   1.00
C21    C     0.30668   0.15869   0.45834   0.00000  Uiso   1.00
C22    C     0.03084   0.20679   0.04594   0.00000  Uiso   1.00
C23    C     0.32268   0.16499   0.41175   0.00000  Uiso   1.00
C24    C     0.01279   0.19401   0.09125   0.00000  Uiso   1.00
C25    C     0.24109   0.17348   0.40740   0.00000  Uiso   1.00
C26    C     0.09050   0.16733   0.09227   0.00000  Uiso   1.00
C27    C     0.22450   0.17359   0.45473   0.00000  Uiso   1.00
C28    C     0.11000   0.18009   0.04696   0.00000  Uiso   1.00
C29    C     0.25770   0.16407   0.48028   0.00000  Uiso   1.00
C30    C     0.07891   0.19820   0.02311   0.00000  Uiso   1.00
C31    C     0.17576   0.18194   0.47729   0.00000  Uiso   1.00
C32    C     0.15953   0.17517   0.02482   0.00000  Uiso   1.00
Cu33   Cu    0.04689   0.16667   0.25000   0.00000  Uiso   1.00
Cu34   Cu    0.28645   0.16666   0.25000   0.00000  Uiso   1.00
H35    H     0.26663   0.15445   0.04747   0.00000  Uiso   1.00
H36    H     0.07333   0.22144   0.45793   0.00000  Uiso   1.00
H37    H     0.11173   0.15067   0.11089   0.00000  Uiso   1.00
H38    H     0.21624   0.17599   0.38680   0.00000  Uiso   1.00
H39    H     0.30913   0.20016   0.10813   0.00000  Uiso   1.00
H40    H     0.02719   0.16584   0.39603   0.00000  Uiso   1.00
H41    H     0.18474   0.16362   0.08533   0.00000  Uiso   1.00
H42    H     0.15407   0.20725   0.41879   0.00000  Uiso   1.00
H43    H     0.27132   0.03783   0.22418   0.00000  Uiso   1.00
H44    H     0.06511   0.29535   0.27345   0.00000  Uiso   1.00
H45    H     0.26786   0.29707   0.23002   0.00000  Uiso   1.00
H46    H     0.06515   0.03703   0.27318   0.00000  Uiso   1.00
N47    N     0.11736   0.16668   0.24999   0.00000  Uiso   1.00
N48    N     0.21597   0.16666   0.25001   0.00000  Uiso   1.00
O49    O     0.03958   0.10655   0.25000   0.00000  Uiso   1.00
O50    O     0.29375   0.22678   0.25000   0.00000  Uiso   1.00
O51    O     0.29372   0.10654   0.25000   0.00000  Uiso   1.00
O52    O     0.03961   0.22679   0.25000   0.00000  Uiso   1.00
O53    O     0.01852   0.16668   0.31492   0.00000  Uiso   1.00
O54    O     0.31481   0.16666   0.18508   0.00000  Uiso   1.00
O55    O     0.27267   0.16667   0.31492   0.00000  Uiso   1.00
O56    O     0.06067   0.16667   0.18508   0.00000  Uiso   1.00
O57    O     0.00650   0.14954   0.48228   0.00000  Uiso   1.00
C58    C     0.00954   0.10638   0.48690   0.00000  Uiso   1.00
H59    H     0.02124   0.09216   0.45358   0.00000  Uiso   1.00
H60    H     0.30808   0.09237   0.00680   0.00000  Uiso   1.00
H61    H     0.03687   0.09915   0.00540   0.00000  Uiso   1.00
O62    O     0.00074   0.22597   0.02342   0.00000  Uiso   1.00
C63    C     0.32941   0.26752   0.03523   0.00000  Uiso   1.00
H64    H     0.03168   0.28368   0.02669   0.00000  Uiso   1.00
H65    H     0.31088   0.27028   0.07155   0.00000  Uiso   1.00
H66    H     0.30704   0.28328   0.01557   0.00000  Uiso   1.00
O67    O     0.19980   0.11368   0.30675   0.00000  Uiso   1.00
C68    C     0.19542   0.07373   0.29137   0.00000  Uiso   1.00
H69    H     0.20449   0.07306   0.25396   0.00000  Uiso   1.00
H70    H     0.15873   0.06061   0.30547   0.00000  Uiso   1.00
H71    H     0.22034   0.05314   0.30346   0.00000  Uiso   1.00
O72    O     0.13951   0.20451   0.17932   0.00000  Uiso   1.00
C73    C     0.12880   0.24680   0.18380   0.00000  Uiso   1.00
H74    H     0.15528   0.26516   0.15753   0.00000  Uiso   1.00
H75    H     0.12776   0.25894   0.21741   0.00000  Uiso   1.00
H76    H     0.09360   0.25228   0.17662   0.00000  Uiso   1.00
O77    O     0.09885   0.11789   0.31132   0.00000  Uiso   1.00
C78    C     0.10078   0.12151   0.35637   0.00000  Uiso   1.00
H79    H     0.06655   0.10903   0.37848   0.00000  Uiso   1.00
H80    H     0.10612   0.15396   0.36466   0.00000  Uiso   1.00
H81    H     0.12843   0.10175   0.36495   0.00000  Uiso   1.00
O82    O     0.23523   0.19996   0.17766   0.00000  Uiso   1.00
C83    C     0.24171   0.24309   0.17437   0.00000  Uiso   1.00
H84    H     0.27962   0.25036   0.17311   0.00000  Uiso   1.00
H85    H     0.21743   0.25999   0.20202   0.00000  Uiso   1.00
H86    H     0.23641   0.25470   0.14174   0.00000  Uiso   1.00
C87    C     0.33343   0.08748   0.24988   0.00000  Uiso   1.00
C88    C     0.66665   0.24588   0.25050   0.00000  Uiso   1.00
C89    C     0.52701   0.16556   0.04904   0.00000  Uiso   1.00
C90    C     0.47670   0.19867   0.45423   0.00000  Uiso   1.00
C91    C     0.57514   0.16079   0.02719   0.00000  Uiso   1.00
C92    C     0.42967   0.20761   0.47697   0.00000  Uiso   1.00
C93    C     0.63156   0.02167   0.23646   0.00000  Uiso   1.00
C94    C     0.37029   0.31173   0.26309   0.00000  Uiso   1.00
C95    C     0.63041   0.31250   0.23853   0.00000  Uiso   1.00
C96    C     0.37033   0.02112   0.26285   0.00000  Uiso   1.00
C97    C     0.33350   0.29057   0.25092   0.00000  Uiso   1.00
C98    C     0.33403   0.04287   0.24970   0.00000  Uiso   1.00
C99    C     0.51626   0.14214   0.28032   0.00000  Uiso   1.00
C100   C     0.48485   0.18818   0.21697   0.00000  Uiso   1.00
C101   C     0.46576   0.14364   0.28193   0.00000  Uiso   1.00
C102   C     0.53449   0.18760   0.21669   0.00000  Uiso   1.00
C103   C     0.63929   0.16768   0.33616   0.00000  Uiso   1.00
C104   C     0.36054   0.16797   0.16389   0.00000  Uiso   1.00
C105   C     0.62338   0.16905   0.38575   0.00000  Uiso   1.00
C106   C     0.37604   0.17493   0.11472   0.00000  Uiso   1.00
C107   C     0.64001   0.15869   0.45834   0.00000  Uiso   1.00
C108   C     0.36418   0.20679   0.04594   0.00000  Uiso   1.00
C109   C     0.65601   0.16499   0.41175   0.00000  Uiso   1.00
C110   C     0.34613   0.19401   0.09125   0.00000  Uiso   1.00
C111   C     0.57442   0.17348   0.40740   0.00000  Uiso   1.00
C112   C     0.42383   0.16733   0.09227   0.00000  Uiso   1.00
C113   C     0.55783   0.17359   0.45473   0.00000  Uiso   1.00
C114   C     0.44333   0.18009   0.04696   0.00000  Uiso   1.00
C115   C     0.59104   0.16407   0.48028   0.00000  Uiso   1.00
C116   C     0.41224   0.19820   0.02311   0.00000  Uiso   1.00
C117   C     0.50909   0.18194   0.47729   0.00000  Uiso   1.00
C118   C     0.49287   0.17517   0.02482   0.00000  Uiso   1.00
Cu119  Cu    0.38022   0.16667   0.25000   0.00000  Uiso   1.00
Cu120  Cu    0.61978   0.16666   0.25000   0.00000  Uiso   1.00
H121   H     0.59996   0.15445   0.04747   0.00000  Uiso   1.00
H122   H     0.40666   0.22144   0.45793   0.00000  Uiso   1.00
H123   H     0.44507   0.15067   0.11089   0.00000  Uiso   1.00
H124   H     0.54957   0.17599   0.38680   0.00000  Uiso   1.00
H125   H     0.64247   0.20016   0.10813   0.00000  Uiso   1.00
H126   H     0.36053   0.16584   0.39603   0.00000  Uiso   1.00
H127   H     0.51807   0.16362   0.08533   0.00000  Uiso   1.00
H128   H     0.48740   0.20725   0.41879   0.00000  Uiso   1.00
H129   H     0.60465   0.03783   0.22418   0.00000  Uiso   1.00
H130   H     0.39844   0.29535   0.27345   0.00000  Uiso   1.00
H131   H     0.60120   0.29707   0.23002   0.00000  Uiso   1.00
H132   H     0.39848   0.03703   0.27318   0.00000  Uiso   1.00
N133   N     0.45069   0.16668   0.24999   0.00000  Uiso   1.00
N134   N     0.54931   0.16666   0.25001   0.00000  Uiso   1.00
O135   O     0.37291   0.10655   0.25000   0.00000  Uiso   1.00
O136   O     0.62709   0.22678   0.25000   0.00000  Uiso   1.00
O137   O     0.62706   0.10654   0.25000   0.00000  Uiso   1.00
O138   O     0.37294   0.22679   0.25000   0.00000  Uiso   1.00
O139   O     0.35186   0.16668   0.31492   0.00000  Uiso   1.00
O140   O     0.64814   0.16666   0.18508   0.00000  Uiso   1.00
O141   O     0.60600   0.16667   0.31492   0.00000  Uiso   1.00
O142   O     0.39400   0.16667   0.18508   0.00000  Uiso   1.00
O143   O     0.33984   0.14954   0.48228   0.00000  Uiso   1.00
C144   C     0.34287   0.10638   0.48690   0.00000  Uiso   1.00
H145   H     0.35457   0.09216   0.45358   0.00000  Uiso   1.00
H146   H     0.64142   0.09237   0.00680   0.00000  Uiso   1.00
H147   H     0.37021   0.09915   0.00540   0.00000  Uiso   1.00
O148   O     0.33408   0.22597   0.02342   0.00000  Uiso   1.00
C149   C     0.66274   0.26752   0.03523   0.00000  Uiso   1.00
H150   H     0.36501   0.28368   0.02669   0.00000  Uiso   1.00
H151   H     0.64421   0.27028   0.07155   0.00000  Uiso   1.00
H152   H     0.64038   0.28328   0.01557   0.00000  Uiso   1.00
O153   O     0.53313   0.11368   0.30675   0.00000  Uiso   1.00
C154   C     0.52876   0.07373   0.29137   0.00000  Uiso   1.00
H155   H     0.53782   0.07306   0.25396   0.00000  Uiso   1.00
H156   H     0.49206   0.06061   0.30547   0.00000  Uiso   1.00
H157   H     0.55368   0.05314   0.30346   0.00000  Uiso   1.00
O158   O     0.47284   0.20451   0.17932   0.00000  Uiso   1.00
C159   C     0.46213   0.24680   0.18380   0.00000  Uiso   1.00
H160   H     0.48861   0.26516   0.15753   0.00000  Uiso   1.00
H161   H     0.46109   0.25894   0.21741   0.00000  Uiso   1.00
H162   H     0.42693   0.25228   0.17662   0.00000  Uiso   1.00
O163   O     0.43219   0.11789   0.31132   0.00000  Uiso   1.00
C164   C     0.43411   0.12151   0.35637   0.00000  Uiso   1.00
H165   H     0.39988   0.10903   0.37848   0.00000  Uiso   1.00
H166   H     0.43945   0.15396   0.36466   0.00000  Uiso   1.00
H167   H     0.46176   0.10175   0.36495   0.00000  Uiso   1.00
O168   O     0.56857   0.19996   0.17766   0.00000  Uiso   1.00
C169   C     0.57504   0.24309   0.17437   0.00000  Uiso   1.00
H170   H     0.61296   0.25036   0.17311   0.00000  Uiso   1.00
H171   H     0.55076   0.25999   0.20202   0.00000  Uiso   1.00
H172   H     0.56974   0.25470   0.14174   0.00000  Uiso   1.00
C173   C     0.66676   0.08748   0.24988   0.00000  Uiso   1.00
C174   C     0.99999   0.24588   0.25050   0.00000  Uiso   1.00
C175   C     0.86034   0.16556   0.04904   0.00000  Uiso   1.00
C176   C     0.81003   0.19867   0.45423   0.00000  Uiso   1.00
C177   C     0.90847   0.16079   0.02719   0.00000  Uiso   1.00
C178   C     0.76300   0.20761   0.47697   0.00000  Uiso   1.00
C179   C     0.96490   0.02167   0.23646   0.00000  Uiso   1.00
C180   C     0.70362   0.31173   0.26309   0.00000  Uiso   1.00
C181   C     0.96374   0.31250   0.23853   0.00000  Uiso   1.00
C182   C     0.70367   0.02112   0.26285   0.00000  Uiso   1.00
C183   C     0.66684   0.29057   0.25092   0.00000  Uiso   1.00
C184   C     0.66736   0.04287   0.24970   0.00000  Uiso   1.00
C185   C     0.84959   0.14214   0.28032   0.00000  Uiso   1.00
C186   C     0.81818   0.18818   0.21697   0.00000  Uiso   1.00
C187   C     0.79909   0.14364   0.28193   0.00000  Uiso   1.00
C188   C     0.86782   0.18760   0.21669   0.00000  Uiso   1.00
C189   C     0.97263   0.16768   0.33616   0.00000  Uiso   1.00
C190   C     0.69387   0.16797   0.16389   0.00000  Uiso   1.00
C191   C     0.95671   0.16905   0.38575   0.00000  Uiso   1.00
C192   C     0.70938   0.17493   0.11472   0.00000  Uiso   1.00
C193   C     0.97335   0.15869   0.45834   0.00000  Uiso   1.00
C194   C     0.69751   0.20679   0.04594   0.00000  Uiso   1.00
C195   C     0.98935   0.16499   0.41175   0.00000  Uiso   1.00
C196   C     0.67946   0.19401   0.09125   0.00000  Uiso   1.00
C197   C     0.90776   0.17348   0.40740   0.00000  Uiso   1.00
C198   C     0.75717   0.16733   0.09227   0.00000  Uiso   1.00
C199   C     0.89117   0.17359   0.45473   0.00000  Uiso   1.00
C200   C     0.77666   0.18009   0.04696   0.00000  Uiso   1.00
C201   C     0.92437   0.16407   0.48028   0.00000  Uiso   1.00
C202   C     0.74558   0.19820   0.02311   0.00000  Uiso   1.00
C203   C     0.84243   0.18194   0.47729   0.00000  Uiso   1.00
C204   C     0.82620   0.17517   0.02482   0.00000  Uiso   1.00
Cu205  Cu    0.71355   0.16667   0.25000   0.00000  Uiso   1.00
Cu206  Cu    0.95311   0.16666   0.25000   0.00000  Uiso   1.00
H207   H     0.93330   0.15445   0.04747   0.00000  Uiso   1.00
H208   H     0.74000   0.22144   0.45793   0.00000  Uiso   1.00
H209   H     0.77840   0.15067   0.11089   0.00000  Uiso   1.00
H210   H     0.88290   0.17599   0.38680   0.00000  Uiso   1.00
H211   H     0.97580   0.20016   0.10813   0.00000  Uiso   1.00
H212   H     0.69386   0.16584   0.39603   0.00000  Uiso   1.00
H213   H     0.85141   0.16362   0.08533   0.00000  Uiso   1.00
H214   H     0.82073   0.20725   0.41879   0.00000  Uiso   1.00
H215   H     0.93799   0.03783   0.22418   0.00000  Uiso   1.00
H216   H     0.73178   0.29535   0.27345   0.00000  Uiso   1.00
H217   H     0.93453   0.29707   0.23002   0.00000  Uiso   1.00
H218   H     0.73181   0.03703   0.27318   0.00000  Uiso   1.00
N219   N     0.78403   0.16668   0.24999   0.00000  Uiso   1.00
N220   N     0.88264   0.16666   0.25001   0.00000  Uiso   1.00
O221   O     0.70625   0.10655   0.25000   0.00000  Uiso   1.00
O222   O     0.96042   0.22678   0.25000   0.00000  Uiso   1.00
O223   O     0.96039   0.10654   0.25000   0.00000  Uiso   1.00
O224   O     0.70628   0.22679   0.25000   0.00000  Uiso   1.00
O225   O     0.68519   0.16668   0.31492   0.00000  Uiso   1.00
O226   O     0.98148   0.16666   0.18508   0.00000  Uiso   1.00
O227   O     0.93933   0.16667   0.31492   0.00000  Uiso   1.00
O228   O     0.72733   0.16667   0.18508   0.00000  Uiso   1.00
O229   O     0.67317   0.14954   0.48228   0.00000  Uiso   1.00
C230   C     0.67621   0.10638   0.48690   0.00000  Uiso   1.00
H231   H     0.68790   0.09216   0.45358   0.00000  Uiso   1.00
H232   H     0.97475   0.09237   0.00680   0.00000  Uiso   1.00
H233   H     0.70354   0.09915   0.00540   0.00000  Uiso   1.00
O234   O     0.66741   0.22597   0.02342   0.00000  Uiso   1.00
C235   C     0.99608   0.26752   0.03523   0.00000  Uiso   1.00
H236   H     0.69835   0.28368   0.02669   0.00000  Uiso   1.00
H237   H     0.97754   0.27028   0.07155   0.00000  Uiso   1.00
H238   H     0.97371   0.28328   0.01557   0.00000  Uiso   1.00
O239   O     0.86647   0.11368   0.30675   0.00000  Uiso   1.00
C240   C     0.86209   0.07373   0.29137   0.00000  Uiso   1.00
H241   H     0.87116   0.07306   0.25396   0.00000  Uiso   1.00
H242   H     0.82539   0.06061   0.30547   0.00000  Uiso   1.00
H243   H     0.88701   0.05314   0.30346   0.00000  Uiso   1.00
O244   O     0.80617   0.20451   0.17932   0.00000  Uiso   1.00
C245   C     0.79547   0.24680   0.18380   0.00000  Uiso   1.00
H246   H     0.82195   0.26516   0.15753   0.00000  Uiso   1.00
H247   H     0.79443   0.25894   0.21741   0.00000  Uiso   1.00
H248   H     0.76027   0.25228   0.17662   0.00000  Uiso   1.00
O249   O     0.76552   0.11789   0.31132   0.00000  Uiso   1.00
C250   C     0.76744   0.12151   0.35637   0.00000  Uiso   1.00
H251   H     0.73322   0.10903   0.37848   0.00000  Uiso   1.00
H252   H     0.77278   0.15396   0.36466   0.00000  Uiso   1.00
H253   H     0.79509   0.10175   0.36495   0.00000  Uiso   1.00
O254   O     0.90190   0.19996   0.17766   0.00000  Uiso   1.00
C255   C     0.90838   0.24309   0.17437   0.00000  Uiso   1.00
H256   H     0.94629   0.25036   0.17311   0.00000  Uiso   1.00
H257   H     0.88410   0.25999   0.20202   0.00000  Uiso   1.00
H258   H     0.90307   0.25470   0.14174   0.00000  Uiso   1.00
C259   C     0.00010   0.42082   0.24988   0.00000  Uiso   1.00
C260   C     0.33332   0.57921   0.25050   0.00000  Uiso   1.00
C261   C     0.19368   0.49890   0.04904   0.00000  Uiso   1.00
C262   C     0.14336   0.53200   0.45423   0.00000  Uiso   1.00
C263   C     0.24180   0.49412   0.02719   0.00000  Uiso   1.00
C264   C     0.09633   0.54095   0.47697   0.00000  Uiso   1.00
C265   C     0.29823   0.35500   0.23646   0.00000  Uiso   1.00
C266   C     0.03695   0.64506   0.26309   0.00000  Uiso   1.00
C267   C     0.29708   0.64584   0.23853   0.00000  Uiso   1.00
C268   C     0.03700   0.35445   0.26285   0.00000  Uiso   1.00
C269   C     0.00017   0.62391   0.25092   0.00000  Uiso   1.00
C270   C     0.00069   0.37620   0.24970   0.00000  Uiso   1.00
C271   C     0.18293   0.47547   0.28032   0.00000  Uiso   1.00
C272   C     0.15152   0.52152   0.21697   0.00000  Uiso   1.00
C273   C     0.13243   0.47698   0.28193   0.00000  Uiso   1.00
C274   C     0.20116   0.52094   0.21669   0.00000  Uiso   1.00
C275   C     0.30596   0.50102   0.33616   0.00000  Uiso   1.00
C276   C     0.02720   0.50130   0.16389   0.00000  Uiso   1.00
C277   C     0.29005   0.50238   0.38575   0.00000  Uiso   1.00
C278   C     0.04271   0.50826   0.11472   0.00000  Uiso   1.00
C279   C     0.30668   0.49202   0.45834   0.00000  Uiso   1.00
C280   C     0.03084   0.54012   0.04594   0.00000  Uiso   1.00
C281   C     0.32268   0.49832   0.41175   0.00000  Uiso   1.00
C282   C     0.01279   0.52735   0.09125   0.00000  Uiso   1.00
C283   C     0.24109   0.50681   0.40740   0.00000  Uiso   1.00
C284   C     0.09050   0.50066   0.09227   0.00000  Uiso   1.00
C285   C     0.22450   0.50692   0.45473   0.00000  Uiso   1.00
C286   C     0.11000   0.51342   0.04696   0.00000  Uiso   1.00
C287   C     0.25770   0.49740   0.48028   0.00000  Uiso   1.00
C288   C     0.07891   0.53154   0.02311   0.00000  Uiso   1.00
C289   C     0.17576   0.51527   0.47729   0.00000  Uiso   1.00
C290   C     0.15953   0.50850   0.02482   0.00000  Uiso   1.00
Cu291  Cu    0.04689   0.50001   0.25000   0.00000  Uiso   1.00
Cu292  Cu    0.28645   0.49999   0.25000   0.00000  Uiso   1.00
H293   H     0.26663   0.48779   0.04747   0.00000  Uiso   1.00
H294   H     0.07333   0.55477   0.45793   0.00000  Uiso   1.00
H295   H     0.11173   0.48400   0.11089   0.00000  Uiso   1.00
H296   H     0.21624   0.50932   0.38680   0.00000  Uiso   1.00
H297   H     0.30913   0.53349   0.10813   0.00000  Uiso   1.00
H298   H     0.02719   0.49917   0.39603   0.00000  Uiso   1.00
H299   H     0.18474   0.49695   0.08533   0.00000  Uiso   1.00
H300   H     0.15407   0.54058   0.41879   0.00000  Uiso   1.00
H301   H     0.27132   0.37116   0.22418   0.00000  Uiso   1.00
H302   H     0.06511   0.62868   0.27345   0.00000  Uiso   1.00
H303   H     0.26786   0.63040   0.23002   0.00000  Uiso   1.00
H304   H     0.06515   0.37036   0.27318   0.00000  Uiso   1.00
N305   N     0.11736   0.50001   0.24999   0.00000  Uiso   1.00
N306   N     0.21597   0.49999   0.25001   0.00000  Uiso   1.00
O307   O     0.03958   0.43989   0.25000   0.00000  Uiso   1.00
O308   O     0.29375   0.56011   0.25000   0.00000  Uiso   1.00
O309   O     0.29372   0.43988   0.25000   0.00000  Uiso   1.00
O310   O     0.03961   0.56012   0.25000   0.00000  Uiso   1.00
O311   O     0.01852   0.50001   0.31492   0.00000  Uiso   1.00
O312   O     0.31481   0.49999   0.18508   0.00000  Uiso   1.00
O313   O     0.27267   0.50000   0.31492   0.00000  Uiso   1.00
O314   O     0.06067   0.50000   0.18508   0.00000  Uiso   1.00
O315   O     0.00650   0.48288   0.48228   0.00000  Uiso   1.00
C316   C     0.00954   0.43971   0.48690   0.00000  Uiso   1.00
H317   H     0.02124   0.42550   0.45358   0.00000  Uiso   1.00
H318   H     0.30808   0.42570   0.00680   0.00000  Uiso   1.00
H319   H     0.03687   0.43248   0.00540   0.00000  Uiso   1.00
O320   O     0.00074   0.55931   0.02342   0.00000  Uiso   1.00
C321   C     0.32941   0.60085   0.03523   0.00000  Uiso   1.00
H322   H     0.03168   0.61701   0.02669   0.00000  Uiso   1.00
H323   H     0.31088   0.60361   0.07155   0.00000  Uiso   1.00
H324   H     0.30704   0.61661   0.01557   0.00000  Uiso   1.00
O325   O     0.19980   0.44701   0.30675   0.00000  Uiso   1.00
C326   C     0.19542   0.40706   0.29137   0.00000  Uiso   1.00
H327   H     0.20449   0.40640   0.25396   0.00000  Uiso   1.00
H328   H     0.15873   0.39395   0.30547   0.00000  Uiso   1.00
H329   H     0.22034   0.38648   0.30346   0.00000  Uiso   1.00
O330   O     0.13951   0.53785   0.17932   0.00000  Uiso   1.00
C331   C     0.12880   0.58013   0.18380   0.00000  Uiso   1.00
H332   H     0.15528   0.59849   0.15753   0.00000  Uiso   1.00
H333   H     0.12776   0.59228   0.21741   0.00000  Uiso   1.00
H334   H     0.09360   0.58562   0.17662   0.00000  Uiso   1.00
O335   O     0.09885   0.45123   0.31132   0.00000  Uiso   1.00
C336   C     0.10078   0.45484   0.35637   0.00000  Uiso   1.00
H337   H     0.06655   0.44236   0.37848   0.00000  Uiso   1.00
H338   H     0.10612   0.48729   0.36466   0.00000  Uiso   1.00
H339   H     0.12843   0.43508   0.36495   0.00000  Uiso   1.00
O340   O     0.23523   0.53330   0.17766   0.00000  Uiso   1.00
C341   C     0.24171   0.57642   0.17437   0.00000  Uiso   1.00
H342   H     0.27962   0.58369   0.17311   0.00000  Uiso   1.00
H343   H     0.21743   0.59332   0.20202   0.00000  Uiso   1.00
H344   H     0.23641   0.58804   0.14174   0.00000  Uiso   1.00
C345   C     0.33343   0.42082   0.24988   0.00000  Uiso   1.00
C346   C     0.66665   0.57921   0.25050   0.00000  Uiso   1.00
C347   C     0.52701   0.49890   0.04904   0.00000  Uiso   1.00
C348   C     0.47670   0.53200   0.45423   0.00000  Uiso   1.00
C349   C     0.57514   0.49412   0.02719   0.00000  Uiso   1.00
C350   C     0.42967   0.54095   0.47697   0.00000  Uiso   1.00
C351   C     0.63156   0.35500   0.23646   0.00000  Uiso   1.00
C352   C     0.37029   0.64506   0.26309   0.00000  Uiso   1.00
C353   C     0.63041   0.64584   0.23853   0.00000  Uiso   1.00
C354   C     0.37033   0.35445   0.26285   0.00000  Uiso   1.00
C355   C     0.33350   0.62391   0.25092   0.00000  Uiso   1.00
C356   C     0.33403   0.37620   0.24970   0.00000  Uiso   1.00
C357   C     0.51626   0.47547   0.28032   0.00000  Uiso   1.00
C358   C     0.48485   0.52152   0.21697   0.00000  Uiso   1.00
C359   C     0.46576   0.47698   0.28193   0.00000  Uiso   1.00
C360   C     0.53449   0.52094   0.21669   0.00000  Uiso   1.00
C361   C     0.63929   0.50102   0.33616   0.00000  Uiso   1.00
C362   C     0.36054   0.50130   0.16389   0.00000  Uiso   1.00
C363   C     0.62338   0.50238   0.38575   0.00000  Uiso   1.00
C364   C     0.37604   0.50826   0.11472   0.00000  Uiso   1.00
C365   C     0.64001   0.49202   0.45834   0.00000  Uiso   1.00
C366   C     0.36418   0.54012   0.04594   0.00000  Uiso   1.00
C367   C     0.65601   0.49832   0.41175   0.00000  Uiso   1.00
C368   C     0.34613   0.52735   0.09125   0.00000  Uiso   1.00
C369   C     0.57442   0.50681   0.40740   0.00000  Uiso   1.00
C370   C     0.42383   0.50066   0.09227   0.00000  Uiso   1.00
C371   C     0.55783   0.50692   0.45473   0.00000  Uiso   1.00
C372   C     0.44333   0.51342   0.04696   0.00000  Uiso   1.00
C373   C     0.59104   0.49740   0.48028   0.00000  Uiso   1.00
C374   C     0.41224   0.53154   0.02311   0.00000  Uiso   1.00
C375   C     0.50909   0.51527   0.47729   0.00000  Uiso   1.00
C376   C     0.49287   0.50850   0.02482   0.00000  Uiso   1.00
Cu377  Cu    0.38022   0.50001   0.25000   0.00000  Uiso   1.00
Cu378  Cu    0.61978   0.49999   0.25000   0.00000  Uiso   1.00
H379   H     0.59996   0.48779   0.04747   0.00000  Uiso   1.00
H380   H     0.40666   0.55477   0.45793   0.00000  Uiso   1.00
H381   H     0.44507   0.48400   0.11089   0.00000  Uiso   1.00
H382   H     0.54957   0.50932   0.38680   0.00000  Uiso   1.00
H383   H     0.64247   0.53349   0.10813   0.00000  Uiso   1.00
H384   H     0.36053   0.49917   0.39603   0.00000  Uiso   1.00
H385   H     0.51807   0.49695   0.08533   0.00000  Uiso   1.00
H386   H     0.48740   0.54058   0.41879   0.00000  Uiso   1.00
H387   H     0.60465   0.37116   0.22418   0.00000  Uiso   1.00
H388   H     0.39844   0.62868   0.27345   0.00000  Uiso   1.00
H389   H     0.60120   0.63040   0.23002   0.00000  Uiso   1.00
H390   H     0.39848   0.37036   0.27318   0.00000  Uiso   1.00
N391   N     0.45069   0.50001   0.24999   0.00000  Uiso   1.00
N392   N     0.54931   0.49999   0.25001   0.00000  Uiso   1.00
O393   O     0.37291   0.43989   0.25000   0.00000  Uiso   1.00
O394   O     0.62709   0.56011   0.25000   0.00000  Uiso   1.00
O395   O     0.62706   0.43988   0.25000   0.00000  Uiso   1.00
O396   O     0.37294   0.56012   0.25000   0.00000  Uiso   1.00
O397   O     0.35186   0.50001   0.31492   0.00000  Uiso   1.00
O398   O     0.64814   0.49999   0.18508   0.00000  Uiso   1.00
O399   O     0.60600   0.50000   0.31492   0.00000  Uiso   1.00
O400   O     0.39400   0.50000   0.18508   0.00000  Uiso   1.00
O401   O     0.33984   0.48288   0.48228   0.00000  Uiso   1.00
C402   C     0.34287   0.43971   0.48690   0.00000  Uiso   1.00
H403   H     0.35457   0.42550   0.45358   0.00000  Uiso   1.00
H404   H     0.64142   0.42570   0.00680   0.00000  Uiso   1.00
H405   H     0.37021   0.43248   0.00540   0.00000  Uiso   1.00
O406   O     0.33408   0.55931   0.02342   0.00000  Uiso   1.00
C407   C     0.66274   0.60085   0.03523   0.00000  Uiso   1.00
H408   H     0.36501   0.61701   0.02669   0.00000  Uiso   1.00
H409   H     0.64421   0.60361   0.07155   0.00000  Uiso   1.00
H410   H     0.64038   0.61661   0.01557   0.00000  Uiso   1.00
O411   O     0.53313   0.44701   0.30675   0.00000  Uiso   1.00
C412   C     0.52876   0.40706   0.29137   0.00000  Uiso   1.00
H413   H     0.53782   0.40640   0.25396   0.00000  Uiso   1.00
H414   H     0.49206   0.39395   0.30547   0.00000  Uiso   1.00
H415   H     0.55368   0.38648   0.30346   0.00000  Uiso   1.00
O416   O     0.47284   0.53785   0.17932   0.00000  Uiso   1.00
C417   C     0.46213   0.58013   0.18380   0.00000  Uiso   1.00
H418   H     0.48861   0.59849   0.15753   0.00000  Uiso   1.00
H419   H     0.46109   0.59228   0.21741   0.00000  Uiso   1.00
H420   H     0.42693   0.58562   0.17662   0.00000  Uiso   1.00
O421   O     0.43219   0.45123   0.31132   0.00000  Uiso   1.00
C422   C     0.43411   0.45484   0.35637   0.00000  Uiso   1.00
H423   H     0.39988   0.44236   0.37848   0.00000  Uiso   1.00
H424   H     0.43945   0.48729   0.36466   0.00000  Uiso   1.00
H425   H     0.46176   0.43508   0.36495   0.00000  Uiso   1.00
O426   O     0.56857   0.53330   0.17766   0.00000  Uiso   1.00
C427   C     0.57504   0.57642   0.17437   0.00000  Uiso   1.00
H428   H     0.61296   0.58369   0.17311   0.00000  Uiso   1.00
H429   H     0.55076   0.59332   0.20202   0.00000  Uiso   1.00
H430   H     0.56974   0.58804   0.14174   0.00000  Uiso   1.00
C431   C     0.66676   0.42082   0.24988   0.00000  Uiso   1.00
C432   C     0.99999   0.57921   0.25050   0.00000  Uiso   1.00
C433   C     0.86034   0.49890   0.04904   0.00000  Uiso   1.00
C434   C     0.81003   0.53200   0.45423   0.00000  Uiso   1.00
C435   C     0.90847   0.49412   0.02719   0.00000  Uiso   1.00
C436   C     0.76300   0.54095   0.47697   0.00000  Uiso   1.00
C437   C     0.96490   0.35500   0.23646   0.00000  Uiso   1.00
C438   C     0.70362   0.64506   0.26309   0.00000  Uiso   1.00
C439   C     0.96374   0.64584   0.23853   0.00000  Uiso   1.00
C440   C     0.70367   0.35445   0.26285   0.00000  Uiso   1.00
C441   C     0.66684   0.62391   0.25092   0.00000  Uiso   1.00
C442   C     0.66736   0.37620   0.24970   0.00000  Uiso   1.00
C443   C     0.84959   0.47547   0.28032   0.00000  Uiso   1.00
C444   C     0.81818   0.52152   0.21697   0.00000  Uiso   1.00
C445   C     0.79909   0.47698   0.28193   0.00000  Uiso   1.00
C446   C     0.86782   0.52094   0.21669   0.00000  Uiso   1.00
C447   C     0.97263   0.50102   0.33616   0.00000  Uiso   1.00
C448   C     0.69387   0.50130   0.16389   0.00000  Uiso   1.00
C449   C     0.95671   0.50238   0.38575   0.00000  Uiso   1.00
C450   C     0.70938   0.50826   0.11472   0.00000  Uiso   1.00
C451   C     0.97335   0.49202   0.45834   0.00000  Uiso   1.00
C452   C     0.69751   0.54012   0.04594   0.00000  Uiso   1.00
C453   C     0.98935   0.49832   0.41175   0.00000  Uiso   1.00
C454   C     0.67946   0.52735   0.09125   0.00000  Uiso   1.00
C455   C     0.90776   0.50681   0.40740   0.00000  Uiso   1.00
C456   C     0.75717   0.50066   0.09227   0.00000  Uiso   1.00
C457   C     0.89117   0.50692   0.45473   0.00000  Uiso   1.00
C458   C     0.77666   0.51342   0.04696   0.00000  Uiso   1.00
C459   C     0.92437   0.49740   0.48028   0.00000  Uiso   1.00
C460   C     0.74558   0.53154   0.02311   0.00000  Uiso   1.00
C461   C     0.84243   0.51527   0.47729   0.00000  Uiso   1.00
C462   C     0.82620   0.50850   0.02482   0.00000  Uiso   1.00
Cu463  Cu    0.71355   0.50001   0.25000   0.00000  Uiso   1.00
Cu464  Cu    0.95311   0.49999   0.25000   0.00000  Uiso   1.00
H465   H     0.93330   0.48779   0.04747   0.00000  Uiso   1.00
H466   H     0.74000   0.55477   0.45793   0.00000  Uiso   1.00
H467   H     0.77840   0.48400   0.11089   0.00000  Uiso   1.00
H468   H     0.88290   0.50932   0.38680   0.00000  Uiso   1.00
H469   H     0.97580   0.53349   0.10813   0.00000  Uiso   1.00
H470   H     0.69386   0.49917   0.39603   0.00000  Uiso   1.00
H471   H     0.85141   0.49695   0.08533   0.00000  Uiso   1.00
H472   H     0.82073   0.54058   0.41879   0.00000  Uiso   1.00
H473   H     0.93799   0.37116   0.22418   0.00000  Uiso   1.00
H474   H     0.73178   0.62868   0.27345   0.00000  Uiso   1.00
H475   H     0.93453   0.63040   0.23002   0.00000  Uiso   1.00
H476   H     0.73181   0.37036   0.27318   0.00000  Uiso   1.00
N477   N     0.78403   0.50001   0.24999   0.00000  Uiso   1.00
N478   N     0.88264   0.49999   0.25001   0.00000  Uiso   1.00
O479   O     0.70625   0.43989   0.25000   0.00000  Uiso   1.00
O480   O     0.96042   0.56011   0.25000   0.00000  Uiso   1.00
O481   O     0.96039   0.43988   0.25000   0.00000  Uiso   1.00
O482   O     0.70628   0.56012   0.25000   0.00000  Uiso   1.00
O483   O     0.68519   0.50001   0.31492   0.00000  Uiso   1.00
O484   O     0.98148   0.49999   0.18508   0.00000  Uiso   1.00
O485   O     0.93933   0.50000   0.31492   0.00000  Uiso   1.00
O486   O     0.72733   0.50000   0.18508   0.00000  Uiso   1.00
O487   O     0.67317   0.48288   0.48228   0.00000  Uiso   1.00
C488   C     0.67621   0.43971   0.48690   0.00000  Uiso   1.00
H489   H     0.68790   0.42550   0.45358   0.00000  Uiso   1.00
H490   H     0.97475   0.42570   0.00680   0.00000  Uiso   1.00
H491   H     0.70354   0.43248   0.00540   0.00000  Uiso   1.00
O492   O     0.66741   0.55931   0.02342   0.00000  Uiso   1.00
C493   C     0.99608   0.60085   0.03523   0.00000  Uiso   1.00
H494   H     0.69835   0.61701   0.02669   0.00000  Uiso   1.00
H495   H     0.97754   0.60361   0.07155   0.00000  Uiso   1.00
H496   H     0.97371   0.61661   0.01557   0.00000  Uiso   1.00
O497   O     0.86647   0.44701   0.30675   0.00000  Uiso   1.00
C498   C     0.86209   0.40706   0.29137   0.00000  Uiso   1.00
H499   H     0.87116   0.40640   0.25396   0.00000  Uiso   1.00
H500   H     0.82539   0.39395   0.30547   0.00000  Uiso   1.00
H501   H     0.88701   0.38648   0.30346   0.00000  Uiso   1.00
O502   O     0.80617   0.53785   0.17932   0.00000  Uiso   1.00
C503   C     0.79547   0.58013   0.18380   0.00000  Uiso   1.00
H504   H     0.82195   0.59849   0.15753   0.00000  Uiso   1.00
H505   H     0.79443   0.59228   0.21741   0.00000  Uiso   1.00
H506   H     0.76027   0.58562   0.17662   0.00000  Uiso   1.00
O507   O     0.76552   0.45123   0.31132   0.00000  Uiso   1.00
C508   C     0.76744   0.45484   0.35637   0.00000  Uiso   1.00
H509   H     0.73322   0.44236   0.37848   0.00000  Uiso   1.00
H510   H     0.77278   0.48729   0.36466   0.00000  Uiso   1.00
H511   H     0.79509   0.43508   0.36495   0.00000  Uiso   1.00
O512   O     0.90190   0.53330   0.17766   0.00000  Uiso   1.00
C513   C     0.90838   0.57642   0.17437   0.00000  Uiso   1.00
H514   H     0.94629   0.58369   0.17311   0.00000  Uiso   1.00
H515   H     0.88410   0.59332   0.20202   0.00000  Uiso   1.00
H516   H     0.90307   0.58804   0.14174   0.00000  Uiso   1.00
C517   C     0.00010   0.75415   0.24988   0.00000  Uiso   1.00
C518   C     0.33332   0.91255   0.25050   0.00000  Uiso   1.00
C519   C     0.19368   0.83223   0.04904   0.00000  Uiso   1.00
C520   C     0.14336   0.86533   0.45423   0.00000  Uiso   1.00
C521   C     0.24180   0.82745   0.02719   0.00000  Uiso   1.00
C522   C     0.09633   0.87428   0.47697   0.00000  Uiso   1.00
C523   C     0.29823   0.68834   0.23646   0.00000  Uiso   1.00
C524   C     0.03695   0.97840   0.26309   0.00000  Uiso   1.00
C525   C     0.29708   0.97917   0.23853   0.00000  Uiso   1.00
C526   C     0.03700   0.68779   0.26285   0.00000  Uiso   1.00
C527   C     0.00017   0.95724   0.25092   0.00000  Uiso   1.00
C528   C     0.00069   0.70954   0.24970   0.00000  Uiso   1.00
C529   C     0.18293   0.80880   0.28032   0.00000  Uiso   1.00
C530   C     0.15152   0.85485   0.21697   0.00000  Uiso   1.00
C531   C     0.13243   0.81031   0.28193   0.00000  Uiso   1.00
C532   C     0.20116   0.85427   0.21669   0.00000  Uiso   1.00
C533   C     0.30596   0.83435   0.33616   0.00000  Uiso   1.00
C534   C     0.02720   0.83463   0.16389   0.00000  Uiso   1.00
C535   C     0.29005   0.83572   0.38575   0.00000  Uiso   1.00
C536   C     0.04271   0.84160   0.11472   0.00000  Uiso   1.00
C537   C     0.30668   0.82536   0.45834   0.00000  Uiso   1.00
C538   C     0.03084   0.87346   0.04594   0.00000  Uiso   1.00
C539   C     0.32268   0.83166   0.41175   0.00000  Uiso   1.00
C540   C     0.01279   0.86068   0.09125   0.00000  Uiso   1.00
C541   C     0.24109   0.84015   0.40740   0.00000  Uiso   1.00
C542   C     0.09050   0.83399   0.09227   0.00000  Uiso   1.00
C543   C     0.22450   0.84026   0.45473   0.00000  Uiso   1.00
C544   C     0.11000   0.84676   0.04696   0.00000  Uiso   1.00
C545   C     0.25770   0.83073   0.48028   0.00000  Uiso   1.00
C546   C     0.07891   0.86487   0.02311   0.00000  Uiso   1.00
C547   C     0.17576   0.84860   0.47729   0.00000  Uiso   1.00
C548   C     0.15953   0.84183   0.02482   0.00000  Uiso   1.00
Cu549  Cu    0.04689   0.83334   0.25000   0.00000  Uiso   1.00
Cu550  Cu    0.28645   0.83333   0.25000   0.00000  Uiso   1.00
H551   H     0.26663   0.82112   0.04747   0.00000  Uiso   1.00
H552   H     0.07333   0.88811   0.45793   0.00000  Uiso   1.00
H553   H     0.11173   0.81734   0.11089   0.00000  Uiso   1.00
H554   H     0.21624   0.84265   0.38680   0.00000  Uiso   1.00
H555   H     0.30913   0.86682   0.10813   0.00000  Uiso   1.00
H556   H     0.02719   0.83250   0.39603   0.00000  Uiso   1.00
H557   H     0.18474   0.83029   0.08533   0.00000  Uiso   1.00
H558   H     0.15407   0.87392   0.41879   0.00000  Uiso   1.00
H559   H     0.27132   0.70449   0.22418   0.00000  Uiso   1.00
H560   H     0.06511   0.96202   0.27345   0.00000  Uiso   1.00
H561   H     0.26786   0.96374   0.23002   0.00000  Uiso   1.00
H562   H     0.06515   0.70369   0.27318   0.00000  Uiso   1.00
N563   N     0.11736   0.83334   0.24999   0.00000  Uiso   1.00
N564   N     0.21597   0.83332   0.25001   0.00000  Uiso   1.00
O565   O     0.03958   0.77322   0.25000   0.00000  Uiso   1.00
O566   O     0.29375   0.89345   0.25000   0.00000  Uiso   1.00
O567   O     0.29372   0.77321   0.25000   0.00000  Uiso   1.00
O568   O     0.03961   0.89346   0.25000   0.00000  Uiso   1.00
O569   O     0.01852   0.83334   0.31492   0.00000  Uiso   1.00
O570   O     0.31481   0.83332   0.18508   0.00000  Uiso   1.00
O571   O     0.27267   0.83333   0.31492   0.00000  Uiso   1.00
O572   O     0.06067   0.83333   0.18508   0.00000  Uiso   1.00
O573   O     0.00650   0.81621   0.48228   0.00000  Uiso   1.00
C574   C     0.00954   0.77304   0.48690   0.00000  Uiso   1.00
H575   H     0.02124   0.75883   0.45358   0.00000  Uiso   1.00
H576   H     0.30808   0.75903   0.00680   0.00000  Uiso   1.00
H577   H     0.03687   0.76581   0.00540   0.00000  Uiso   1.00
O578   O     0.00074   0.89264   0.02342   0.00000  Uiso   1.00
C579   C     0.32941   0.93419   0.03523   0.00000  Uiso   1.00
H580   H     0.03168   0.95034   0.02669   0.00000  Uiso   1.00
H581   H     0.31088   0.93694   0.07155   0.00000  Uiso   1.00
H582   H     0.30704   0.94994   0.01557   0.00000  Uiso   1.00
O583   O     0.19980   0.78035   0.30675   0.00000  Uiso   1.00
C584   C     0.19542   0.74040   0.29137   0.00000  Uiso   1.00
H585   H     0.20449   0.73973   0.25396   0.00000  Uiso   1.00
H586   H     0.15873   0.72728   0.30547   0.00000  Uiso   1.00
H587   H     0.22034   0.71981   0.30346   0.00000  Uiso   1.00
O588   O     0.13951   0.87118   0.17932   0.00000  Uiso   1.00
C589   C     0.12880   0.91347   0.18380   0.00000  Uiso   1.00
H590   H     0.15528   0.93182   0.15753   0.00000  Uiso   1.00
H591   H     0.12776   0.92561   0.21741   0.00000  Uiso   1.00
H592   H     0.09360   0.91895   0.17662   0.00000  Uiso   1.00
O593   O     0.09885   0.78456   0.31132   0.00000  Uiso   1.00
C594   C     0.10078   0.78817   0.35637   0.00000  Uiso   1.00
H595   H     0.06655   0.77570   0.37848   0.00000  Uiso   1.00
H596   H     0.10612   0.82063   0.36466   0.00000  Uiso   1.00
H597   H     0.12843   0.76841   0.36495   0.00000  Uiso   1.00
O598   O     0.23523   0.86663   0.17766   0.00000  Uiso   1.00
C599   C     0.24171   0.90976   0.17437   0.00000  Uiso   1.00
H600   H     0.27962   0.91702   0.17311   0.00000  Uiso   1.00
H601   H     0.21743   0.92666   0.20202   0.00000  Uiso   1.00
H602   H     0.23641   0.92137   0.14174   0.00000  Uiso   1.00
C603   C     0.33343   0.75415   0.24988   0.00000  Uiso   1.00
C604   C     0.66665   0.91255   0.25050   0.00000  Uiso   1.00
C605   C     0.52701   0.83223   0.04904   0.00000  Uiso   1.00
C606   C     0.47670   0.86533   0.45423   0.00000  Uiso   1.00
C607   C     0.57514   0.82745   0.02719   0.00000  Uiso   1.00
C608   C     0.42967   0.87428   0.47697   0.00000  Uiso   1.00
C609   C     0.63156   0.68834   0.23646   0.00000  Uiso   1.00
C610   C     0.37029   0.97840   0.26309   0.00000  Uiso   1.00
C611   C     0.63041   0.97917   0.23853   0.00000  Uiso   1.00
C612   C     0.37033   0.68779   0.26285   0.00000  Uiso   1.00
C613   C     0.33350   0.95724   0.25092   0.00000  Uiso   1.00
C614   C     0.33403   0.70954   0.24970   0.00000  Uiso   1.00
C615   C     0.51626   0.80880   0.28032   0.00000  Uiso   1.00
C616   C     0.48485   0.85485   0.21697   0.00000  Uiso   1.00
C617   C     0.46576   0.81031   0.28193   0.00000  Uiso   1.00
C618   C     0.53449   0.85427   0.21669   0.00000  Uiso   1.00
C619   C     0.63929   0.83435   0.33616   0.00000  Uiso   1.00
C620   C     0.36054   0.83463   0.16389   0.00000  Uiso   1.00
C621   C     0.62338   0.83572   0.38575   0.00000  Uiso   1.00
C622   C     0.37604   0.84160   0.11472   0.00000  Uiso   1.00
C623   C     0.64001   0.82536   0.45834   0.00000  Uiso   1.00
C624   C     0.36418   0.87346   0.04594   0.00000  Uiso   1.00
C625   C     0.65601   0.83166   0.41175   0.00000  Uiso   1.00
C626   C     0.34613   0.86068   0.09125   0.00000  Uiso   1.00
C627   C     0.57442   0.84015   0.40740   0.00000  Uiso   1.00
C628   C     0.42383   0.83399   0.09227   0.00000  Uiso   1.00
C629   C     0.55783   0.84026   0.45473   0.00000  Uiso   1.00
C630   C     0.44333   0.84676   0.04696   0.00000  Uiso   1.00
C631   C     0.59104   0.83073   0.48028   0.00000  Uiso   1.00
C632   C     0.41224   0.86487   0.02311   0.00000  Uiso   1.00
C633   C     0.50909   0.84860   0.47729   0.00000  Uiso   1.00
C634   C     0.49287   0.84183   0.02482   0.00000  Uiso   1.00
Cu635  Cu    0.38022   0.83334   0.25000   0.00000  Uiso   1.00
Cu636  Cu    0.61978   0.83333   0.25000   0.00000  Uiso   1.00
H637   H     0.59996   0.82112   0.04747   0.00000  Uiso   1.00
H638   H     0.40666   0.88811   0.45793   0.00000  Uiso   1.00
H639   H     0.44507   0.81734   0.11089   0.00000  Uiso   1.00
H640   H     0.54957   0.84265   0.38680   0.00000  Uiso   1.00
H641   H     0.64247   0.86682   0.10813   0.00000  Uiso   1.00
H642   H     0.36053   0.83250   0.39603   0.00000  Uiso   1.00
H643   H     0.51807   0.83029   0.08533   0.00000  Uiso   1.00
H644   H     0.48740   0.87392   0.41879   0.00000  Uiso   1.00
H645   H     0.60465   0.70449   0.22418   0.00000  Uiso   1.00
H646   H     0.39844   0.96202   0.27345   0.00000  Uiso   1.00
H647   H     0.60120   0.96374   0.23002   0.00000  Uiso   1.00
H648   H     0.39848   0.70369   0.27318   0.00000  Uiso   1.00
N649   N     0.45069   0.83334   0.24999   0.00000  Uiso   1.00
N650   N     0.54931   0.83332   0.25001   0.00000  Uiso   1.00
O651   O     0.37291   0.77322   0.25000   0.00000  Uiso   1.00
O652   O     0.62709   0.89345   0.25000   0.00000  Uiso   1.00
O653   O     0.62706   0.77321   0.25000   0.00000  Uiso   1.00
O654   O     0.37294   0.89346   0.25000   0.00000  Uiso   1.00
O655   O     0.35186   0.83334   0.31492   0.00000  Uiso   1.00
O656   O     0.64814   0.83332   0.18508   0.00000  Uiso   1.00
O657   O     0.60600   0.83333   0.31492   0.00000  Uiso   1.00
O658   O     0.39400   0.83333   0.18508   0.00000  Uiso   1.00
O659   O     0.33984   0.81621   0.48228   0.00000  Uiso   1.00
C660   C     0.34287   0.77304   0.48690   0.00000  Uiso   1.00
H661   H     0.35457   0.75883   0.45358   0.00000  Uiso   1.00
H662   H     0.64142   0.75903   0.00680   0.00000  Uiso   1.00
H663   H     0.37021   0.76581   0.00540   0.00000  Uiso   1.00
O664   O     0.33408   0.89264   0.02342   0.00000  Uiso   1.00
C665   C     0.66274   0.93419   0.03523   0.00000  Uiso   1.00
H666   H     0.36501   0.95034   0.02669   0.00000  Uiso   1.00
H667   H     0.64421   0.93694   0.07155   0.00000  Uiso   1.00
H668   H     0.64038   0.94994   0.01557   0.00000  Uiso   1.00
O669   O     0.53313   0.78035   0.30675   0.00000  Uiso   1.00
C670   C     0.52876   0.74040   0.29137   0.00000  Uiso   1.00
H671   H     0.53782   0.73973   0.25396   0.00000  Uiso   1.00
H672   H     0.49206   0.72728   0.30547   0.00000  Uiso   1.00
H673   H     0.55368   0.71981   0.30346   0.00000  Uiso   1.00
O674   O     0.47284   0.87118   0.17932   0.00000  Uiso   1.00
C675   C     0.46213   0.91347   0.18380   0.00000  Uiso   1.00
H676   H     0.48861   0.93182   0.15753   0.00000  Uiso   1.00
H677   H     0.46109   0.92561   0.21741   0.00000  Uiso   1.00
H678   H     0.42693   0.91895   0.17662   0.00000  Uiso   1.00
O679   O     0.43219   0.78456   0.31132   0.00000  Uiso   1.00
C680   C     0.43411   0.78817   0.35637   0.00000  Uiso   1.00
H681   H     0.39988   0.77570   0.37848   0.00000  Uiso   1.00
H682   H     0.43945   0.82063   0.36466   0.00000  Uiso   1.00
H683   H     0.46176   0.76841   0.36495   0.00000  Uiso   1.00
O684   O     0.56857   0.86663   0.17766   0.00000  Uiso   1.00
C685   C     0.57504   0.90976   0.17437   0.00000  Uiso   1.00
H686   H     0.61296   0.91702   0.17311   0.00000  Uiso   1.00
H687   H     0.55076   0.92666   0.20202   0.00000  Uiso   1.00
H688   H     0.56974   0.92137   0.14174   0.00000  Uiso   1.00
C689   C     0.66676   0.75415   0.24988   0.00000  Uiso   1.00
C690   C     0.99999   0.91255   0.25050   0.00000  Uiso   1.00
C691   C     0.86034   0.83223   0.04904   0.00000  Uiso   1.00
C692   C     0.81003   0.86533   0.45423   0.00000  Uiso   1.00
C693   C     0.90847   0.82745   0.02719   0.00000  Uiso   1.00
C694   C     0.76300   0.87428   0.47697   0.00000  Uiso   1.00
C695   C     0.96490   0.68834   0.23646   0.00000  Uiso   1.00
C696   C     0.70362   0.97840   0.26309   0.00000  Uiso   1.00
C697   C     0.96374   0.97917   0.23853   0.00000  Uiso   1.00
C698   C     0.70367   0.68779   0.26285   0.00000  Uiso   1.00
C699   C     0.66684   0.95724   0.25092   0.00000  Uiso   1.00
C700   C     0.66736   0.70954   0.24970   0.00000  Uiso   1.00
C701   C     0.84959   0.80880   0.28032   0.00000  Uiso   1.00
C702   C     0.81818   0.85485   0.21697   0.00000  Uiso   1.00
C703   C     0.79909   0.81031   0.28193   0.00000  Uiso   1.00
C704   C     0.86782   0.85427   0.21669   0.00000  Uiso   1.00
C705   C     0.97263   0.83435   0.33616   0.00000  Uiso   1.00
C706   C     0.69387   0.83463   0.16389   0.00000  Uiso   1.00
C707   C     0.95671   0.83572   0.38575   0.00000  Uiso   1.00
C708   C     0.70938   0.84160   0.11472   0.00000  Uiso   1.00
C709   C     0.97335   0.82536   0.45834   0.00000  Uiso   1.00
C710   C     0.69751   0.87346   0.04594   0.00000  Uiso   1.00
C711   C     0.98935   0.83166   0.41175   0.00000  Uiso   1.00
C712   C     0.67946   0.86068   0.09125   0.00000  Uiso   1.00
C713   C     0.90776   0.84015   0.40740   0.00000  Uiso   1.00
C714   C     0.75717   0.83399   0.09227   0.00000  Uiso   1.00
C715   C     0.89117   0.84026   0.45473   0.00000  Uiso   1.00
C716   C     0.77666   0.84676   0.04696   0.00000  Uiso   1.00
C717   C     0.92437   0.83073   0.48028   0.00000  Uiso   1.00
C718   C     0.74558   0.86487   0.02311   0.00000  Uiso   1.00
C719   C     0.84243   0.84860   0.47729   0.00000  Uiso   1.00
C720   C     0.82620   0.84183   0.02482   0.00000  Uiso   1.00
Cu721  Cu    0.71355   0.83334   0.25000   0.00000  Uiso   1.00
Cu722  Cu    0.95311   0.83333   0.25000   0.00000  Uiso   1.00
H723   H     0.93330   0.82112   0.04747   0.00000  Uiso   1.00
H724   H     0.74000   0.88811   0.45793   0.00000  Uiso   1.00
H725   H     0.77840   0.81734   0.11089   0.00000  Uiso   1.00
H726   H     0.88290   0.84265   0.38680   0.00000  Uiso   1.00
H727   H     0.97580   0.86682   0.10813   0.00000  Uiso   1.00
H728   H     0.69386   0.83250   0.39603   0.00000  Uiso   1.00
H729   H     0.85141   0.83029   0.08533   0.00000  Uiso   1.00
H730   H     0.82073   0.87392   0.41879   0.00000  Uiso   1.00
H731   H     0.93799   0.70449   0.22418   0.00000  Uiso   1.00
H732   H     0.73178   0.96202   0.27345   0.00000  Uiso   1.00
H733   H     0.93453   0.96374   0.23002   0.00000  Uiso   1.00
H734   H     0.73181   0.70369   0.27318   0.00000  Uiso   1.00
N735   N     0.78403   0.83334   0.24999   0.00000  Uiso   1.00
N736   N     0.88264   0.83332   0.25001   0.00000  Uiso   1.00
O737   O     0.70625   0.77322   0.25000   0.00000  Uiso   1.00
O738   O     0.96042   0.89345   0.25000   0.00000  Uiso   1.00
O739   O     0.96039   0.77321   0.25000   0.00000  Uiso   1.00
O740   O     0.70628   0.89346   0.25000   0.00000  Uiso   1.00
O741   O     0.68519   0.83334   0.31492   0.00000  Uiso   1.00
O742   O     0.98148   0.83332   0.18508   0.00000  Uiso   1.00
O743   O     0.93933   0.83333   0.31492   0.00000  Uiso   1.00
O744   O     0.72733   0.83333   0.18508   0.00000  Uiso   1.00
O745   O     0.67317   0.81621   0.48228   0.00000  Uiso   1.00
C746   C     0.67621   0.77304   0.48690   0.00000  Uiso   1.00
H747   H     0.68790   0.75883   0.45358   0.00000  Uiso   1.00
H748   H     0.97475   0.75903   0.00680   0.00000  Uiso   1.00
H749   H     0.70354   0.76581   0.00540   0.00000  Uiso   1.00
O750   O     0.66741   0.89264   0.02342   0.00000  Uiso   1.00
C751   C     0.99608   0.93419   0.03523   0.00000  Uiso   1.00
H752   H     0.69835   0.95034   0.02669   0.00000  Uiso   1.00
H753   H     0.97754   0.93694   0.07155   0.00000  Uiso   1.00
H754   H     0.97371   0.94994   0.01557   0.00000  Uiso   1.00
O755   O     0.86647   0.78035   0.30675   0.00000  Uiso   1.00
C756   C     0.86209   0.74040   0.29137   0.00000  Uiso   1.00
H757   H     0.87116   0.73973   0.25396   0.00000  Uiso   1.00
H758   H     0.82539   0.72728   0.30547   0.00000  Uiso   1.00
H759   H     0.88701   0.71981   0.30346   0.00000  Uiso   1.00
O760   O     0.80617   0.87118   0.17932   0.00000  Uiso   1.00
C761   C     0.79547   0.91347   0.18380   0.00000  Uiso   1.00
H762   H     0.82195   0.93182   0.15753   0.00000  Uiso   1.00
H763   H     0.79443   0.92561   0.21741   0.00000  Uiso   1.00
H764   H     0.76027   0.91895   0.17662   0.00000  Uiso   1.00
O765   O     0.76552   0.78456   0.31132   0.00000  Uiso   1.00
C766   C     0.76744   0.78817   0.35637   0.00000  Uiso   1.00
H767   H     0.73322   0.77570   0.37848   0.00000  Uiso   1.00
H768   H     0.77278   0.82063   0.36466   0.00000  Uiso   1.00
H769   H     0.79509   0.76841   0.36495   0.00000  Uiso   1.00
O770   O     0.90190   0.86663   0.17766   0.00000  Uiso   1.00
C771   C     0.90838   0.90976   0.17437   0.00000  Uiso   1.00
H772   H     0.94629   0.91702   0.17311   0.00000  Uiso   1.00
H773   H     0.88410   0.92666   0.20202   0.00000  Uiso   1.00
H774   H     0.90307   0.92137   0.14174   0.00000  Uiso   1.00
C775   C     0.00010   0.08748   0.74988   0.00000  Uiso   1.00
C776   C     0.33332   0.24588   0.75050   0.00000  Uiso   1.00
C777   C     0.19368   0.16556   0.54904   0.00000  Uiso   1.00
C778   C     0.14336   0.19867   0.95423   0.00000  Uiso   1.00
C779   C     0.24180   0.16079   0.52719   0.00000  Uiso   1.00
C780   C     0.09633   0.20761   0.97697   0.00000  Uiso   1.00
C781   C     0.29823   0.02167   0.73646   0.00000  Uiso   1.00
C782   C     0.03695   0.31173   0.76309   0.00000  Uiso   1.00
C783   C     0.29708   0.31250   0.73853   0.00000  Uiso   1.00
C784   C     0.03700   0.02112   0.76285   0.00000  Uiso   1.00
C785   C     0.00017   0.29057   0.75092   0.00000  Uiso   1.00
C786   C     0.00069   0.04287   0.74970   0.00000  Uiso   1.00
C787   C     0.18293   0.14214   0.78032   0.00000  Uiso   1.00
C788   C     0.15152   0.18818   0.71697   0.00000  Uiso   1.00
C789   C     0.13243   0.14364   0.78193   0.00000  Uiso   1.00
C790   C     0.20116   0.18760   0.71669   0.00000  Uiso   1.00
C791   C     0.30596   0.16768   0.83616   0.00000  Uiso   1.00
C792   C     0.02720   0.16797   0.66389   0.00000  Uiso   1.00
C793   C     0.29005   0.16905   0.88575   0.00000  Uiso   1.00
C794   C     0.04271   0.17493   0.61472   0.00000  Uiso   1.00
C795   C     0.30668   0.15869   0.95834   0.00000  Uiso   1.00
C796   C     0.03084   0.20679   0.54594   0.00000  Uiso   1.00
C797   C     0.32268   0.16499   0.91175   0.00000  Uiso   1.00
C798   C     0.01279   0.19401   0.59125   0.00000  Uiso   1.00
C799   C     0.24109   0.17348   0.90740   0.00000  Uiso   1.00
C800   C     0.09050   0.16733   0.59227   0.00000  Uiso   1.00
C801   C     0.22450   0.17359   0.95473   0.00000  Uiso   1.00
C802   C     0.11000   0.18009   0.54696   0.00000  Uiso   1.00
C803   C     0.25770   0.16407   0.98028   0.00000  Uiso   1.00
C804   C     0.07891   0.19820   0.52311   0.00000  Uiso   1.00
C805   C     0.17576   0.18194   0.97729   0.00000  Uiso   1.00
C806   C     0.15953   0.17517   0.52482   0.00000  Uiso   1.00
Cu807  Cu    0.04689   0.16667   0.75000   0.00000  Uiso   1.00
Cu808  Cu    0.28645   0.16666   0.75000   0.00000  Uiso   1.00
H809   H     0.26663   0.15445   0.54747   0.00000  Uiso   1.00
H810   H     0.07333   0.22144   0.95793   0.00000  Uiso   1.00
H811   H     0.11173   0.15067   0.61089   0.00000  Uiso   1.00
H812   H     0.21624   0.17599   0.88680   0.00000  Uiso   1.00
H813   H     0.30913   0.20016   0.60813   0.00000  Uiso   1.00
H814   H     0.02719   0.16584   0.89603   0.00000  Uiso   1.00
H815   H     0.18474   0.16362   0.58533   0.00000  Uiso   1.00
H816   H     0.15407   0.20725   0.91879   0.00000  Uiso   1.00
H817   H     0.27132   0.03783   0.72418   0.00000  Uiso   1.00
H818   H     0.06511   0.29535   0.77345   0.00000  Uiso   1.00
H819   H     0.26786   0.29707   0.73002   0.00000  Uiso   1.00
H820   H     0.06515   0.03703   0.77318   0.00000  Uiso   1.00
N821   N     0.11736   0.16668   0.74999   0.00000  Uiso   1.00
N822   N     0.21597   0.16666   0.75001   0.00000  Uiso   1.00
O823   O     0.03958   0.10655   0.75000   0.00000  Uiso   1.00
O824   O     0.29375   0.22678   0.75000   0.00000  Uiso   1.00
O825   O     0.29372   0.10654   0.75000   0.00000  Uiso   1.00
O826   O     0.03961   0.22679   0.75000   0.00000  Uiso   1.00
O827   O     0.01852   0.16668   0.81492   0.00000  Uiso   1.00
O828   O     0.31481   0.16666   0.68508   0.00000  Uiso   1.00
O829   O     0.27267   0.16667   0.81492   0.00000  Uiso   1.00
O830   O     0.06067   0.16667   0.68508   0.00000  Uiso   1.00
O831   O     0.00650   0.14954   0.98228   0.00000  Uiso   1.00
C832   C     0.00954   0.10638   0.98690   0.00000  Uiso   1.00
H833   H     0.02124   0.09216   0.95358   0.00000  Uiso   1.00
H834   H     0.30808   0.09237   0.50680   0.00000  Uiso   1.00
H835   H     0.03687   0.09915   0.50540   0.00000  Uiso   1.00
O836   O     0.00074   0.22597   0.52342   0.00000  Uiso   1.00
C837   C     0.32941   0.26752   0.53523   0.00000  Uiso   1.00
H838   H     0.03168   0.28368   0.52669   0.00000  Uiso   1.00
H839   H     0.31088   0.27028   0.57155   0.00000  Uiso   1.00
H840   H     0.30704   0.28328   0.51557   0.00000  Uiso   1.00
O841   O     0.19980   0.11368   0.80675   0.00000  Uiso   1.00
C842   C     0.19542   0.07373   0.79137   0.00000  Uiso   1.00
H843   H     0.20449   0.07306   0.75396   0.00000  Uiso   1.00
H844   H     0.15873   0.06061   0.80547   0.00000  Uiso   1.00
H845   H     0.22034   0.05314   0.80346   0.00000  Uiso   1.00
O846   O     0.13951   0.20451   0.67932   0.00000  Uiso   1.00
C847   C     0.12880   0.24680   0.68380   0.00000  Uiso   1.00
H848   H     0.15528   0.26516   0.65753   0.00000  Uiso   1.00
H849   H     0.12776   0.25894   0.71741   0.00000  Uiso   1.00
H850   H     0.09360   0.25228   0.67662   0.00000  Uiso   1.00
O851   O     0.09885   0.11789   0.81132   0.00000  Uiso   1.00
C852   C     0.10078   0.12151   0.85637   0.00000  Uiso   1.00
H853   H     0.06655   0.10903   0.87848   0.00000  Uiso   1.00
H854   H     0.10612   0.15396   0.86466   0.00000  Uiso   1.00
H855   H     0.12843   0.10175   0.86495   0.00000  Uiso   1.00
O856   O     0.23523   0.19996   0.67766   0.00000  Uiso   1.00
C857   C     0.24171   0.24309   0.67437   0.00000  Uiso   1.00
H858   H     0.27962   0.25036   0.67311   0.00000  Uiso   1.00
H859   H     0.21743   0.25999   0.70202   0.00000  Uiso   1.00
H860   H     0.23641   0.25470   0.64174   0.00000  Uiso   1.00
C861   C     0.33343   0.08748   0.74988   0.00000  Uiso   1.00
C862   C     0.66665   0.24588   0.75050   0.00000  Uiso   1.00
C863   C     0.52701   0.16556   0.54904   0.00000  Uiso   1.00
C864   C     0.47670   0.19867   0.95423   0.00000  Uiso   1.00
C865   C     0.57514   0.16079   0.52719   0.00000  Uiso   1.00
C866   C     0.42967   0.20761   0.97697   0.00000  Uiso   1.00
C867   C     0.63156   0.02167   0.73646   0.00000  Uiso   1.00
C868   C     0.37029   0.31173   0.76309   0.00000  Uiso   1.00
C869   C     0.63041   0.31250   0.73853   0.00000  Uiso   1.00
C870   C     0.37033   0.02112   0.76285   0.00000  Uiso   1.00
C871   C     0.33350   0.29057   0.75092   0.00000  Uiso   1.00
C872   C     0.33403   0.04287   0.74970   0.00000  Uiso   1.00
C873   C     0.51626   0.14214   0.78032   0.00000  Uiso   1.00
C874   C     0.48485   0.18818   0.71697   0.00000  Uiso   1.00
C875   C     0.46576   0.14364   0.78193   0.00000  Uiso   1.00
C876   C     0.53449   0.18760   0.71669   0.00000  Uiso   1.00
C877   C     0.63929   0.16768   0.83616   0.00000  Uiso   1.00
C878   C     0.36054   0.16797   0.66389   0.00000  Uiso   1.00
C879   C     0.62338   0.16905   0.88575   0.00000  Uiso   1.00
C880   C     0.37604   0.17493   0.61472   0.00000  Uiso   1.00
C881   C     0.64001   0.15869   0.95834   0.00000  Uiso   1.00
C882   C     0.36418   0.20679   0.54594   0.00000  Uiso   1.00
C883   C     0.65601   0.16499   0.91175   0.00000  Uiso   1.00
C884   C     0.34613   0.19401   0.59125   0.00000  Uiso   1.00
C885   C     0.57442   0.17348   0.90740   0.00000  Uiso   1.00
C886   C     0.42383   0.16733   0.59227   0.00000  Uiso   1.00
C887   C     0.55783   0.17359   0.95473   0.00000  Uiso   1.00
C888   C     0.44333   0.18009   0.54696   0.00000  Uiso   1.00
C889   C     0.59104   0.16407   0.98028   0.00000  Uiso   1.00
C890   C     0.41224   0.19820   0.52311   0.00000  Uiso   1.00
C891   C     0.50909   0.18194   0.97729   0.00000  Uiso   1.00
C892   C     0.49287   0.17517   0.52482   0.00000  Uiso   1.00
Cu893  Cu    0.38022   0.16667   0.75000   0.00000  Uiso   1.00
Cu894  Cu    0.61978   0.16666   0.75000   0.00000  Uiso   1.00
H895   H     0.59996   0.15445   0.54747   0.00000  Uiso   1.00
H896   H     0.40666   0.22144   0.95793   0.00000  Uiso   1.00
H897   H     0.44507   0.15067   0.61089   0.00000  Uiso   1.00
H898   H     0.54957   0.17599   0.88680   0.00000  Uiso   1.00
H899   H     0.64247   0.20016   0.60813   0.00000  Uiso   1.00
H900   H     0.36053   0.16584   0.89603   0.00000  Uiso   1.00
H901   H     0.51807   0.16362   0.58533   0.00000  Uiso   1.00
H902   H     0.48740   0.20725   0.91879   0.00000  Uiso   1.00
H903   H     0.60465   0.03783   0.72418   0.00000  Uiso   1.00
H904   H     0.39844   0.29535   0.77345   0.00000  Uiso   1.00
H905   H     0.60120   0.29707   0.73002   0.00000  Uiso   1.00
H906   H     0.39848   0.03703   0.77318   0.00000  Uiso   1.00
N907   N     0.45069   0.16668   0.74999   0.00000  Uiso   1.00
N908   N     0.54931   0.16666   0.75001   0.00000  Uiso   1.00
O909   O     0.37291   0.10655   0.75000   0.00000  Uiso   1.00
O910   O     0.62709   0.22678   0.75000   0.00000  Uiso   1.00
O911   O     0.62706   0.10654   0.75000   0.00000  Uiso   1.00
O912   O     0.37294   0.22679   0.75000   0.00000  Uiso   1.00
O913   O     0.35186   0.16668   0.81492   0.00000  Uiso   1.00
O914   O     0.64814   0.16666   0.68508   0.00000  Uiso   1.00
O915   O     0.60600   0.16667   0.81492   0.00000  Uiso   1.00
O916   O     0.39400   0.16667   0.68508   0.00000  Uiso   1.00
O917   O     0.33984   0.14954   0.98228   0.00000  Uiso   1.00
C918   C     0.34287   0.10638   0.98690   0.00000  Uiso   1.00
H919   H     0.35457   0.09216   0.95358   0.00000  Uiso   1.00
H920   H     0.64142   0.09237   0.50680   0.00000  Uiso   1.00
H921   H     0.37021   0.09915   0.50540   0.00000  Uiso   1.00
O922   O     0.33408   0.22597   0.52342   0.00000  Uiso   1.00
C923   C     0.66274   0.26752   0.53523   0.00000  Uiso   1.00
H924   H     0.36501   0.28368   0.52669   0.00000  Uiso   1.00
H925   H     0.64421   0.27028   0.57155   0.00000  Uiso   1.00
H926   H     0.64038   0.28328   0.51557   0.00000  Uiso   1.00
O927   O     0.53313   0.11368   0.80675   0.00000  Uiso   1.00
C928   C     0.52876   0.07373   0.79137   0.00000  Uiso   1.00
H929   H     0.53782   0.07306   0.75396   0.00000  Uiso   1.00
H930   H     0.49206   0.06061   0.80547   0.00000  Uiso   1.00
H931   H     0.55368   0.05314   0.80346   0.00000  Uiso   1.00
O932   O     0.47284   0.20451   0.67932   0.00000  Uiso   1.00
C933   C     0.46213   0.24680   0.68380   0.00000  Uiso   1.00
H934   H     0.48861   0.26516   0.65753   0.00000  Uiso   1.00
H935   H     0.46109   0.25894   0.71741   0.00000  Uiso   1.00
H936   H     0.42693   0.25228   0.67662   0.00000  Uiso   1.00
O937   O     0.43219   0.11789   0.81132   0.00000  Uiso   1.00
C938   C     0.43411   0.12151   0.85637   0.00000  Uiso   1.00
H939   H     0.39988   0.10903   0.87848   0.00000  Uiso   1.00
H940   H     0.43945   0.15396   0.86466   0.00000  Uiso   1.00
H941   H     0.46176   0.10175   0.86495   0.00000  Uiso   1.00
O942   O     0.56857   0.19996   0.67766   0.00000  Uiso   1.00
C943   C     0.57504   0.24309   0.67437   0.00000  Uiso   1.00
H944   H     0.61296   0.25036   0.67311   0.00000  Uiso   1.00
H945   H     0.55076   0.25999   0.70202   0.00000  Uiso   1.00
H946   H     0.56974   0.25470   0.64174   0.00000  Uiso   1.00
C947   C     0.66676   0.08748   0.74988   0.00000  Uiso   1.00
C948   C     0.99999   0.24588   0.75050   0.00000  Uiso   1.00
C949   C     0.86034   0.16556   0.54904   0.00000  Uiso   1.00
C950   C     0.81003   0.19867   0.95423   0.00000  Uiso   1.00
C951   C     0.90847   0.16079   0.52719   0.00000  Uiso   1.00
C952   C     0.76300   0.20761   0.97697   0.00000  Uiso   1.00
C953   C     0.96490   0.02167   0.73646   0.00000  Uiso   1.00
C954   C     0.70362   0.31173   0.76309   0.00000  Uiso   1.00
C955   C     0.96374   0.31250   0.73853   0.00000  Uiso   1.00
C956   C     0.70367   0.02112   0.76285   0.00000  Uiso   1.00
C957   C     0.66684   0.29057   0.75092   0.00000  Uiso   1.00
C958   C     0.66736   0.04287   0.74970   0.00000  Uiso   1.00
C959   C     0.84959   0.14214   0.78032   0.00000  Uiso   1.00
C960   C     0.81818   0.18818   0.71697   0.00000  Uiso   1.00
C961   C     0.79909   0.14364   0.78193   0.00000  Uiso   1.00
C962   C     0.86782   0.18760   0.71669   0.00000  Uiso   1.00
C963   C     0.97263   0.16768   0.83616   0.00000  Uiso   1.00
C964   C     0.69387   0.16797   0.66389   0.00000  Uiso   1.00
C965   C     0.95671   0.16905   0.88575   0.00000  Uiso   1.00
C966   C     0.70938   0.17493   0.61472   0.00000  Uiso   1.00
C967   C     0.97335   0.15869   0.95834   0.00000  Uiso   1.00
C968   C     0.69751   0.20679   0.54594   0.00000  Uiso   1.00
C969   C     0.98935   0.16499   0.91175   0.00000  Uiso   1.00
C970   C     0.67946   0.19401   0.59125   0.00000  Uiso   1.00
C971   C     0.90776   0.17348   0.90740   0.00000  Uiso   1.00
C972   C     0.75717   0.16733   0.59227   0.00000  Uiso   1.00
C973   C     0.89117   0.17359   0.95473   0.00000  Uiso   1.00
C974   C     0.77666   0.18009   0.54696   0.00000  Uiso   1.00
C975   C     0.92437   0.16407   0.98028   0.00000  Uiso   1.00
C976   C     0.74558   0.19820   0.52311   0.00000  Uiso   1.00
C977   C     0.84243   0.18194   0.97729   0.00000  Uiso   1.00
C978   C     0.82620   0.17517   0.52482   0.00000  Uiso   1.00
Cu979  Cu    0.71355   0.16667   0.75000   0.00000  Uiso   1.00
Cu980  Cu    0.95311   0.16666   0.75000   0.00000  Uiso   1.00
H981   H     0.93330   0.15445   0.54747   0.00000  Uiso   1.00
H982   H     0.74000   0.22144   0.95793   0.00000  Uiso   1.00
H983   H     0.77840   0.15067   0.61089   0.00000  Uiso   1.00
H984   H     0.88290   0.17599   0.88680   0.00000  Uiso   1.00
H985   H     0.97580   0.20016   0.60813   0.00000  Uiso   1.00
H986   H     0.69386   0.16584   0.89603   0.00000  Uiso   1.00
H987   H     0.85141   0.16362   0.58533   0.00000  Uiso   1.00
H988   H     0.82073   0.20725   0.91879   0.00000  Uiso   1.00
H989   H     0.93799   0.03783   0.72418   0.00000  Uiso   1.00
H990   H     0.73178   0.29535   0.77345   0.00000  Uiso   1.00
H991   H     0.93453   0.29707   0.73002   0.00000  Uiso   1.00
H992   H     0.73181   0.03703   0.77318   0.00000  Uiso   1.00
N993   N     0.78403   0.16668   0.74999   0.00000  Uiso   1.00
N994   N     0.88264   0.16666   0.75001   0.00000  Uiso   1.00
O995   O     0.70625   0.10655   0.75000   0.00000  Uiso   1.00
O996   O     0.96042   0.22678   0.75000   0.00000  Uiso   1.00
O997   O     0.96039   0.10654   0.75000   0.00000  Uiso   1.00
O998   O     0.70628   0.22679   0.75000   0.00000  Uiso   1.00
O999   O     0.68519   0.16668   0.81492   0.00000  Uiso   1.00
O1000  O     0.98148   0.16666   0.68508   0.00000  Uiso   1.00
O1001  O     0.93933   0.16667   0.81492   0.00000  Uiso   1.00
O1002  O     0.72733   0.16667   0.68508   0.00000  Uiso   1.00
O1003  O     0.67317   0.14954   0.98228   0.00000  Uiso   1.00
C1004  C     0.67621   0.10638   0.98690   0.00000  Uiso   1.00
H1005  H     0.68790   0.09216   0.95358   0.00000  Uiso   1.00
H1006  H     0.97475   0.09237   0.50680   0.00000  Uiso   1.00
H1007  H     0.70354   0.09915   0.50540   0.00000  Uiso   1.00
O1008  O     0.66741   0.22597   0.52342   0.00000  Uiso   1.00
C1009  C     0.99608   0.26752   0.53523   0.00000  Uiso   1.00
H1010  H     0.69835   0.28368   0.52669   0.00000  Uiso   1.00
H1011  H     0.97754   0.27028   0.57155   0.00000  Uiso   1.00
H1012  H     0.97371   0.28328   0.51557   0.00000  Uiso   1.00
O1013  O     0.86647   0.11368   0.80675   0.00000  Uiso   1.00
C1014  C     0.86209   0.07373   0.79137   0.00000  Uiso   1.00
H1015  H     0.87116   0.07306   0.75396   0.00000  Uiso   1.00
H1016  H     0.82539   0.06061   0.80547   0.00000  Uiso   1.00
H1017  H     0.88701   0.05314   0.80346   0.00000  Uiso   1.00
O1018  O     0.80617   0.20451   0.67932   0.00000  Uiso   1.00
C1019  C     0.79547   0.24680   0.68380   0.00000  Uiso   1.00
H1020  H     0.82195   0.26516   0.65753   0.00000  Uiso   1.00
H1021  H     0.79443   0.25894   0.71741   0.00000  Uiso   1.00
H1022  H     0.76027   0.25228   0.67662   0.00000  Uiso   1.00
O1023  O     0.76552   0.11789   0.81132   0.00000  Uiso   1.00
C1024  C     0.76744   0.12151   0.85637   0.00000  Uiso   1.00
H1025  H     0.73322   0.10903   0.87848   0.00000  Uiso   1.00
H1026  H     0.77278   0.15396   0.86466   0.00000  Uiso   1.00
H1027  H     0.79509   0.10175   0.86495   0.00000  Uiso   1.00
O1028  O     0.90190   0.19996   0.67766   0.00000  Uiso   1.00
C1029  C     0.90838   0.24309   0.67437   0.00000  Uiso   1.00
H1030  H     0.94629   0.25036   0.67311   0.00000  Uiso   1.00
H1031  H     0.88410   0.25999   0.70202   0.00000  Uiso   1.00
H1032  H     0.90307   0.25470   0.64174   0.00000  Uiso   1.00
C1033  C     0.00010   0.42082   0.74988   0.00000  Uiso   1.00
C1034  C     0.33332   0.57921   0.75050   0.00000  Uiso   1.00
C1035  C     0.19368   0.49890   0.54904   0.00000  Uiso   1.00
C1036  C     0.14336   0.53200   0.95423   0.00000  Uiso   1.00
C1037  C     0.24180   0.49412   0.52719   0.00000  Uiso   1.00
C1038  C     0.09633   0.54095   0.97697   0.00000  Uiso   1.00
C1039  C     0.29823   0.35500   0.73646   0.00000  Uiso   1.00
C1040  C     0.03695   0.64506   0.76309   0.00000  Uiso   1.00
C1041  C     0.29708   0.64584   0.73853   0.00000  Uiso   1.00
C1042  C     0.03700   0.35445   0.76285   0.00000  Uiso   1.00
C1043  C     0.00017   0.62391   0.75092   0.00000  Uiso   1.00
C1044  C     0.00069   0.37620   0.74970   0.00000  Uiso   1.00
C1045  C     0.18293   0.47547   0.78032   0.00000  Uiso   1.00
C1046  C     0.15152   0.52152   0.71697   0.00000  Uiso   1.00
C1047  C     0.13243   0.47698   0.78193   0.00000  Uiso   1.00
C1048  C     0.20116   0.52094   0.71669   0.00000  Uiso   1.00
C1049  C     0.30596   0.50102   0.83616   0.00000  Uiso   1.00
C1050  C     0.02720   0.50130   0.66389   0.00000  Uiso   1.00
C1051  C     0.29005   0.50238   0.88575   0.00000  Uiso   1.00
C1052  C     0.04271   0.50826   0.61472   0.00000  Uiso   1.00
C1053  C     0.30668   0.49202   0.95834   0.00000  Uiso   1.00
C1054  C     0.03084   0.54012   0.54594   0.00000  Uiso   1.00
C1055  C     0.32268   0.49832   0.91175   0.00000  Uiso   1.00
C1056  C     0.01279   0.52735   0.59125   0.00000  Uiso   1.00
C1057  C     0.24109   0.50681   0.90740   0.00000  Uiso   1.00
C1058  C     0.09050   0.50066   0.59227   0.00000  Uiso   1.00
C1059  C     0.22450   0.50692   0.95473   0.00000  Uiso   1.00
C1060  C     0.11000   0.51342   0.54696   0.00000  Uiso   1.00
C1061  C     0.25770   0.49740   0.98028   0.00000  Uiso   1.00
C1062  C     0.07891   0.53154   0.52311   0.00000  Uiso   1.00
C1063  C     0.17576   0.51527   0.97729   0.00000  Uiso   1.00
C1064  C     0.15953   0.50850   0.52482   0.00000  Uiso   1.00
Cu1065 Cu    0.04689   0.50001   0.75000   0.00000  Uiso   1.00
Cu1066 Cu    0.28645   0.49999   0.75000   0.00000  Uiso   1.00
H1067  H     0.26663   0.48779   0.54747   0.00000  Uiso   1.00
H1068  H     0.07333   0.55477   0.95793   0.00000  Uiso   1.00
H1069  H     0.11173   0.48400   0.61089   0.00000  Uiso   1.00
H1070  H     0.21624   0.50932   0.88680   0.00000  Uiso   1.00
H1071  H     0.30913   0.53349   0.60813   0.00000  Uiso   1.00
H1072  H     0.02719   0.49917   0.89603   0.00000  Uiso   1.00
H1073  H     0.18474   0.49695   0.58533   0.00000  Uiso   1.00
H1074  H     0.15407   0.54058   0.91879   0.00000  Uiso   1.00
H1075  H     0.27132   0.37116   0.72418   0.00000  Uiso   1.00
H1076  H     0.06511   0.62868   0.77345   0.00000  Uiso   1.00
H1077  H     0.26786   0.63040   0.73002   0.00000  Uiso   1.00
H1078  H     0.06515   0.37036   0.77318   0.00000  Uiso   1.00
N1079  N     0.11736   0.50001   0.74999   0.00000  Uiso   1.00
N1080  N     0.21597   0.49999   0.75001   0.00000  Uiso   1.00
O1081  O     0.03958   0.43989   0.75000   0.00000  Uiso   1.00
O1082  O     0.29375   0.56011   0.75000   0.00000  Uiso   1.00
O1083  O     0.29372   0.43988   0.75000   0.00000  Uiso   1.00
O1084  O     0.03961   0.56012   0.75000   0.00000  Uiso   1.00
O1085  O     0.01852   0.50001   0.81492   0.00000  Uiso   1.00
O1086  O     0.31481   0.49999   0.68508   0.00000  Uiso   1.00
O1087  O     0.27267   0.50000   0.81492   0.00000  Uiso   1.00
O1088  O     0.06067   0.50000   0.68508   0.00000  Uiso   1.00
O1089  O     0.00650   0.48288   0.98228   0.00000  Uiso   1.00
C1090  C     0.00954   0.43971   0.98690   0.00000  Uiso   1.00
H1091  H     0.02124   0.42550   0.95358   0.00000  Uiso   1.00
H1092  H     0.30808   0.42570   0.50680   0.00000  Uiso   1.00
H1093  H     0.03687   0.43248   0.50540   0.00000  Uiso   1.00
O1094  O     0.00074   0.55931   0.52342   0.00000  Uiso   1.00
C1095  C     0.32941   0.60085   0.53523   0.00000  Uiso   1.00
H1096  H     0.03168   0.61701   0.52669   0.00000  Uiso   1.00
H1097  H     0.31088   0.60361   0.57155   0.00000  Uiso   1.00
H1098  H     0.30704   0.61661   0.51557   0.00000  Uiso   1.00
O1099  O     0.19980   0.44701   0.80675   0.00000  Uiso   1.00
C1100  C     0.19542   0.40706   0.79137   0.00000  Uiso   1.00
H1101  H     0.20449   0.40640   0.75396   0.00000  Uiso   1.00
H1102  H     0.15873   0.39395   0.80547   0.00000  Uiso   1.00
H1103  H     0.22034   0.38648   0.80346   0.00000  Uiso   1.00
O1104  O     0.13951   0.53785   0.67932   0.00000  Uiso   1.00
C1105  C     0.12880   0.58013   0.68380   0.00000  Uiso   1.00
H1106  H     0.15528   0.59849   0.65753   0.00000  Uiso   1.00
H1107  H     0.12776   0.59228   0.71741   0.00000  Uiso   1.00
H1108  H     0.09360   0.58562   0.67662   0.00000  Uiso   1.00
O1109  O     0.09885   0.45123   0.81132   0.00000  Uiso   1.00
C1110  C     0.10078   0.45484   0.85637   0.00000  Uiso   1.00
H1111  H     0.06655   0.44236   0.87848   0.00000  Uiso   1.00
H1112  H     0.10612   0.48729   0.86466   0.00000  Uiso   1.00
H1113  H     0.12843   0.43508   0.86495   0.00000  Uiso   1.00
O1114  O     0.23523   0.53330   0.67766   0.00000  Uiso   1.00
C1115  C     0.24171   0.57642   0.67437   0.00000  Uiso   1.00
H1116  H     0.27962   0.58369   0.67311   0.00000  Uiso   1.00
H1117  H     0.21743   0.59332   0.70202   0.00000  Uiso   1.00
H1118  H     0.23641   0.58804   0.64174   0.00000  Uiso   1.00
C1119  C     0.33343   0.42082   0.74988   0.00000  Uiso   1.00
C1120  C     0.66665   0.57921   0.75050   0.00000  Uiso   1.00
C1121  C     0.52701   0.49890   0.54904   0.00000  Uiso   1.00
C1122  C     0.47670   0.53200   0.95423   0.00000  Uiso   1.00
C1123  C     0.57514   0.49412   0.52719   0.00000  Uiso   1.00
C1124  C     0.42967   0.54095   0.97697   0.00000  Uiso   1.00
C1125  C     0.63156   0.35500   0.73646   0.00000  Uiso   1.00
C1126  C     0.37029   0.64506   0.76309   0.00000  Uiso   1.00
C1127  C     0.63041   0.64584   0.73853   0.00000  Uiso   1.00
C1128  C     0.37033   0.35445   0.76285   0.00000  Uiso   1.00
C1129  C     0.33350   0.62391   0.75092   0.00000  Uiso   1.00
C1130  C     0.33403   0.37620   0.74970   0.00000  Uiso   1.00
C1131  C     0.51626   0.47547   0.78032   0.00000  Uiso   1.00
C1132  C     0.48485   0.52152   0.71697   0.00000  Uiso   1.00
C1133  C     0.46576   0.47698   0.78193   0.00000  Uiso   1.00
C1134  C     0.53449   0.52094   0.71669   0.00000  Uiso   1.00
C1135  C     0.63929   0.50102   0.83616   0.00000  Uiso   1.00
C1136  C     0.36054   0.50130   0.66389   0.00000  Uiso   1.00
C1137  C     0.62338   0.50238   0.88575   0.00000  Uiso   1.00
C1138  C     0.37604   0.50826   0.61472   0.00000  Uiso   1.00
C1139  C     0.64001   0.49202   0.95834   0.00000  Uiso   1.00
C1140  C     0.36418   0.54012   0.54594   0.00000  Uiso   1.00
C1141  C     0.65601   0.49832   0.91175   0.00000  Uiso   1.00
C1142  C     0.34613   0.52735   0.59125   0.00000  Uiso   1.00
C1143  C     0.57442   0.50681   0.90740   0.00000  Uiso   1.00
C1144  C     0.42383   0.50066   0.59227   0.00000  Uiso   1.00
C1145  C     0.55783   0.50692   0.95473   0.00000  Uiso   1.00
C1146  C     0.44333   0.51342   0.54696   0.00000  Uiso   1.00
C1147  C     0.59104   0.49740   0.98028   0.00000  Uiso   1.00
C1148  C     0.41224   0.53154   0.52311   0.00000  Uiso   1.00
C1149  C     0.50909   0.51527   0.97729   0.00000  Uiso   1.00
C1150  C     0.49287   0.50850   0.52482   0.00000  Uiso   1.00
Cu1151 Cu    0.38022   0.50001   0.75000   0.00000  Uiso   1.00
Cu1152 Cu    0.61978   0.49999   0.75000   0.00000  Uiso   1.00
H1153  H     0.59996   0.48779   0.54747   0.00000  Uiso   1.00
H1154  H     0.40666   0.55477   0.95793   0.00000  Uiso   1.00
H1155  H     0.44507   0.48400   0.61089   0.00000  Uiso   1.00
H1156  H     0.54957   0.50932   0.88680   0.00000  Uiso   1.00
H1157  H     0.64247   0.53349   0.60813   0.00000  Uiso   1.00
H1158  H     0.36053   0.49917   0.89603   0.00000  Uiso   1.00
H1159  H     0.51807   0.49695   0.58533   0.00000  Uiso   1.00
H1160  H     0.48740   0.54058   0.91879   0.00000  Uiso   1.00
H1161  H     0.60465   0.37116   0.72418   0.00000  Uiso   1.00
H1162  H     0.39844   0.62868   0.77345   0.00000  Uiso   1.00
H1163  H     0.60120   0.63040   0.73002   0.00000  Uiso   1.00
H1164  H     0.39848   0.37036   0.77318   0.00000  Uiso   1.00
N1165  N     0.45069   0.50001   0.74999   0.00000  Uiso   1.00
N1166  N     0.54931   0.49999   0.75001   0.00000  Uiso   1.00
O1167  O     0.37291   0.43989   0.75000   0.00000  Uiso   1.00
O1168  O     0.62709   0.56011   0.75000   0.00000  Uiso   1.00
O1169  O     0.62706   0.43988   0.75000   0.00000  Uiso   1.00
O1170  O     0.37294   0.56012   0.75000   0.00000  Uiso   1.00
O1171  O     0.35186   0.50001   0.81492   0.00000  Uiso   1.00
O1172  O     0.64814   0.49999   0.68508   0.00000  Uiso   1.00
O1173  O     0.60600   0.50000   0.81492   0.00000  Uiso   1.00
O1174  O     0.39400   0.50000   0.68508   0.00000  Uiso   1.00
O1175  O     0.33984   0.48288   0.98228   0.00000  Uiso   1.00
C1176  C     0.34287   0.43971   0.98690   0.00000  Uiso   1.00
H1177  H     0.35457   0.42550   0.95358   0.00000  Uiso   1.00
H1178  H     0.64142   0.42570   0.50680   0.00000  Uiso   1.00
H1179  H     0.37021   0.43248   0.50540   0.00000  Uiso   1.00
O1180  O     0.33408   0.55931   0.52342   0.00000  Uiso   1.00
C1181  C     0.66274   0.60085   0.53523   0.00000  Uiso   1.00
H1182  H     0.36501   0.61701   0.52669   0.00000  Uiso   1.00
H1183  H     0.64421   0.60361   0.57155   0.00000  Uiso   1.00
H1184  H     0.64038   0.61661   0.51557   0.00000  Uiso   1.00
O1185  O     0.53313   0.44701   0.80675   0.00000  Uiso   1.00
C1186  C     0.52876   0.40706   0.79137   0.00000  Uiso   1.00
H1187  H     0.53782   0.40640   0.75396   0.00000  Uiso   1.00
H1188  H     0.49206   0.39395   0.80547   0.00000  Uiso   1.00
H1189  H     0.55368   0.38648   0.80346   0.00000  Uiso   1.00
O1190  O     0.47284   0.53785   0.67932   0.00000  Uiso   1.00
C1191  C     0.46213   0.58013   0.68380   0.00000  Uiso   1.00
H1192  H     0.48861   0.59849   0.65753   0.00000  Uiso   1.00
H1193  H     0.46109   0.59228   0.71741   0.00000  Uiso   1.00
H1194  H     0.42693   0.58562   0.67662   0.00000  Uiso   1.00
O1195  O     0.43219   0.45123   0.81132   0.00000  Uiso   1.00
C1196  C     0.43411   0.45484   0.85637   0.00000  Uiso   1.00
H1197  H     0.39988   0.44236   0.87848   0.00000  Uiso   1.00
H1198  H     0.43945   0.48729   0.86466   0.00000  Uiso   1.00
H1199  H     0.46176   0.43508   0.86495   0.00000  Uiso   1.00
O1200  O     0.56857   0.53330   0.67766   0.00000  Uiso   1.00
C1201  C     0.57504   0.57642   0.67437   0.00000  Uiso   1.00
H1202  H     0.61296   0.58369   0.67311   0.00000  Uiso   1.00
H1203  H     0.55076   0.59332   0.70202   0.00000  Uiso   1.00
H1204  H     0.56974   0.58804   0.64174   0.00000  Uiso   1.00
C1205  C     0.66676   0.42082   0.74988   0.00000  Uiso   1.00
C1206  C     0.99999   0.57921   0.75050   0.00000  Uiso   1.00
C1207  C     0.86034   0.49890   0.54904   0.00000  Uiso   1.00
C1208  C     0.81003   0.53200   0.95423   0.00000  Uiso   1.00
C1209  C     0.90847   0.49412   0.52719   0.00000  Uiso   1.00
C1210  C     0.76300   0.54095   0.97697   0.00000  Uiso   1.00
C1211  C     0.96490   0.35500   0.73646   0.00000  Uiso   1.00
C1212  C     0.70362   0.64506   0.76309   0.00000  Uiso   1.00
C1213  C     0.96374   0.64584   0.73853   0.00000  Uiso   1.00
C1214  C     0.70367   0.35445   0.76285   0.00000  Uiso   1.00
C1215  C     0.66684   0.62391   0.75092   0.00000  Uiso   1.00
C1216  C     0.66736   0.37620   0.74970   0.00000  Uiso   1.00
C1217  C     0.84959   0.47547   0.78032   0.00000  Uiso   1.00
C1218  C     0.81818   0.52152   0.71697   0.00000  Uiso   1.00
C1219  C     0.79909   0.47698   0.78193   0.00000  Uiso   1.00
C1220  C     0.86782   0.52094   0.71669   0.00000  Uiso   1.00
C1221  C     0.97263   0.50102   0.83616   0.00000  Uiso   1.00
C1222  C     0.69387   0.50130   0.66389   0.00000  Uiso   1.00
C1223  C     0.95671   0.50238   0.88575   0.00000  Uiso   1.00
C1224  C     0.70938   0.50826   0.61472   0.00000  Uiso   1.00
C1225  C     0.97335   0.49202   0.95834   0.00000  Uiso   1.00
C1226  C     0.69751   0.54012   0.54594   0.00000  Uiso   1.00
C1227  C     0.98935   0.49832   0.91175   0.00000  Uiso   1.00
C1228  C     0.67946   0.52735   0.59125   0.00000  Uiso   1.00
C1229  C     0.90776   0.50681   0.90740   0.00000  Uiso   1.00
C1230  C     0.75717   0.50066   0.59227   0.00000  Uiso   1.00
C1231  C     0.89117   0.50692   0.95473   0.00000  Uiso   1.00
C1232  C     0.77666   0.51342   0.54696   0.00000  Uiso   1.00
C1233  C     0.92437   0.49740   0.98028   0.00000  Uiso   1.00
C1234  C     0.74558   0.53154   0.52311   0.00000  Uiso   1.00
C1235  C     0.84243   0.51527   0.97729   0.00000  Uiso   1.00
C1236  C     0.82620   0.50850   0.52482   0.00000  Uiso   1.00
Cu1237 Cu    0.71355   0.50001   0.75000   0.00000  Uiso   1.00
Cu1238 Cu    0.95311   0.49999   0.75000   0.00000  Uiso   1.00
H1239  H     0.93330   0.48779   0.54747   0.00000  Uiso   1.00
H1240  H     0.74000   0.55477   0.95793   0.00000  Uiso   1.00
H1241  H     0.77840   0.48400   0.61089   0.00000  Uiso   1.00
H1242  H     0.88290   0.50932   0.88680   0.00000  Uiso   1.00
H1243  H     0.97580   0.53349   0.60813   0.00000  Uiso   1.00
H1244  H     0.69386   0.49917   0.89603   0.00000  Uiso   1.00
H1245  H     0.85141   0.49695   0.58533   0.00000  Uiso   1.00
H1246  H     0.82073   0.54058   0.91879   0.00000  Uiso   1.00
H1247  H     0.93799   0.37116   0.72418   0.00000  Uiso   1.00
H1248  H     0.73178   0.62868   0.77345   0.00000  Uiso   1.00
H1249  H     0.93453   0.63040   0.73002   0.00000  Uiso   1.00
H1250  H     0.73181   0.37036   0.77318   0.00000  Uiso   1.00
N1251  N     0.78403   0.50001   0.74999   0.00000  Uiso   1.00
N1252  N     0.88264   0.49999   0.75001   0.00000  Uiso   1.00
O1253  O     0.70625   0.43989   0.75000   0.00000  Uiso   1.00
O1254  O     0.96042   0.56011   0.75000   0.00000  Uiso   1.00
O1255  O     0.96039   0.43988   0.75000   0.00000  Uiso   1.00
O1256  O     0.70628   0.56012   0.75000   0.00000  Uiso   1.00
O1257  O     0.68519   0.50001   0.81492   0.00000  Uiso   1.00
O1258  O     0.98148   0.49999   0.68508   0.00000  Uiso   1.00
O1259  O     0.93933   0.50000   0.81492   0.00000  Uiso   1.00
O1260  O     0.72733   0.50000   0.68508   0.00000  Uiso   1.00
O1261  O     0.67317   0.48288   0.98228   0.00000  Uiso   1.00
C1262  C     0.67621   0.43971   0.98690   0.00000  Uiso   1.00
H1263  H     0.68790   0.42550   0.95358   0.00000  Uiso   1.00
H1264  H     0.97475   0.42570   0.50680   0.00000  Uiso   1.00
H1265  H     0.70354   0.43248   0.50540   0.00000  Uiso   1.00
O1266  O     0.66741   0.55931   0.52342   0.00000  Uiso   1.00
C1267  C     0.99608   0.60085   0.53523   0.00000  Uiso   1.00
H1268  H     0.69835   0.61701   0.52669   0.00000  Uiso   1.00
H1269  H     0.97754   0.60361   0.57155   0.00000  Uiso   1.00
H1270  H     0.97371   0.61661   0.51557   0.00000  Uiso   1.00
O1271  O     0.86647   0.44701   0.80675   0.00000  Uiso   1.00
C1272  C     0.86209   0.40706   0.79137   0.00000  Uiso   1.00
H1273  H     0.87116   0.40640   0.75396   0.00000  Uiso   1.00
H1274  H     0.82539   0.39395   0.80547   0.00000  Uiso   1.00
H1275  H     0.88701   0.38648   0.80346   0.00000  Uiso   1.00
O1276  O     0.80617   0.53785   0.67932   0.00000  Uiso   1.00
C1277  C     0.79547   0.58013   0.68380   0.00000  Uiso   1.00
H1278  H     0.82195   0.59849   0.65753   0.00000  Uiso   1.00
H1279  H     0.79443   0.59228   0.71741   0.00000  Uiso   1.00
H1280  H     0.76027   0.58562   0.67662   0.00000  Uiso   1.00
O1281  O     0.76552   0.45123   0.81132   0.00000  Uiso   1.00
C1282  C     0.76744   0.45484   0.85637   0.00000  Uiso   1.00
H1283  H     0.73322   0.44236   0.87848   0.00000  Uiso   1.00
H1284  H     0.77278   0.48729   0.86466   0.00000  Uiso   1.00
H1285  H     0.79509   0.43508   0.86495   0.00000  Uiso   1.00
O1286  O     0.90190   0.53330   0.67766   0.00000  Uiso   1.00
C1287  C     0.90838   0.57642   0.67437   0.00000  Uiso   1.00
H1288  H     0.94629   0.58369   0.67311   0.00000  Uiso   1.00
H1289  H     0.88410   0.59332   0.70202   0.00000  Uiso   1.00
H1290  H     0.90307   0.58804   0.64174   0.00000  Uiso   1.00
C1291  C     0.00010   0.75415   0.74988   0.00000  Uiso   1.00
C1292  C     0.33332   0.91255   0.75050   0.00000  Uiso   1.00
C1293  C     0.19368   0.83223   0.54904   0.00000  Uiso   1.00
C1294  C     0.14336   0.86533   0.95423   0.00000  Uiso   1.00
C1295  C     0.24180   0.82745   0.52719   0.00000  Uiso   1.00
C1296  C     0.09633   0.87428   0.97697   0.00000  Uiso   1.00
C1297  C     0.29823   0.68834   0.73646   0.00000  Uiso   1.00
C1298  C     0.03695   0.97840   0.76309   0.00000  Uiso   1.00
C1299  C     0.29708   0.97917   0.73853   0.00000  Uiso   1.00
C1300  C     0.03700   0.68779   0.76285   0.00000  Uiso   1.00
C1301  C     0.00017   0.95724   0.75092   0.00000  Uiso   1.00
C1302  C     0.00069   0.70954   0.74970   0.00000  Uiso   1.00
C1303  C     0.18293   0.80880   0.78032   0.00000  Uiso   1.00
C1304  C     0.15152   0.85485   0.71697   0.00000  Uiso   1.00
C1305  C     0.13243   0.81031   0.78193   0.00000  Uiso   1.00
C1306  C     0.20116   0.85427   0.71669   0.00000  Uiso   1.00
C1307  C     0.30596   0.83435   0.83616   0.00000  Uiso   1.00
C1308  C     0.02720   0.83463   0.66389   0.00000  Uiso   1.00
C1309  C     0.29005   0.83572   0.88575   0.00000  Uiso   1.00
C1310  C     0.04271   0.84160   0.61472   0.00000  Uiso   1.00
C1311  C     0.30668   0.82536   0.95834   0.00000  Uiso   1.00
C1312  C     0.03084   0.87346   0.54594   0.00000  Uiso   1.00
C1313  C     0.32268   0.83166   0.91175   0.00000  Uiso   1.00
C1314  C     0.01279   0.86068   0.59125   0.00000  Uiso   1.00
C1315  C     0.24109   0.84015   0.90740   0.00000  Uiso   1.00
C1316  C     0.09050   0.83399   0.59227   0.00000  Uiso   1.00
C1317  C     0.22450   0.84026   0.95473   0.00000  Uiso   1.00
C1318  C     0.11000   0.84676   0.54696   0.00000  Uiso   1.00
C1319  C     0.25770   0.83073   0.98028   0.00000  Uiso   1.00
C1320  C     0.07891   0.86487   0.52311   0.00000  Uiso   1.00
C1321  C     0.17576   0.84860   0.97729   0.00000  Uiso   1.00
C1322  C     0.15953   0.84183   0.52482   0.00000  Uiso   1.00
Cu1323 Cu    0.04689   0.83334   0.75000   0.00000  Uiso   1.00
Cu1324 Cu    0.28645   0.83333   0.75000   0.00000  Uiso   1.00
H1325  H     0.26663   0.82112   0.54747   0.00000  Uiso   1.00
H1326  H     0.07333   0.88811   0.95793   0.00000  Uiso   1.00
H1327  H     0.11173   0.81734   0.61089   0.00000  Uiso   1.00
H1328  H     0.21624   0.84265   0.88680   0.00000  Uiso   1.00
H1329  H     0.30913   0.86682   0.60813   0.00000  Uiso   1.00
H1330  H     0.02719   0.83250   0.89603   0.00000  Uiso   1.00
H1331  H     0.18474   0.83029   0.58533   0.00000  Uiso   1.00
H1332  H     0.15407   0.87392   0.91879   0.00000  Uiso   1.00
H1333  H     0.27132   0.70449   0.72418   0.00000  Uiso   1.00
H1334  H     0.06511   0.96202   0.77345   0.00000  Uiso   1.00
H1335  H     0.26786   0.96374   0.73002   0.00000  Uiso   1.00
H1336  H     0.06515   0.70369   0.77318   0.00000  Uiso   1.00
N1337  N     0.11736   0.83334   0.74999   0.00000  Uiso   1.00
N1338  N     0.21597   0.83332   0.75001   0.00000  Uiso   1.00
O1339  O     0.03958   0.77322   0.75000   0.00000  Uiso   1.00
O1340  O     0.29375   0.89345   0.75000   0.00000  Uiso   1.00
O1341  O     0.29372   0.77321   0.75000   0.00000  Uiso   1.00
O1342  O     0.03961   0.89346   0.75000   0.00000  Uiso   1.00
O1343  O     0.01852   0.83334   0.81492   0.00000  Uiso   1.00
O1344  O     0.31481   0.83332   0.68508   0.00000  Uiso   1.00
O1345  O     0.27267   0.83333   0.81492   0.00000  Uiso   1.00
O1346  O     0.06067   0.83333   0.68508   0.00000  Uiso   1.00
O1347  O     0.00650   0.81621   0.98228   0.00000  Uiso   1.00
C1348  C     0.00954   0.77304   0.98690   0.00000  Uiso   1.00
H1349  H     0.02124   0.75883   0.95358   0.00000  Uiso   1.00
H1350  H     0.30808   0.75903   0.50680   0.00000  Uiso   1.00
H1351  H     0.03687   0.76581   0.50540   0.00000  Uiso   1.00
O1352  O     0.00074   0.89264   0.52342   0.00000  Uiso   1.00
C1353  C     0.32941   0.93419   0.53523   0.00000  Uiso   1.00
H1354  H     0.03168   0.95034   0.52669   0.00000  Uiso   1.00
H1355  H     0.31088   0.93694   0.57155   0.00000  Uiso   1.00
H1356  H     0.30704   0.94994   0.51557   0.00000  Uiso   1.00
O1357  O     0.19980   0.78035   0.80675   0.00000  Uiso   1.00
C1358  C     0.19542   0.74040   0.79137   0.00000  Uiso   1.00
H1359  H     0.20449   0.73973   0.75396   0.00000  Uiso   1.00
H1360  H     0.15873   0.72728   0.80547   0.00000  Uiso   1.00
H1361  H     0.22034   0.71981   0.80346   0.00000  Uiso   1.00
O1362  O     0.13951   0.87118   0.67932   0.00000  Uiso   1.00
C1363  C     0.12880   0.91347   0.68380   0.00000  Uiso   1.00
H1364  H     0.15528   0.93182   0.65753   0.00000  Uiso   1.00
H1365  H     0.12776   0.92561   0.71741   0.00000  Uiso   1.00
H1366  H     0.09360   0.91895   0.67662   0.00000  Uiso   1.00
O1367  O     0.09885   0.78456   0.81132   0.00000  Uiso   1.00
C1368  C     0.10078   0.78817   0.85637   0.00000  Uiso   1.00
H1369  H     0.06655   0.77570   0.87848   0.00000  Uiso   1.00
H1370  H     0.10612   0.82063   0.86466   0.00000  Uiso   1.00
H1371  H     0.12843   0.76841   0.86495   0.00000  Uiso   1.00
O1372  O     0.23523   0.86663   0.67766   0.00000  Uiso   1.00
C1373  C     0.24171   0.90976   0.67437   0.00000  Uiso   1.00
H1374  H     0.27962   0.91702   0.67311   0.00000  Uiso   1.00
H1375  H     0.21743   0.92666   0.70202   0.00000  Uiso   1.00
H1376  H     0.23641   0.92137   0.64174   0.00000  Uiso   1.00
C1377  C     0.33343   0.75415   0.74988   0.00000  Uiso   1.00
C1378  C     0.66665   0.91255   0.75050   0.00000  Uiso   1.00
C1379  C     0.52701   0.83223   0.54904   0.00000  Uiso   1.00
C1380  C     0.47670   0.86533   0.95423   0.00000  Uiso   1.00
C1381  C     0.57514   0.82745   0.52719   0.00000  Uiso   1.00
C1382  C     0.42967   0.87428   0.97697   0.00000  Uiso   1.00
C1383  C     0.63156   0.68834   0.73646   0.00000  Uiso   1.00
C1384  C     0.37029   0.97840   0.76309   0.00000  Uiso   1.00
C1385  C     0.63041   0.97917   0.73853   0.00000  Uiso   1.00
C1386  C     0.37033   0.68779   0.76285   0.00000  Uiso   1.00
C1387  C     0.33350   0.95724   0.75092   0.00000  Uiso   1.00
C1388  C     0.33403   0.70954   0.74970   0.00000  Uiso   1.00
C1389  C     0.51626   0.80880   0.78032   0.00000  Uiso   1.00
C1390  C     0.48485   0.85485   0.71697   0.00000  Uiso   1.00
C1391  C     0.46576   0.81031   0.78193   0.00000  Uiso   1.00
C1392  C     0.53449   0.85427   0.71669   0.00000  Uiso   1.00
C1393  C     0.63929   0.83435   0.83616   0.00000  Uiso   1.00
C1394  C     0.36054   0.83463   0.66389   0.00000  Uiso   1.00
C1395  C     0.62338   0.83572   0.88575   0.00000  Uiso   1.00
C1396  C     0.37604   0.84160   0.61472   0.00000  Uiso   1.00
C1397  C     0.64001   0.82536   0.95834   0.00000  Uiso   1.00
C1398  C     0.36418   0.87346   0.54594   0.00000  Uiso   1.00
C1399  C     0.65601   0.83166   0.91175   0.00000  Uiso   1.00
C1400  C     0.34613   0.86068   0.59125   0.00000  Uiso   1.00
C1401  C     0.57442   0.84015   0.90740   0.00000  Uiso   1.00
C1402  C     0.42383   0.83399   0.59227   0.00000  Uiso   1.00
C1403  C     0.55783   0.84026   0.95473   0.00000  Uiso   1.00
C1404  C     0.44333   0.84676   0.54696   0.00000  Uiso   1.00
C1405  C     0.59104   0.83073   0.98028   0.00000  Uiso   1.00
C1406  C     0.41224   0.86487   0.52311   0.00000  Uiso   1.00
C1407  C     0.50909   0.84860   0.97729   0.00000  Uiso   1.00
C1408  C     0.49287   0.84183   0.52482   0.00000  Uiso   1.00
Cu1409 Cu    0.38022   0.83334   0.75000   0.00000  Uiso   1.00
Cu1410 Cu    0.61978   0.83333   0.75000   0.00000  Uiso   1.00
H1411  H     0.59996   0.82112   0.54747   0.00000  Uiso   1.00
H1412  H     0.40666   0.88811   0.95793   0.00000  Uiso   1.00
H1413  H     0.44507   0.81734   0.61089   0.00000  Uiso   1.00
H1414  H     0.54957   0.84265   0.88680   0.00000  Uiso   1.00
H1415  H     0.64247   0.86682   0.60813   0.00000  Uiso   1.00
H1416  H     0.36053   0.83250   0.89603   0.00000  Uiso   1.00
H1417  H     0.51807   0.83029   0.58533   0.00000  Uiso   1.00
H1418  H     0.48740   0.87392   0.91879   0.00000  Uiso   1.00
H1419  H     0.60465   0.70449   0.72418   0.00000  Uiso   1.00
H1420  H     0.39844   0.96202   0.77345   0.00000  Uiso   1.00
H1421  H     0.60120   0.96374   0.73002   0.00000  Uiso   1.00
H1422  H     0.39848   0.70369   0.77318   0.00000  Uiso   1.00
N1423  N     0.45069   0.83334   0.74999   0.00000  Uiso   1.00
N1424  N     0.54931   0.83332   0.75001   0.00000  Uiso   1.00
O1425  O     0.37291   0.77322   0.75000   0.00000  Uiso   1.00
O1426  O     0.62709   0.89345   0.75000   0.00000  Uiso   1.00
O1427  O     0.62706   0.77321   0.75000   0.00000  Uiso   1.00
O1428  O     0.37294   0.89346   0.75000   0.00000  Uiso   1.00
O1429  O     0.35186   0.83334   0.81492   0.00000  Uiso   1.00
O1430  O     0.64814   0.83332   0.68508   0.00000  Uiso   1.00
O1431  O     0.60600   0.83333   0.81492   0.00000  Uiso   1.00
O1432  O     0.39400   0.83333   0.68508   0.00000  Uiso   1.00
O1433  O     0.33984   0.81621   0.98228   0.00000  Uiso   1.00
C1434  C     0.34287   0.77304   0.98690   0.00000  Uiso   1.00
H1435  H     0.35457   0.75883   0.95358   0.00000  Uiso   1.00
H1436  H     0.64142   0.75903   0.50680   0.00000  Uiso   1.00
H1437  H     0.37021   0.76581   0.50540   0.00000  Uiso   1.00
O1438  O     0.33408   0.89264   0.52342   0.00000  Uiso   1.00
C1439  C     0.66274   0.93419   0.53523   0.00000  Uiso   1.00
H1440  H     0.36501   0.95034   0.52669   0.00000  Uiso   1.00
H1441  H     0.64421   0.93694   0.57155   0.00000  Uiso   1.00
H1442  H     0.64038   0.94994   0.51557   0.00000  Uiso   1.00
O1443  O     0.53313   0.78035   0.80675   0.00000  Uiso   1.00
C1444  C     0.52876   0.74040   0.79137   0.00000  Uiso   1.00
H1445  H     0.53782   0.73973   0.75396   0.00000  Uiso   1.00
H1446  H     0.49206   0.72728   0.80547   0.00000  Uiso   1.00
H1447  H     0.55368   0.71981   0.80346   0.00000  Uiso   1.00
O1448  O     0.47284   0.87118   0.67932   0.00000  Uiso   1.00
C1449  C     0.46213   0.91347   0.68380   0.00000  Uiso   1.00
H1450  H     0.48861   0.93182   0.65753   0.00000  Uiso   1.00
H1451  H     0.46109   0.92561   0.71741   0.00000  Uiso   1.00
H1452  H     0.42693   0.91895   0.67662   0.00000  Uiso   1.00
O1453  O     0.43219   0.78456   0.81132   0.00000  Uiso   1.00
C1454  C     0.43411   0.78817   0.85637   0.00000  Uiso   1.00
H1455  H     0.39988   0.77570   0.87848   0.00000  Uiso   1.00
H1456  H     0.43945   0.82063   0.86466   0.00000  Uiso   1.00
H1457  H     0.46176   0.76841   0.86495   0.00000  Uiso   1.00
O1458  O     0.56857   0.86663   0.67766   0.00000  Uiso   1.00
C1459  C     0.57504   0.90976   0.67437   0.00000  Uiso   1.00
H1460  H     0.61296   0.91702   0.67311   0.00000  Uiso   1.00
H1461  H     0.55076   0.92666   0.70202   0.00000  Uiso   1.00
H1462  H     0.56974   0.92137   0.64174   0.00000  Uiso   1.00
C1463  C     0.66676   0.75415   0.74988   0.00000  Uiso   1.00
C1464  C     0.99999   0.91255   0.75050   0.00000  Uiso   1.00
C1465  C     0.86034   0.83223   0.54904   0.00000  Uiso   1.00
C1466  C     0.81003   0.86533   0.95423   0.00000  Uiso   1.00
C1467  C     0.90847   0.82745   0.52719   0.00000  Uiso   1.00
C1468  C     0.76300   0.87428   0.97697   0.00000  Uiso   1.00
C1469  C     0.96490   0.68834   0.73646   0.00000  Uiso   1.00
C1470  C     0.70362   0.97840   0.76309   0.00000  Uiso   1.00
C1471  C     0.96374   0.97917   0.73853   0.00000  Uiso   1.00
C1472  C     0.70367   0.68779   0.76285   0.00000  Uiso   1.00
C1473  C     0.66684   0.95724   0.75092   0.00000  Uiso   1.00
C1474  C     0.66736   0.70954   0.74970   0.00000  Uiso   1.00
C1475  C     0.84959   0.80880   0.78032   0.00000  Uiso   1.00
C1476  C     0.81818   0.85485   0.71697   0.00000  Uiso   1.00
C1477  C     0.79909   0.81031   0.78193   0.00000  Uiso   1.00
C1478  C     0.86782   0.85427   0.71669   0.00000  Uiso   1.00
C1479  C     0.97263   0.83435   0.83616   0.00000  Uiso   1.00
C1480  C     0.69387   0.83463   0.66389   0.00000  Uiso   1.00
C1481  C     0.95671   0.83572   0.88575   0.00000  Uiso   1.00
C1482  C     0.70938   0.84160   0.61472   0.00000  Uiso   1.00
C1483  C     0.97335   0.82536   0.95834   0.00000  Uiso   1.00
C1484  C     0.69751   0.87346   0.54594   0.00000  Uiso   1.00
C1485  C     0.98935   0.83166   0.91175   0.00000  Uiso   1.00
C1486  C     0.67946   0.86068   0.59125   0.00000  Uiso   1.00
C1487  C     0.90776   0.84015   0.90740   0.00000  Uiso   1.00
C1488  C     0.75717   0.83399   0.59227   0.00000  Uiso   1.00
C1489  C     0.89117   0.84026   0.95473   0.00000  Uiso   1.00
C1490  C     0.77666   0.84676   0.54696   0.00000  Uiso   1.00
C1491  C     0.92437   0.83073   0.98028   0.00000  Uiso   1.00
C1492  C     0.74558   0.86487   0.52311   0.00000  Uiso   1.00
C1493  C     0.84243   0.84860   0.97729   0.00000  Uiso   1.00
C1494  C     0.82620   0.84183   0.52482   0.00000  Uiso   1.00
Cu1495 Cu    0.71355   0.83334   0.75000   0.00000  Uiso   1.00
Cu1496 Cu    0.95311   0.83333   0.75000   0.00000  Uiso   1.00
H1497  H     0.93330   0.82112   0.54747   0.00000  Uiso   1.00
H1498  H     0.74000   0.88811   0.95793   0.00000  Uiso   1.00
H1499  H     0.77840   0.81734   0.61089   0.00000  Uiso   1.00
H1500  H     0.88290   0.84265   0.88680   0.00000  Uiso   1.00
H1501  H     0.97580   0.86682   0.60813   0.00000  Uiso   1.00
H1502  H     0.69386   0.83250   0.89603   0.00000  Uiso   1.00
H1503  H     0.85141   0.83029   0.58533   0.00000  Uiso   1.00
H1504  H     0.82073   0.87392   0.91879   0.00000  Uiso   1.00
H1505  H     0.93799   0.70449   0.72418   0.00000  Uiso   1.00
H1506  H     0.73178   0.96202   0.77345   0.00000  Uiso   1.00
H1507  H     0.93453   0.96374   0.73002   0.00000  Uiso   1.00
H1508  H     0.73181   0.70369   0.77318   0.00000  Uiso   1.00
N1509  N     0.78403   0.83334   0.74999   0.00000  Uiso   1.00
N1510  N     0.88264   0.83332   0.75001   0.00000  Uiso   1.00
O1511  O     0.70625   0.77322   0.75000   0.00000  Uiso   1.00
O1512  O     0.96042   0.89345   0.75000   0.00000  Uiso   1.00
O1513  O     0.96039   0.77321   0.75000   0.00000  Uiso   1.00
O1514  O     0.70628   0.89346   0.75000   0.00000  Uiso   1.00
O1515  O     0.68519   0.83334   0.81492   0.00000  Uiso   1.00
O1516  O     0.98148   0.83332   0.68508   0.00000  Uiso   1.00
O1517  O     0.93933   0.83333   0.81492   0.00000  Uiso   1.00
O1518  O     0.72733   0.83333   0.68508   0.00000  Uiso   1.00
O1519  O     0.67317   0.81621   0.98228   0.00000  Uiso   1.00
C1520  C     0.67621   0.77304   0.98690   0.00000  Uiso   1.00
H1521  H     0.68790   0.75883   0.95358   0.00000  Uiso   1.00
H1522  H     0.97475   0.75903   0.50680   0.00000  Uiso   1.00
H1523  H     0.70354   0.76581   0.50540   0.00000  Uiso   1.00
O1524  O     0.66741   0.89264   0.52342   0.00000  Uiso   1.00
C1525  C     0.99608   0.93419   0.53523   0.00000  Uiso   1.00
H1526  H     0.69835   0.95034   0.52669   0.00000  Uiso   1.00
H1527  H     0.97754   0.93694   0.57155   0.00000  Uiso   1.00
H1528  H     0.97371   0.94994   0.51557   0.00000  Uiso   1.00
O1529  O     0.86647   0.78035   0.80675   0.00000  Uiso   1.00
C1530  C     0.86209   0.74040   0.79137   0.00000  Uiso   1.00
H1531  H     0.87116   0.73973   0.75396   0.00000  Uiso   1.00
H1532  H     0.82539   0.72728   0.80547   0.00000  Uiso   1.00
H1533  H     0.88701   0.71981   0.80346   0.00000  Uiso   1.00
O1534  O     0.80617   0.87118   0.67932   0.00000  Uiso   1.00
C1535  C     0.79547   0.91347   0.68380   0.00000  Uiso   1.00
H1536  H     0.82195   0.93182   0.65753   0.00000  Uiso   1.00
H1537  H     0.79443   0.92561   0.71741   0.00000  Uiso   1.00
H1538  H     0.76027   0.91895   0.67662   0.00000  Uiso   1.00
O1539  O     0.76552   0.78456   0.81132   0.00000  Uiso   1.00
C1540  C     0.76744   0.78817   0.85637   0.00000  Uiso   1.00
H1541  H     0.73322   0.77570   0.87848   0.00000  Uiso   1.00
H1542  H     0.77278   0.82063   0.86466   0.00000  Uiso   1.00
H1543  H     0.79509   0.76841   0.86495   0.00000  Uiso   1.00
O1544  O     0.90190   0.86663   0.67766   0.00000  Uiso   1.00
C1545  C     0.90838   0.90976   0.67437   0.00000  Uiso   1.00
H1546  H     0.94629   0.91702   0.67311   0.00000  Uiso   1.00
H1547  H     0.88410   0.92666   0.70202   0.00000  Uiso   1.00
H1548  H     0.90307   0.92137   0.64174   0.00000  Uiso   1.00
loop_
_geom_bond_atom_site_label_1
_geom_bond_atom_site_label_2
_geom_bond_distance
_geom_bond_site_symmetry_2
_ccdc_geom_bond_type
C1     C12     1.450   .     S
C1     O49     1.295   .     A
C1     O223    1.303   1_455 S
C2     O50     1.301   .     A
C2     C97     1.453   .     S
C2     O138    1.299   .     S
C3     H41     1.078   .     S
C3     C5      1.385   .     A
C3     C32     1.413   .     A
C4     C6      1.390   .     A
C4     H42     1.078   .     S
C4     C31     1.414   .     A
C5     H35     1.083   .     S
C5     C803    1.395   1_554 S
C6     H36     1.084   .     S
C6     C804    1.397   .     S
C7     H43     1.079   .     S
C7     C525    1.380   1_545 S
C7     C98     1.395   .     S
C8     C11     1.401   .     A
C8     H44     1.083   .     S
C8     C268    1.388   .     S
C9     H45     1.074   .     S
C9     C265    1.380   .     S
C9     C97     1.398   .     S
C10    H46     1.083   .     S
C10    C12     1.403   .     A
C10    C524    1.388   1_545 S
C11    C181    1.398   1_455 S
C11    C174    1.453   1_455 S
C12    C179    1.395   1_455 S
C13    C15     1.445   .     A
C13    O67     1.382   .     S
C13    N48     1.371   .     A
C14    C16     1.430   .     A
C14    O72     1.383   .     S
C14    N47     1.379   .     A
C15    N47     1.374   .     A
C15    O77     1.388   .     S
C16    N48     1.371   .     A
C16    O82     1.381   .     S
C17    O55     1.298   .     A
C17    C19     1.477   .     S
C17    O139    1.313   .     S
C18    O56     1.301   .     A
C18    C20     1.470   .     S
C18    O226    1.307   1_455 S
C19    C23     1.392   .     A
C19    C25     1.403   .     A
C20    C26     1.396   .     A
C20    C24     1.397   .     A
C21    C23     1.393   .     A
C21    C29     1.410   .     A
C21    O143    1.380   .     S
C22    C24     1.400   .     A
C22    O62     1.383   .     S
C22    C30     1.413   .     A
C23    H126    1.070   .     S
C24    H211    1.079   1_455 S
C25    H38     1.078   .     S
C25    C27     1.409   .     A
C26    H37     1.078   .     S
C26    C28     1.405   .     A
C27    C29     1.420   .     A
C27    C31     1.426   .     A
C28    C32     1.423   .     A
C28    C30     1.418   .     A
C29    C779    1.395   .     S
C30    C780    1.397   1_554 S
C31    C806    1.422   .     S
C32    C805    1.422   1_554 S
Cu33   O52     1.965   .     S
Cu33   O53     1.950   .     S
Cu33   N47     2.032   .     S
Cu33   O56     1.934   .     S
Cu33   O49     1.964   .     S
Cu33   Cu206   2.705   1_455 S
Cu34   O51     1.965   .     S
Cu34   O55     1.934   .     S
Cu34   O50     1.964   .     S
Cu34   O54     1.950   .     S
Cu34   N48     2.032   .     S
Cu34   Cu119   2.705   .     S
H39    C110    1.079   .     S
H40    C195    1.070   1_455 S
O51    C87     1.303   .     S
O52    C174    1.299   1_455 S
O53    C189    1.313   1_455 S
O54    C104    1.307   .     S
O57    C58     1.409   .     S
O57    C193    1.380   1_455 S
C58    H59     1.112   .     S
C58    H1006   1.113   1_455 S
C58    H835    1.109   .     S
H60    C918    1.113   1_554 S
H61    C832    1.109   1_554 S
O62    C235    1.409   1_455 S
C63    H65     1.112   .     S
C63    H66     1.109   .     S
C63    O148    1.409   .     S
C63    H150    1.114   .     S
H64    C235    1.114   1_455 S
O67    C68     1.416   .     S
C68    H69     1.114   .     S
C68    H70     1.108   .     S
C68    H71     1.109   .     S
O72    C73     1.413   .     S
C73    H74     1.107   .     S
C73    H75     1.116   .     S
C73    H76     1.109   .     S
O77    C78     1.413   .     S
C78    H80     1.114   .     S
C78    H79     1.105   .     S
C78    H81     1.105   .     S
O82    C83     1.409   .     S
C83    H84     1.108   .     S
C83    H85     1.114   .     S
C83    H86     1.108   .     S
C87    C98     1.450   .     S
C87    O135    1.295   .     A
C88    O136    1.301   .     A
C88    C183    1.453   .     S
C88    O224    1.299   .     S
C89    H127    1.078   .     S
C89    C91     1.385   .     A
C89    C118    1.413   .     A
C90    C92     1.390   .     A
C90    H128    1.078   .     S
C90    C117    1.414   .     A
C91    H121    1.083   .     S
C91    C889    1.395   1_554 S
C92    H122    1.084   .     S
C92    C890    1.397   .     S
C93    H129    1.079   .     S
C93    C611    1.380   1_545 S
C93    C184    1.395   .     S
C94    C97     1.401   .     A
C94    H130    1.083   .     S
C94    C354    1.388   .     S
C95    H131    1.074   .     S
C95    C351    1.380   .     S
C95    C183    1.398   .     S
C96    H132    1.083   .     S
C96    C98     1.403   .     A
C96    C610    1.388   1_545 S
C99    C101    1.445   .     A
C99    O153    1.382   .     S
C99    N134    1.371   .     A
C100   C102    1.430   .     A
C100   O158    1.383   .     S
C100   N133    1.379   .     A
C101   N133    1.374   .     A
C101   O163    1.388   .     S
C102   N134    1.371   .     A
C102   O168    1.381   .     S
C103   O141    1.298   .     A
C103   C105    1.477   .     S
C103   O225    1.313   .     S
C104   O142    1.301   .     A
C104   C106    1.470   .     S
C105   C109    1.392   .     A
C105   C111    1.403   .     A
C106   C112    1.396   .     A
C106   C110    1.397   .     A
C107   C109    1.393   .     A
C107   C115    1.410   .     A
C107   O229    1.380   .     S
C108   C110    1.400   .     A
C108   O148    1.383   .     S
C108   C116    1.413   .     A
C109   H212    1.070   .     S
C111   H124    1.078   .     S
C111   C113    1.409   .     A
C112   H123    1.078   .     S
C112   C114    1.405   .     A
C113   C115    1.420   .     A
C113   C117    1.426   .     A
C114   C118    1.423   .     A
C114   C116    1.418   .     A
C115   C865    1.395   .     S
C116   C866    1.397   1_554 S
C117   C892    1.422   .     S
C118   C891    1.422   1_554 S
Cu119  O138    1.965   .     S
Cu119  O139    1.950   .     S
Cu119  N133    2.032   .     S
Cu119  O142    1.934   .     S
Cu119  O135    1.964   .     S
Cu120  O137    1.965   .     S
Cu120  O141    1.934   .     S
Cu120  O136    1.964   .     S
Cu120  O140    1.950   .     S
Cu120  N134    2.032   .     S
Cu120  Cu205   2.705   .     S
H125   C196    1.079   .     S
O137   C173    1.303   .     S
O140   C190    1.307   .     S
O143   C144    1.409   .     S
C144   H145    1.112   .     S
C144   H834    1.113   .     S
C144   H921    1.109   .     S
H146   C1004   1.113   1_554 S
H147   C918    1.109   1_554 S
C149   H151    1.112   .     S
C149   H152    1.109   .     S
C149   O234    1.409   .     S
C149   H236    1.114   .     S
O153   C154    1.416   .     S
C154   H155    1.114   .     S
C154   H156    1.108   .     S
C154   H157    1.109   .     S
O158   C159    1.413   .     S
C159   H160    1.107   .     S
C159   H161    1.116   .     S
C159   H162    1.109   .     S
O163   C164    1.413   .     S
C164   H166    1.114   .     S
C164   H165    1.105   .     S
C164   H167    1.105   .     S
O168   C169    1.409   .     S
C169   H170    1.108   .     S
C169   H171    1.114   .     S
C169   H172    1.108   .     S
C173   C184    1.450   .     S
C173   O221    1.295   .     A
C174   O222    1.301   .     A
C174   C11     1.453   1_655 S
C174   O52     1.299   1_655 S
C175   H213    1.078   .     S
C175   C177    1.385   .     A
C175   C204    1.413   .     A
C176   C178    1.390   .     A
C176   H214    1.078   .     S
C176   C203    1.414   .     A
C177   H207    1.083   .     S
C177   C975    1.395   1_554 S
C178   H208    1.084   .     S
C178   C976    1.397   .     S
C179   H215    1.079   .     S
C179   C697    1.380   1_545 S
C179   C12     1.395   1_655 S
C180   C183    1.401   .     A
C180   H216    1.083   .     S
C180   C440    1.388   .     S
C181   H217    1.074   .     S
C181   C437    1.380   .     S
C181   C11     1.398   1_655 S
C182   H218    1.083   .     S
C182   C184    1.403   .     A
C182   C696    1.388   1_545 S
C185   C187    1.445   .     A
C185   O239    1.382   .     S
C185   N220    1.371   .     A
C186   C188    1.430   .     A
C186   O244    1.383   .     S
C186   N219    1.379   .     A
C187   N219    1.374   .     A
C187   O249    1.388   .     S
C188   N220    1.371   .     A
C188   O254    1.381   .     S
C189   O227    1.298   .     A
C189   C191    1.477   .     S
C189   O53     1.313   1_655 S
C190   O228    1.301   .     A
C190   C192    1.470   .     S
C191   C195    1.392   .     A
C191   C197    1.403   .     A
C192   C198    1.396   .     A
C192   C196    1.397   .     A
C193   C195    1.393   .     A
C193   C201    1.410   .     A
C193   O57     1.380   1_655 S
C194   C196    1.400   .     A
C194   O234    1.383   .     S
C194   C202    1.413   .     A
C195   H40     1.070   1_655 S
C197   H210    1.078   .     S
C197   C199    1.409   .     A
C198   H209    1.078   .     S
C198   C200    1.405   .     A
C199   C201    1.420   .     A
C199   C203    1.426   .     A
C200   C204    1.423   .     A
C200   C202    1.418   .     A
C201   C951    1.395   .     S
C202   C952    1.397   1_554 S
C203   C978    1.422   .     S
C204   C977    1.422   1_554 S
Cu205  O224    1.965   .     S
Cu205  O225    1.950   .     S
Cu205  N219    2.032   .     S
Cu205  O228    1.934   .     S
Cu205  O221    1.964   .     S
Cu206  O223    1.965   .     S
Cu206  O227    1.934   .     S
Cu206  O222    1.964   .     S
Cu206  O226    1.950   .     S
Cu206  N220    2.032   .     S
Cu206  Cu33    2.705   1_655 S
H211   C24     1.079   1_655 S
O223   C1      1.303   1_655 S
O226   C18     1.307   1_655 S
O229   C230    1.409   .     S
C230   H231    1.112   .     S
C230   H920    1.113   .     S
C230   H1007   1.109   .     S
H232   C832    1.113   1_654 S
H233   C1004   1.109   1_554 S
C235   H237    1.112   .     S
C235   H238    1.109   .     S
C235   O62     1.409   1_655 S
C235   H64     1.114   1_655 S
O239   C240    1.416   .     S
C240   H241    1.114   .     S
C240   H242    1.108   .     S
C240   H243    1.109   .     S
O244   C245    1.413   .     S
C245   H246    1.107   .     S
C245   H247    1.116   .     S
C245   H248    1.109   .     S
O249   C250    1.413   .     S
C250   H252    1.114   .     S
C250   H251    1.105   .     S
C250   H253    1.105   .     S
O254   C255    1.409   .     S
C255   H256    1.108   .     S
C255   H257    1.114   .     S
C255   H258    1.108   .     S
C259   C270    1.450   .     S
C259   O307    1.295   .     A
C259   O481    1.303   1_455 S
C260   O308    1.301   .     A
C260   C355    1.453   .     S
C260   O396    1.299   .     S
C261   H299    1.078   .     S
C261   C263    1.385   .     A
C261   C290    1.413   .     A
C262   C264    1.390   .     A
C262   H300    1.078   .     S
C262   C289    1.414   .     A
C263   H293    1.083   .     S
C263   C1061   1.395   1_554 S
C264   H294    1.084   .     S
C264   C1062   1.397   .     S
C265   H301    1.079   .     S
C265   C356    1.395   .     S
C266   C269    1.401   .     A
C266   H302    1.083   .     S
C266   C526    1.388   .     S
C267   H303    1.074   .     S
C267   C523    1.380   .     S
C267   C355    1.398   .     S
C268   H304    1.083   .     S
C268   C270    1.403   .     A
C269   C439    1.398   1_455 S
C269   C432    1.453   1_455 S
C270   C437    1.395   1_455 S
C271   C273    1.445   .     A
C271   O325    1.382   .     S
C271   N306    1.371   .     A
C272   C274    1.430   .     A
C272   O330    1.383   .     S
C272   N305    1.379   .     A
C273   N305    1.374   .     A
C273   O335    1.388   .     S
C274   N306    1.371   .     A
C274   O340    1.381   .     S
C275   O313    1.298   .     A
C275   C277    1.477   .     S
C275   O397    1.313   .     S
C276   O314    1.301   .     A
C276   C278    1.470   .     S
C276   O484    1.307   1_455 S
C277   C281    1.392   .     A
C277   C283    1.403   .     A
C278   C284    1.396   .     A
C278   C282    1.397   .     A
C279   C281    1.393   .     A
C279   C287    1.410   .     A
C279   O401    1.380   .     S
C280   C282    1.400   .     A
C280   O320    1.383   .     S
C280   C288    1.413   .     A
C281   H384    1.070   .     S
C282   H469    1.079   1_455 S
C283   H296    1.078   .     S
C283   C285    1.409   .     A
C284   H295    1.078   .     S
C284   C286    1.405   .     A
C285   C287    1.420   .     A
C285   C289    1.426   .     A
C286   C290    1.423   .     A
C286   C288    1.418   .     A
C287   C1037   1.395   .     S
C288   C1038   1.397   1_554 S
C289   C1064   1.422   .     S
C290   C1063   1.422   1_554 S
Cu291  O310    1.965   .     S
Cu291  O311    1.950   .     S
Cu291  N305    2.032   .     S
Cu291  O314    1.934   .     S
Cu291  O307    1.964   .     S
Cu291  Cu464   2.705   1_455 S
Cu292  O309    1.965   .     S
Cu292  O313    1.934   .     S
Cu292  O308    1.964   .     S
Cu292  O312    1.950   .     S
Cu292  N306    2.032   .     S
Cu292  Cu377   2.705   .     S
H297   C368    1.079   .     S
H298   C453    1.070   1_455 S
O309   C345    1.303   .     S
O310   C432    1.299   1_455 S
O311   C447    1.313   1_455 S
O312   C362    1.307   .     S
O315   C316    1.409   .     S
O315   C451    1.380   1_455 S
C316   H317    1.112   .     S
C316   H1264   1.113   1_455 S
C316   H1093   1.109   .     S
H318   C1176   1.113   1_554 S
H319   C1090   1.109   1_554 S
O320   C493    1.409   1_455 S
C321   H323    1.112   .     S
C321   H324    1.109   .     S
C321   O406    1.409   .     S
C321   H408    1.114   .     S
H322   C493    1.114   1_455 S
O325   C326    1.416   .     S
C326   H327    1.114   .     S
C326   H328    1.108   .     S
C326   H329    1.109   .     S
O330   C331    1.413   .     S
C331   H332    1.107   .     S
C331   H333    1.116   .     S
C331   H334    1.109   .     S
O335   C336    1.413   .     S
C336   H338    1.114   .     S
C336   H337    1.105   .     S
C336   H339    1.105   .     S
O340   C341    1.409   .     S
C341   H342    1.108   .     S
C341   H343    1.114   .     S
C341   H344    1.108   .     S
C345   C356    1.450   .     S
C345   O393    1.295   .     A
C346   O394    1.301   .     A
C346   C441    1.453   .     S
C346   O482    1.299   .     S
C347   H385    1.078   .     S
C347   C349    1.385   .     A
C347   C376    1.413   .     A
C348   C350    1.390   .     A
C348   H386    1.078   .     S
C348   C375    1.414   .     A
C349   H379    1.083   .     S
C349   C1147   1.395   1_554 S
C350   H380    1.084   .     S
C350   C1148   1.397   .     S
C351   H387    1.079   .     S
C351   C442    1.395   .     S
C352   C355    1.401   .     A
C352   H388    1.083   .     S
C352   C612    1.388   .     S
C353   H389    1.074   .     S
C353   C609    1.380   .     S
C353   C441    1.398   .     S
C354   H390    1.083   .     S
C354   C356    1.403   .     A
C357   C359    1.445   .     A
C357   O411    1.382   .     S
C357   N392    1.371   .     A
C358   C360    1.430   .     A
C358   O416    1.383   .     S
C358   N391    1.379   .     A
C359   N391    1.374   .     A
C359   O421    1.388   .     S
C360   N392    1.371   .     A
C360   O426    1.381   .     S
C361   O399    1.298   .     A
C361   C363    1.477   .     S
C361   O483    1.313   .     S
C362   O400    1.301   .     A
C362   C364    1.470   .     S
C363   C367    1.392   .     A
C363   C369    1.403   .     A
C364   C370    1.396   .     A
C364   C368    1.397   .     A
C365   C367    1.393   .     A
C365   C373    1.410   .     A
C365   O487    1.380   .     S
C366   C368    1.400   .     A
C366   O406    1.383   .     S
C366   C374    1.413   .     A
C367   H470    1.070   .     S
C369   H382    1.078   .     S
C369   C371    1.409   .     A
C370   H381    1.078   .     S
C370   C372    1.405   .     A
C371   C373    1.420   .     A
C371   C375    1.426   .     A
C372   C376    1.423   .     A
C372   C374    1.418   .     A
C373   C1123   1.395   .     S
C374   C1124   1.397   1_554 S
C375   C1150   1.422   .     S
C376   C1149   1.422   1_554 S
Cu377  O396    1.965   .     S
Cu377  O397    1.950   .     S
Cu377  N391    2.032   .     S
Cu377  O400    1.934   .     S
Cu377  O393    1.964   .     S
Cu378  O395    1.965   .     S
Cu378  O399    1.934   .     S
Cu378  O394    1.964   .     S
Cu378  O398    1.950   .     S
Cu378  N392    2.032   .     S
Cu378  Cu463   2.705   .     S
H383   C454    1.079   .     S
O395   C431    1.303   .     S
O398   C448    1.307   .     S
O401   C402    1.409   .     S
C402   H403    1.112   .     S
C402   H1092   1.113   .     S
C402   H1179   1.109   .     S
H404   C1262   1.113   1_554 S
H405   C1176   1.109   1_554 S
C407   H409    1.112   .     S
C407   H410    1.109   .     S
C407   O492    1.409   .     S
C407   H494    1.114   .     S
O411   C412    1.416   .     S
C412   H413    1.114   .     S
C412   H414    1.108   .     S
C412   H415    1.109   .     S
O416   C417    1.413   .     S
C417   H418    1.107   .     S
C417   H419    1.116   .     S
C417   H420    1.109   .     S
O421   C422    1.413   .     S
C422   H424    1.114   .     S
C422   H423    1.105   .     S
C422   H425    1.105   .     S
O426   C427    1.409   .     S
C427   H428    1.108   .     S
C427   H429    1.114   .     S
C427   H430    1.108   .     S
C431   C442    1.450   .     S
C431   O479    1.295   .     A
C432   O480    1.301   .     A
C432   C269    1.453   1_655 S
C432   O310    1.299   1_655 S
C433   H471    1.078   .     S
C433   C435    1.385   .     A
C433   C462    1.413   .     A
C434   C436    1.390   .     A
C434   H472    1.078   .     S
C434   C461    1.414   .     A
C435   H465    1.083   .     S
C435   C1233   1.395   1_554 S
C436   H466    1.084   .     S
C436   C1234   1.397   .     S
C437   H473    1.079   .     S
C437   C270    1.395   1_655 S
C438   C441    1.401   .     A
C438   H474    1.083   .     S
C438   C698    1.388   .     S
C439   H475    1.074   .     S
C439   C695    1.380   .     S
C439   C269    1.398   1_655 S
C440   H476    1.083   .     S
C440   C442    1.403   .     A
C443   C445    1.445   .     A
C443   O497    1.382   .     S
C443   N478    1.371   .     A
C444   C446    1.430   .     A
C444   O502    1.383   .     S
C444   N477    1.379   .     A
C445   N477    1.374   .     A
C445   O507    1.388   .     S
C446   N478    1.371   .     A
C446   O512    1.381   .     S
C447   O485    1.298   .     A
C447   C449    1.477   .     S
C447   O311    1.313   1_655 S
C448   O486    1.301   .     A
C448   C450    1.470   .     S
C449   C453    1.392   .     A
C449   C455    1.403   .     A
C450   C456    1.396   .     A
C450   C454    1.397   .     A
C451   C453    1.393   .     A
C451   C459    1.410   .     A
C451   O315    1.380   1_655 S
C452   C454    1.400   .     A
C452   O492    1.383   .     S
C452   C460    1.413   .     A
C453   H298    1.070   1_655 S
C455   H468    1.078   .     S
C455   C457    1.409   .     A
C456   H467    1.078   .     S
C456   C458    1.405   .     A
C457   C459    1.420   .     A
C457   C461    1.426   .     A
C458   C462    1.423   .     A
C458   C460    1.418   .     A
C459   C1209   1.395   .     S
C460   C1210   1.397   1_554 S
C461   C1236   1.422   .     S
C462   C1235   1.422   1_554 S
Cu463  O482    1.965   .     S
Cu463  O483    1.950   .     S
Cu463  N477    2.032   .     S
Cu463  O486    1.934   .     S
Cu463  O479    1.964   .     S
Cu464  O481    1.965   .     S
Cu464  O485    1.934   .     S
Cu464  O480    1.964   .     S
Cu464  O484    1.950   .     S
Cu464  N478    2.032   .     S
Cu464  Cu291   2.705   1_655 S
H469   C282    1.079   1_655 S
O481   C259    1.303   1_655 S
O484   C276    1.307   1_655 S
O487   C488    1.409   .     S
C488   H489    1.112   .     S
C488   H1178   1.113   .     S
C488   H1265   1.109   .     S
H490   C1090   1.113   1_654 S
H491   C1262   1.109   1_554 S
C493   H495    1.112   .     S
C493   H496    1.109   .     S
C493   O320    1.409   1_655 S
C493   H322    1.114   1_655 S
O497   C498    1.416   .     S
C498   H499    1.114   .     S
C498   H500    1.108   .     S
C498   H501    1.109   .     S
O502   C503    1.413   .     S
C503   H504    1.107   .     S
C503   H505    1.116   .     S
C503   H506    1.109   .     S
O507   C508    1.413   .     S
C508   H510    1.114   .     S
C508   H509    1.105   .     S
C508   H511    1.105   .     S
O512   C513    1.409   .     S
C513   H514    1.108   .     S
C513   H515    1.114   .     S
C513   H516    1.108   .     S
C517   C528    1.450   .     S
C517   O565    1.295   .     A
C517   O739    1.303   1_455 S
C518   O566    1.301   .     A
C518   C613    1.453   .     S
C518   O654    1.299   .     S
C519   H557    1.078   .     S
C519   C521    1.385   .     A
C519   C548    1.413   .     A
C520   C522    1.390   .     A
C520   H558    1.078   .     S
C520   C547    1.414   .     A
C521   H551    1.083   .     S
C521   C1319   1.395   1_554 S
C522   H552    1.084   .     S
C522   C1320   1.397   .     S
C523   H559    1.079   .     S
C523   C614    1.395   .     S
C524   C527    1.401   .     A
C524   H560    1.083   .     S
C524   C10     1.388   1_565 S
C525   H561    1.074   .     S
C525   C7      1.380   1_565 S
C525   C613    1.398   .     S
C526   H562    1.083   .     S
C526   C528    1.403   .     A
C527   C697    1.398   1_455 S
C527   C690    1.453   1_455 S
C528   C695    1.395   1_455 S
C529   C531    1.445   .     A
C529   O583    1.382   .     S
C529   N564    1.371   .     A
C530   C532    1.430   .     A
C530   O588    1.383   .     S
C530   N563    1.379   .     A
C531   N563    1.374   .     A
C531   O593    1.388   .     S
C532   N564    1.371   .     A
C532   O598    1.381   .     S
C533   O571    1.298   .     A
C533   C535    1.477   .     S
C533   O655    1.313   .     S
C534   O572    1.301   .     A
C534   C536    1.470   .     S
C534   O742    1.307   1_455 S
C535   C539    1.392   .     A
C535   C541    1.403   .     A
C536   C542    1.396   .     A
C536   C540    1.397   .     A
C537   C539    1.393   .     A
C537   C545    1.410   .     A
C537   O659    1.380   .     S
C538   C540    1.400   .     A
C538   O578    1.383   .     S
C538   C546    1.413   .     A
C539   H642    1.070   .     S
C540   H727    1.079   1_455 S
C541   H554    1.078   .     S
C541   C543    1.409   .     A
C542   H553    1.078   .     S
C542   C544    1.405   .     A
C543   C545    1.420   .     A
C543   C547    1.426   .     A
C544   C548    1.423   .     A
C544   C546    1.418   .     A
C545   C1295   1.395   .     S
C546   C1296   1.397   1_554 S
C547   C1322   1.422   .     S
C548   C1321   1.422   1_554 S
Cu549  O568    1.965   .     S
Cu549  O569    1.950   .     S
Cu549  N563    2.032   .     S
Cu549  O572    1.934   .     S
Cu549  O565    1.964   .     S
Cu549  Cu722   2.705   1_455 S
Cu550  O567    1.965   .     S
Cu550  O571    1.934   .     S
Cu550  O566    1.964   .     S
Cu550  O570    1.950   .     S
Cu550  N564    2.032   .     S
Cu550  Cu635   2.705   .     S
H555   C626    1.079   .     S
H556   C711    1.070   1_455 S
O567   C603    1.303   .     S
O568   C690    1.299   1_455 S
O569   C705    1.313   1_455 S
O570   C620    1.307   .     S
O573   C574    1.409   .     S
O573   C709    1.380   1_455 S
C574   H575    1.112   .     S
C574   H1522   1.113   1_455 S
C574   H1351   1.109   .     S
H576   C1434   1.113   1_554 S
H577   C1348   1.109   1_554 S
O578   C751    1.409   1_455 S
C579   H581    1.112   .     S
C579   H582    1.109   .     S
C579   O664    1.409   .     S
C579   H666    1.114   .     S
H580   C751    1.114   1_455 S
O583   C584    1.416   .     S
C584   H585    1.114   .     S
C584   H586    1.108   .     S
C584   H587    1.109   .     S
O588   C589    1.413   .     S
C589   H590    1.107   .     S
C589   H591    1.116   .     S
C589   H592    1.109   .     S
O593   C594    1.413   .     S
C594   H596    1.114   .     S
C594   H595    1.105   .     S
C594   H597    1.105   .     S
O598   C599    1.409   .     S
C599   H600    1.108   .     S
C599   H601    1.114   .     S
C599   H602    1.108   .     S
C603   C614    1.450   .     S
C603   O651    1.295   .     A
C604   O652    1.301   .     A
C604   C699    1.453   .     S
C604   O740    1.299   .     S
C605   H643    1.078   .     S
C605   C607    1.385   .     A
C605   C634    1.413   .     A
C606   C608    1.390   .     A
C606   H644    1.078   .     S
C606   C633    1.414   .     A
C607   H637    1.083   .     S
C607   C1405   1.395   1_554 S
C608   H638    1.084   .     S
C608   C1406   1.397   .     S
C609   H645    1.079   .     S
C609   C700    1.395   .     S
C610   C613    1.401   .     A
C610   H646    1.083   .     S
C610   C96     1.388   1_565 S
C611   H647    1.074   .     S
C611   C93     1.380   1_565 S
C611   C699    1.398   .     S
C612   H648    1.083   .     S
C612   C614    1.403   .     A
C615   C617    1.445   .     A
C615   O669    1.382   .     S
C615   N650    1.371   .     A
C616   C618    1.430   .     A
C616   O674    1.383   .     S
C616   N649    1.379   .     A
C617   N649    1.374   .     A
C617   O679    1.388   .     S
C618   N650    1.371   .     A
C618   O684    1.381   .     S
C619   O657    1.298   .     A
C619   C621    1.477   .     S
C619   O741    1.313   .     S
C620   O658    1.301   .     A
C620   C622    1.470   .     S
C621   C625    1.392   .     A
C621   C627    1.403   .     A
C622   C628    1.396   .     A
C622   C626    1.397   .     A
C623   C625    1.393   .     A
C623   C631    1.410   .     A
C623   O745    1.380   .     S
C624   C626    1.400   .     A
C624   O664    1.383   .     S
C624   C632    1.413   .     A
C625   H728    1.070   .     S
C627   H640    1.078   .     S
C627   C629    1.409   .     A
C628   H639    1.078   .     S
C628   C630    1.405   .     A
C629   C631    1.420   .     A
C629   C633    1.426   .     A
C630   C634    1.423   .     A
C630   C632    1.418   .     A
C631   C1381   1.395   .     S
C632   C1382   1.397   1_554 S
C633   C1408   1.422   .     S
C634   C1407   1.422   1_554 S
Cu635  O654    1.965   .     S
Cu635  O655    1.950   .     S
Cu635  N649    2.032   .     S
Cu635  O658    1.934   .     S
Cu635  O651    1.964   .     S
Cu636  O653    1.965   .     S
Cu636  O657    1.934   .     S
Cu636  O652    1.964   .     S
Cu636  O656    1.950   .     S
Cu636  N650    2.032   .     S
Cu636  Cu721   2.705   .     S
H641   C712    1.079   .     S
O653   C689    1.303   .     S
O656   C706    1.307   .     S
O659   C660    1.409   .     S
C660   H661    1.112   .     S
C660   H1350   1.113   .     S
C660   H1437   1.109   .     S
H662   C1520   1.113   1_554 S
H663   C1434   1.109   1_554 S
C665   H667    1.112   .     S
C665   H668    1.109   .     S
C665   O750    1.409   .     S
C665   H752    1.114   .     S
O669   C670    1.416   .     S
C670   H671    1.114   .     S
C670   H672    1.108   .     S
C670   H673    1.109   .     S
O674   C675    1.413   .     S
C675   H676    1.107   .     S
C675   H677    1.116   .     S
C675   H678    1.109   .     S
O679   C680    1.413   .     S
C680   H682    1.114   .     S
C680   H681    1.105   .     S
C680   H683    1.105   .     S
O684   C685    1.409   .     S
C685   H686    1.108   .     S
C685   H687    1.114   .     S
C685   H688    1.108   .     S
C689   C700    1.450   .     S
C689   O737    1.295   .     A
C690   O738    1.301   .     A
C690   C527    1.453   1_655 S
C690   O568    1.299   1_655 S
C691   H729    1.078   .     S
C691   C693    1.385   .     A
C691   C720    1.413   .     A
C692   C694    1.390   .     A
C692   H730    1.078   .     S
C692   C719    1.414   .     A
C693   H723    1.083   .     S
C693   C1491   1.395   1_554 S
C694   H724    1.084   .     S
C694   C1492   1.397   .     S
C695   H731    1.079   .     S
C695   C528    1.395   1_655 S
C696   C699    1.401   .     A
C696   H732    1.083   .     S
C696   C182    1.388   1_565 S
C697   H733    1.074   .     S
C697   C179    1.380   1_565 S
C697   C527    1.398   1_655 S
C698   H734    1.083   .     S
C698   C700    1.403   .     A
C701   C703    1.445   .     A
C701   O755    1.382   .     S
C701   N736    1.371   .     A
C702   C704    1.430   .     A
C702   O760    1.383   .     S
C702   N735    1.379   .     A
C703   N735    1.374   .     A
C703   O765    1.388   .     S
C704   N736    1.371   .     A
C704   O770    1.381   .     S
C705   O743    1.298   .     A
C705   C707    1.477   .     S
C705   O569    1.313   1_655 S
C706   O744    1.301   .     A
C706   C708    1.470   .     S
C707   C711    1.392   .     A
C707   C713    1.403   .     A
C708   C714    1.396   .     A
C708   C712    1.397   .     A
C709   C711    1.393   .     A
C709   C717    1.410   .     A
C709   O573    1.380   1_655 S
C710   C712    1.400   .     A
C710   O750    1.383   .     S
C710   C718    1.413   .     A
C711   H556    1.070   1_655 S
C713   H726    1.078   .     S
C713   C715    1.409   .     A
C714   H725    1.078   .     S
C714   C716    1.405   .     A
C715   C717    1.420   .     A
C715   C719    1.426   .     A
C716   C720    1.423   .     A
C716   C718    1.418   .     A
C717   C1467   1.395   .     S
C718   C1468   1.397   1_554 S
C719   C1494   1.422   .     S
C720   C1493   1.422   1_554 S
Cu721  O740    1.965   .     S
Cu721  O741    1.950   .     S
Cu721  N735    2.032   .     S
Cu721  O744    1.934   .     S
Cu721  O737    1.964   .     S
Cu722  O739    1.965   .     S
Cu722  O743    1.934   .     S
Cu722  O738    1.964   .     S
Cu722  O742    1.950   .     S
Cu722  N736    2.032   .     S
Cu722  Cu549   2.705   1_655 S
H727   C540    1.079   1_655 S
O739   C517    1.303   1_655 S
O742   C534    1.307   1_655 S
O745   C746    1.409   .     S
C746   H747    1.112   .     S
C746   H1436   1.113   .     S
C746   H1523   1.109   .     S
H748   C1348   1.113   1_654 S
H749   C1520   1.109   1_554 S
C751   H753    1.112   .     S
C751   H754    1.109   .     S
C751   O578    1.409   1_655 S
C751   H580    1.114   1_655 S
O755   C756    1.416   .     S
C756   H757    1.114   .     S
C756   H758    1.108   .     S
C756   H759    1.109   .     S
O760   C761    1.413   .     S
C761   H762    1.107   .     S
C761   H763    1.116   .     S
C761   H764    1.109   .     S
O765   C766    1.413   .     S
C766   H768    1.114   .     S
C766   H767    1.105   .     S
C766   H769    1.105   .     S
O770   C771    1.409   .     S
C771   H772    1.108   .     S
C771   H773    1.114   .     S
C771   H774    1.108   .     S
C775   C786    1.450   .     S
C775   O823    1.295   .     A
C775   O997    1.303   1_455 S
C776   O824    1.301   .     A
C776   C871    1.453   .     S
C776   O912    1.299   .     S
C777   H815    1.078   .     S
C777   C779    1.385   .     A
C777   C806    1.413   .     A
C778   C780    1.390   .     A
C778   H816    1.078   .     S
C778   C805    1.414   .     A
C779   H809    1.083   .     S
C780   H810    1.084   .     S
C780   C30     1.397   1_556 S
C781   H817    1.079   .     S
C781   C1299   1.380   1_545 S
C781   C872    1.395   .     S
C782   C785    1.401   .     A
C782   H818    1.083   .     S
C782   C1042   1.388   .     S
C783   H819    1.074   .     S
C783   C1039   1.380   .     S
C783   C871    1.398   .     S
C784   H820    1.083   .     S
C784   C786    1.403   .     A
C784   C1298   1.388   1_545 S
C785   C955    1.398   1_455 S
C785   C948    1.453   1_455 S
C786   C953    1.395   1_455 S
C787   C789    1.445   .     A
C787   O841    1.382   .     S
C787   N822    1.371   .     A
C788   C790    1.430   .     A
C788   O846    1.383   .     S
C788   N821    1.379   .     A
C789   N821    1.374   .     A
C789   O851    1.388   .     S
C790   N822    1.371   .     A
C790   O856    1.381   .     S
C791   O829    1.298   .     A
C791   C793    1.477   .     S
C791   O913    1.313   .     S
C792   O830    1.301   .     A
C792   C794    1.470   .     S
C792   O1000   1.307   1_455 S
C793   C797    1.392   .     A
C793   C799    1.403   .     A
C794   C800    1.396   .     A
C794   C798    1.397   .     A
C795   C797    1.393   .     A
C795   C803    1.410   .     A
C795   O917    1.380   .     S
C796   C798    1.400   .     A
C796   O836    1.383   .     S
C796   C804    1.413   .     A
C797   H900    1.070   .     S
C798   H985    1.079   1_455 S
C799   H812    1.078   .     S
C799   C801    1.409   .     A
C800   H811    1.078   .     S
C800   C802    1.405   .     A
C801   C803    1.420   .     A
C801   C805    1.426   .     A
C802   C806    1.423   .     A
C802   C804    1.418   .     A
C803   C5      1.395   1_556 S
C805   C32     1.422   1_556 S
Cu807  O826    1.965   .     S
Cu807  O827    1.950   .     S
Cu807  N821    2.032   .     S
Cu807  O830    1.934   .     S
Cu807  O823    1.964   .     S
Cu807  Cu980   2.705   1_455 S
Cu808  O825    1.965   .     S
Cu808  O829    1.934   .     S
Cu808  O824    1.964   .     S
Cu808  O828    1.950   .     S
Cu808  N822    2.032   .     S
Cu808  Cu893   2.705   .     S
H813   C884    1.079   .     S
H814   C969    1.070   1_455 S
O825   C861    1.303   .     S
O826   C948    1.299   1_455 S
O827   C963    1.313   1_455 S
O828   C878    1.307   .     S
O831   C832    1.409   .     S
O831   C967    1.380   1_455 S
C832   H833    1.112   .     S
C832   H232    1.113   1_456 S
C832   H61     1.109   1_556 S
O836   C1009   1.409   1_455 S
C837   H839    1.112   .     S
C837   H840    1.109   .     S
C837   O922    1.409   .     S
C837   H924    1.114   .     S
H838   C1009   1.114   1_455 S
O841   C842    1.416   .     S
C842   H843    1.114   .     S
C842   H844    1.108   .     S
C842   H845    1.109   .     S
O846   C847    1.413   .     S
C847   H848    1.107   .     S
C847   H849    1.116   .     S
C847   H850    1.109   .     S
O851   C852    1.413   .     S
C852   H854    1.114   .     S
C852   H853    1.105   .     S
C852   H855    1.105   .     S
O856   C857    1.409   .     S
C857   H858    1.108   .     S
C857   H859    1.114   .     S
C857   H860    1.108   .     S
C861   C872    1.450   .     S
C861   O909    1.295   .     A
C862   O910    1.301   .     A
C862   C957    1.453   .     S
C862   O998    1.299   .     S
C863   H901    1.078   .     S
C863   C865    1.385   .     A
C863   C892    1.413   .     A
C864   C866    1.390   .     A
C864   H902    1.078   .     S
C864   C891    1.414   .     A
C865   H895    1.083   .     S
C866   H896    1.084   .     S
C866   C116    1.397   1_556 S
C867   H903    1.079   .     S
C867   C1385   1.380   1_545 S
C867   C958    1.395   .     S
C868   C871    1.401   .     A
C868   H904    1.083   .     S
C868   C1128   1.388   .     S
C869   H905    1.074   .     S
C869   C1125   1.380   .     S
C869   C957    1.398   .     S
C870   H906    1.083   .     S
C870   C872    1.403   .     A
C870   C1384   1.388   1_545 S
C873   C875    1.445   .     A
C873   O927    1.382   .     S
C873   N908    1.371   .     A
C874   C876    1.430   .     A
C874   O932    1.383   .     S
C874   N907    1.379   .     A
C875   N907    1.374   .     A
C875   O937    1.388   .     S
C876   N908    1.371   .     A
C876   O942    1.381   .     S
C877   O915    1.298   .     A
C877   C879    1.477   .     S
C877   O999    1.313   .     S
C878   O916    1.301   .     A
C878   C880    1.470   .     S
C879   C883    1.392   .     A
C879   C885    1.403   .     A
C880   C886    1.396   .     A
C880   C884    1.397   .     A
C881   C883    1.393   .     A
C881   C889    1.410   .     A
C881   O1003   1.380   .     S
C882   C884    1.400   .     A
C882   O922    1.383   .     S
C882   C890    1.413   .     A
C883   H986    1.070   .     S
C885   H898    1.078   .     S
C885   C887    1.409   .     A
C886   H897    1.078   .     S
C886   C888    1.405   .     A
C887   C889    1.420   .     A
C887   C891    1.426   .     A
C888   C892    1.423   .     A
C888   C890    1.418   .     A
C889   C91     1.395   1_556 S
C891   C118    1.422   1_556 S
Cu893  O912    1.965   .     S
Cu893  O913    1.950   .     S
Cu893  N907    2.032   .     S
Cu893  O916    1.934   .     S
Cu893  O909    1.964   .     S
Cu894  O911    1.965   .     S
Cu894  O915    1.934   .     S
Cu894  O910    1.964   .     S
Cu894  O914    1.950   .     S
Cu894  N908    2.032   .     S
Cu894  Cu979   2.705   .     S
H899   C970    1.079   .     S
O911   C947    1.303   .     S
O914   C964    1.307   .     S
O917   C918    1.409   .     S
C918   H919    1.112   .     S
C918   H60     1.113   1_556 S
C918   H147    1.109   1_556 S
C923   H925    1.112   .     S
C923   H926    1.109   .     S
C923   O1008   1.409   .     S
C923   H1010   1.114   .     S
O927   C928    1.416   .     S
C928   H929    1.114   .     S
C928   H930    1.108   .     S
C928   H931    1.109   .     S
O932   C933    1.413   .     S
C933   H934    1.107   .     S
C933   H935    1.116   .     S
C933   H936    1.109   .     S
O937   C938    1.413   .     S
C938   H940    1.114   .     S
C938   H939    1.105   .     S
C938   H941    1.105   .     S
O942   C943    1.409   .     S
C943   H944    1.108   .     S
C943   H945    1.114   .     S
C943   H946    1.108   .     S
C947   C958    1.450   .     S
C947   O995    1.295   .     A
C948   O996    1.301   .     A
C948   C785    1.453   1_655 S
C948   O826    1.299   1_655 S
C949   H987    1.078   .     S
C949   C951    1.385   .     A
C949   C978    1.413   .     A
C950   C952    1.390   .     A
C950   H988    1.078   .     S
C950   C977    1.414   .     A
C951   H981    1.083   .     S
C952   H982    1.084   .     S
C952   C202    1.397   1_556 S
C953   H989    1.079   .     S
C953   C1471   1.380   1_545 S
C953   C786    1.395   1_655 S
C954   C957    1.401   .     A
C954   H990    1.083   .     S
C954   C1214   1.388   .     S
C955   H991    1.074   .     S
C955   C1211   1.380   .     S
C955   C785    1.398   1_655 S
C956   H992    1.083   .     S
C956   C958    1.403   .     A
C956   C1470   1.388   1_545 S
C959   C961    1.445   .     A
C959   O1013   1.382   .     S
C959   N994    1.371   .     A
C960   C962    1.430   .     A
C960   O1018   1.383   .     S
C960   N993    1.379   .     A
C961   N993    1.374   .     A
C961   O1023   1.388   .     S
C962   N994    1.371   .     A
C962   O1028   1.381   .     S
C963   O1001   1.298   .     A
C963   C965    1.477   .     S
C963   O827    1.313   1_655 S
C964   O1002   1.301   .     A
C964   C966    1.470   .     S
C965   C969    1.392   .     A
C965   C971    1.403   .     A
C966   C972    1.396   .     A
C966   C970    1.397   .     A
C967   C969    1.393   .     A
C967   C975    1.410   .     A
C967   O831    1.380   1_655 S
C968   C970    1.400   .     A
C968   O1008   1.383   .     S
C968   C976    1.413   .     A
C969   H814    1.070   1_655 S
C971   H984    1.078   .     S
C971   C973    1.409   .     A
C972   H983    1.078   .     S
C972   C974    1.405   .     A
C973   C975    1.420   .     A
C973   C977    1.426   .     A
C974   C978    1.423   .     A
C974   C976    1.418   .     A
C975   C177    1.395   1_556 S
C977   C204    1.422   1_556 S
Cu979  O998    1.965   .     S
Cu979  O999    1.950   .     S
Cu979  N993    2.032   .     S
Cu979  O1002   1.934   .     S
Cu979  O995    1.964   .     S
Cu980  O997    1.965   .     S
Cu980  O1001   1.934   .     S
Cu980  O996    1.964   .     S
Cu980  O1000   1.950   .     S
Cu980  N994    2.032   .     S
Cu980  Cu807   2.705   1_655 S
H985   C798    1.079   1_655 S
O997   C775    1.303   1_655 S
O1000  C792    1.307   1_655 S
O1003  C1004   1.409   .     S
C1004  H1005   1.112   .     S
C1004  H146    1.113   1_556 S
C1004  H233    1.109   1_556 S
H1006  C58     1.113   1_655 S
C1009  H1011   1.112   .     S
C1009  H1012   1.109   .     S
C1009  O836    1.409   1_655 S
C1009  H838    1.114   1_655 S
O1013  C1014   1.416   .     S
C1014  H1015   1.114   .     S
C1014  H1016   1.108   .     S
C1014  H1017   1.109   .     S
O1018  C1019   1.413   .     S
C1019  H1020   1.107   .     S
C1019  H1021   1.116   .     S
C1019  H1022   1.109   .     S
O1023  C1024   1.413   .     S
C1024  H1026   1.114   .     S
C1024  H1025   1.105   .     S
C1024  H1027   1.105   .     S
O1028  C1029   1.409   .     S
C1029  H1030   1.108   .     S
C1029  H1031   1.114   .     S
C1029  H1032   1.108   .     S
C1033  C1044   1.450   .     S
C1033  O1081   1.295   .     A
C1033  O1255   1.303   1_455 S
C1034  O1082   1.301   .     A
C1034  C1129   1.453   .     S
C1034  O1170   1.299   .     S
C1035  H1073   1.078   .     S
C1035  C1037   1.385   .     A
C1035  C1064   1.413   .     A
C1036  C1038   1.390   .     A
C1036  H1074   1.078   .     S
C1036  C1063   1.414   .     A
C1037  H1067   1.083   .     S
C1038  H1068   1.084   .     S
C1038  C288    1.397   1_556 S
C1039  H1075   1.079   .     S
C1039  C1130   1.395   .     S
C1040  C1043   1.401   .     A
C1040  H1076   1.083   .     S
C1040  C1300   1.388   .     S
C1041  H1077   1.074   .     S
C1041  C1297   1.380   .     S
C1041  C1129   1.398   .     S
C1042  H1078   1.083   .     S
C1042  C1044   1.403   .     A
C1043  C1213   1.398   1_455 S
C1043  C1206   1.453   1_455 S
C1044  C1211   1.395   1_455 S
C1045  C1047   1.445   .     A
C1045  O1099   1.382   .     S
C1045  N1080   1.371   .     A
C1046  C1048   1.430   .     A
C1046  O1104   1.383   .     S
C1046  N1079   1.379   .     A
C1047  N1079   1.374   .     A
C1047  O1109   1.388   .     S
C1048  N1080   1.371   .     A
C1048  O1114   1.381   .     S
C1049  O1087   1.298   .     A
C1049  C1051   1.477   .     S
C1049  O1171   1.313   .     S
C1050  O1088   1.301   .     A
C1050  C1052   1.470   .     S
C1050  O1258   1.307   1_455 S
C1051  C1055   1.392   .     A
C1051  C1057   1.403   .     A
C1052  C1058   1.396   .     A
C1052  C1056   1.397   .     A
C1053  C1055   1.393   .     A
C1053  C1061   1.410   .     A
C1053  O1175   1.380   .     S
C1054  C1056   1.400   .     A
C1054  O1094   1.383   .     S
C1054  C1062   1.413   .     A
C1055  H1158   1.070   .     S
C1056  H1243   1.079   1_455 S
C1057  H1070   1.078   .     S
C1057  C1059   1.409   .     A
C1058  H1069   1.078   .     S
C1058  C1060   1.405   .     A
C1059  C1061   1.420   .     A
C1059  C1063   1.426   .     A
C1060  C1064   1.423   .     A
C1060  C1062   1.418   .     A
C1061  C263    1.395   1_556 S
C1063  C290    1.422   1_556 S
Cu1065 O1084   1.965   .     S
Cu1065 O1085   1.950   .     S
Cu1065 N1079   2.032   .     S
Cu1065 O1088   1.934   .     S
Cu1065 O1081   1.964   .     S
Cu1065 Cu1238  2.705   1_455 S
Cu1066 O1083   1.965   .     S
Cu1066 O1087   1.934   .     S
Cu1066 O1082   1.964   .     S
Cu1066 O1086   1.950   .     S
Cu1066 N1080   2.032   .     S
Cu1066 Cu1151  2.705   .     S
H1071  C1142   1.079   .     S
H1072  C1227   1.070   1_455 S
O1083  C1119   1.303   .     S
O1084  C1206   1.299   1_455 S
O1085  C1221   1.313   1_455 S
O1086  C1136   1.307   .     S
O1089  C1090   1.409   .     S
O1089  C1225   1.380   1_455 S
C1090  H1091   1.112   .     S
C1090  H490    1.113   1_456 S
C1090  H319    1.109   1_556 S
O1094  C1267   1.409   1_455 S
C1095  H1097   1.112   .     S
C1095  H1098   1.109   .     S
C1095  O1180   1.409   .     S
C1095  H1182   1.114   .     S
H1096  C1267   1.114   1_455 S
O1099  C1100   1.416   .     S
C1100  H1101   1.114   .     S
C1100  H1102   1.108   .     S
C1100  H1103   1.109   .     S
O1104  C1105   1.413   .     S
C1105  H1106   1.107   .     S
C1105  H1107   1.116   .     S
C1105  H1108   1.109   .     S
O1109  C1110   1.413   .     S
C1110  H1112   1.114   .     S
C1110  H1111   1.105   .     S
C1110  H1113   1.105   .     S
O1114  C1115   1.409   .     S
C1115  H1116   1.108   .     S
C1115  H1117   1.114   .     S
C1115  H1118   1.108   .     S
C1119  C1130   1.450   .     S
C1119  O1167   1.295   .     A
C1120  O1168   1.301   .     A
C1120  C1215   1.453   .     S
C1120  O1256   1.299   .     S
C1121  H1159   1.078   .     S
C1121  C1123   1.385   .     A
C1121  C1150   1.413   .     A
C1122  C1124   1.390   .     A
C1122  H1160   1.078   .     S
C1122  C1149   1.414   .     A
C1123  H1153   1.083   .     S
C1124  H1154   1.084   .     S
C1124  C374    1.397   1_556 S
C1125  H1161   1.079   .     S
C1125  C1216   1.395   .     S
C1126  C1129   1.401   .     A
C1126  H1162   1.083   .     S
C1126  C1386   1.388   .     S
C1127  H1163   1.074   .     S
C1127  C1383   1.380   .     S
C1127  C1215   1.398   .     S
C1128  H1164   1.083   .     S
C1128  C1130   1.403   .     A
C1131  C1133   1.445   .     A
C1131  O1185   1.382   .     S
C1131  N1166   1.371   .     A
C1132  C1134   1.430   .     A
C1132  O1190   1.383   .     S
C1132  N1165   1.379   .     A
C1133  N1165   1.374   .     A
C1133  O1195   1.388   .     S
C1134  N1166   1.371   .     A
C1134  O1200   1.381   .     S
C1135  O1173   1.298   .     A
C1135  C1137   1.477   .     S
C1135  O1257   1.313   .     S
C1136  O1174   1.301   .     A
C1136  C1138   1.470   .     S
C1137  C1141   1.392   .     A
C1137  C1143   1.403   .     A
C1138  C1144   1.396   .     A
C1138  C1142   1.397   .     A
C1139  C1141   1.393   .     A
C1139  C1147   1.410   .     A
C1139  O1261   1.380   .     S
C1140  C1142   1.400   .     A
C1140  O1180   1.383   .     S
C1140  C1148   1.413   .     A
C1141  H1244   1.070   .     S
C1143  H1156   1.078   .     S
C1143  C1145   1.409   .     A
C1144  H1155   1.078   .     S
C1144  C1146   1.405   .     A
C1145  C1147   1.420   .     A
C1145  C1149   1.426   .     A
C1146  C1150   1.423   .     A
C1146  C1148   1.418   .     A
C1147  C349    1.395   1_556 S
C1149  C376    1.422   1_556 S
Cu1151 O1170   1.965   .     S
Cu1151 O1171   1.950   .     S
Cu1151 N1165   2.032   .     S
Cu1151 O1174   1.934   .     S
Cu1151 O1167   1.964   .     S
Cu1152 O1169   1.965   .     S
Cu1152 O1173   1.934   .     S
Cu1152 O1168   1.964   .     S
Cu1152 O1172   1.950   .     S
Cu1152 N1166   2.032   .     S
Cu1152 Cu1237  2.705   .     S
H1157  C1228   1.079   .     S
O1169  C1205   1.303   .     S
O1172  C1222   1.307   .     S
O1175  C1176   1.409   .     S
C1176  H1177   1.112   .     S
C1176  H318    1.113   1_556 S
C1176  H405    1.109   1_556 S
C1181  H1183   1.112   .     S
C1181  H1184   1.109   .     S
C1181  O1266   1.409   .     S
C1181  H1268   1.114   .     S
O1185  C1186   1.416   .     S
C1186  H1187   1.114   .     S
C1186  H1188   1.108   .     S
C1186  H1189   1.109   .     S
O1190  C1191   1.413   .     S
C1191  H1192   1.107   .     S
C1191  H1193   1.116   .     S
C1191  H1194   1.109   .     S
O1195  C1196   1.413   .     S
C1196  H1198   1.114   .     S
C1196  H1197   1.105   .     S
C1196  H1199   1.105   .     S
O1200  C1201   1.409   .     S
C1201  H1202   1.108   .     S
C1201  H1203   1.114   .     S
C1201  H1204   1.108   .     S
C1205  C1216   1.450   .     S
C1205  O1253   1.295   .     A
C1206  O1254   1.301   .     A
C1206  C1043   1.453   1_655 S
C1206  O1084   1.299   1_655 S
C1207  H1245   1.078   .     S
C1207  C1209   1.385   .     A
C1207  C1236   1.413   .     A
C1208  C1210   1.390   .     A
C1208  H1246   1.078   .     S
C1208  C1235   1.414   .     A
C1209  H1239   1.083   .     S
C1210  H1240   1.084   .     S
C1210  C460    1.397   1_556 S
C1211  H1247   1.079   .     S
C1211  C1044   1.395   1_655 S
C1212  C1215   1.401   .     A
C1212  H1248   1.083   .     S
C1212  C1472   1.388   .     S
C1213  H1249   1.074   .     S
C1213  C1469   1.380   .     S
C1213  C1043   1.398   1_655 S
C1214  H1250   1.083   .     S
C1214  C1216   1.403   .     A
C1217  C1219   1.445   .     A
C1217  O1271   1.382   .     S
C1217  N1252   1.371   .     A
C1218  C1220   1.430   .     A
C1218  O1276   1.383   .     S
C1218  N1251   1.379   .     A
C1219  N1251   1.374   .     A
C1219  O1281   1.388   .     S
C1220  N1252   1.371   .     A
C1220  O1286   1.381   .     S
C1221  O1259   1.298   .     A
C1221  C1223   1.477   .     S
C1221  O1085   1.313   1_655 S
C1222  O1260   1.301   .     A
C1222  C1224   1.470   .     S
C1223  C1227   1.392   .     A
C1223  C1229   1.403   .     A
C1224  C1230   1.396   .     A
C1224  C1228   1.397   .     A
C1225  C1227   1.393   .     A
C1225  C1233   1.410   .     A
C1225  O1089   1.380   1_655 S
C1226  C1228   1.400   .     A
C1226  O1266   1.383   .     S
C1226  C1234   1.413   .     A
C1227  H1072   1.070   1_655 S
C1229  H1242   1.078   .     S
C1229  C1231   1.409   .     A
C1230  H1241   1.078   .     S
C1230  C1232   1.405   .     A
C1231  C1233   1.420   .     A
C1231  C1235   1.426   .     A
C1232  C1236   1.423   .     A
C1232  C1234   1.418   .     A
C1233  C435    1.395   1_556 S
C1235  C462    1.422   1_556 S
Cu1237 O1256   1.965   .     S
Cu1237 O1257   1.950   .     S
Cu1237 N1251   2.032   .     S
Cu1237 O1260   1.934   .     S
Cu1237 O1253   1.964   .     S
Cu1238 O1255   1.965   .     S
Cu1238 O1259   1.934   .     S
Cu1238 O1254   1.964   .     S
Cu1238 O1258   1.950   .     S
Cu1238 N1252   2.032   .     S
Cu1238 Cu1065  2.705   1_655 S
H1243  C1056   1.079   1_655 S
O1255  C1033   1.303   1_655 S
O1258  C1050   1.307   1_655 S
O1261  C1262   1.409   .     S
C1262  H1263   1.112   .     S
C1262  H404    1.113   1_556 S
C1262  H491    1.109   1_556 S
H1264  C316    1.113   1_655 S
C1267  H1269   1.112   .     S
C1267  H1270   1.109   .     S
C1267  O1094   1.409   1_655 S
C1267  H1096   1.114   1_655 S
O1271  C1272   1.416   .     S
C1272  H1273   1.114   .     S
C1272  H1274   1.108   .     S
C1272  H1275   1.109   .     S
O1276  C1277   1.413   .     S
C1277  H1278   1.107   .     S
C1277  H1279   1.116   .     S
C1277  H1280   1.109   .     S
O1281  C1282   1.413   .     S
C1282  H1284   1.114   .     S
C1282  H1283   1.105   .     S
C1282  H1285   1.105   .     S
O1286  C1287   1.409   .     S
C1287  H1288   1.108   .     S
C1287  H1289   1.114   .     S
C1287  H1290   1.108   .     S
C1291  C1302   1.450   .     S
C1291  O1339   1.295   .     A
C1291  O1513   1.303   1_455 S
C1292  O1340   1.301   .     A
C1292  C1387   1.453   .     S
C1292  O1428   1.299   .     S
C1293  H1331   1.078   .     S
C1293  C1295   1.385   .     A
C1293  C1322   1.413   .     A
C1294  C1296   1.390   .     A
C1294  H1332   1.078   .     S
C1294  C1321   1.414   .     A
C1295  H1325   1.083   .     S
C1296  H1326   1.084   .     S
C1296  C546    1.397   1_556 S
C1297  H1333   1.079   .     S
C1297  C1388   1.395   .     S
C1298  C1301   1.401   .     A
C1298  H1334   1.083   .     S
C1298  C784    1.388   1_565 S
C1299  H1335   1.074   .     S
C1299  C781    1.380   1_565 S
C1299  C1387   1.398   .     S
C1300  H1336   1.083   .     S
C1300  C1302   1.403   .     A
C1301  C1471   1.398   1_455 S
C1301  C1464   1.453   1_455 S
C1302  C1469   1.395   1_455 S
C1303  C1305   1.445   .     A
C1303  O1357   1.382   .     S
C1303  N1338   1.371   .     A
C1304  C1306   1.430   .     A
C1304  O1362   1.383   .     S
C1304  N1337   1.379   .     A
C1305  N1337   1.374   .     A
C1305  O1367   1.388   .     S
C1306  N1338   1.371   .     A
C1306  O1372   1.381   .     S
C1307  O1345   1.298   .     A
C1307  C1309   1.477   .     S
C1307  O1429   1.313   .     S
C1308  O1346   1.301   .     A
C1308  C1310   1.470   .     S
C1308  O1516   1.307   1_455 S
C1309  C1313   1.392   .     A
C1309  C1315   1.403   .     A
C1310  C1316   1.396   .     A
C1310  C1314   1.397   .     A
C1311  C1313   1.393   .     A
C1311  C1319   1.410   .     A
C1311  O1433   1.380   .     S
C1312  C1314   1.400   .     A
C1312  O1352   1.383   .     S
C1312  C1320   1.413   .     A
C1313  H1416   1.070   .     S
C1314  H1501   1.079   1_455 S
C1315  H1328   1.078   .     S
C1315  C1317   1.409   .     A
C1316  H1327   1.078   .     S
C1316  C1318   1.405   .     A
C1317  C1319   1.420   .     A
C1317  C1321   1.426   .     A
C1318  C1322   1.423   .     A
C1318  C1320   1.418   .     A
C1319  C521    1.395   1_556 S
C1321  C548    1.422   1_556 S
Cu1323 O1342   1.965   .     S
Cu1323 O1343   1.950   .     S
Cu1323 N1337   2.032   .     S
Cu1323 O1346   1.934   .     S
Cu1323 O1339   1.964   .     S
Cu1323 Cu1496  2.705   1_455 S
Cu1324 O1341   1.965   .     S
Cu1324 O1345   1.934   .     S
Cu1324 O1340   1.964   .     S
Cu1324 O1344   1.950   .     S
Cu1324 N1338   2.032   .     S
Cu1324 Cu1409  2.705   .     S
H1329  C1400   1.079   .     S
H1330  C1485   1.070   1_455 S
O1341  C1377   1.303   .     S
O1342  C1464   1.299   1_455 S
O1343  C1479   1.313   1_455 S
O1344  C1394   1.307   .     S
O1347  C1348   1.409   .     S
O1347  C1483   1.380   1_455 S
C1348  H1349   1.112   .     S
C1348  H748    1.113   1_456 S
C1348  H577    1.109   1_556 S
O1352  C1525   1.409   1_455 S
C1353  H1355   1.112   .     S
C1353  H1356   1.109   .     S
C1353  O1438   1.409   .     S
C1353  H1440   1.114   .     S
H1354  C1525   1.114   1_455 S
O1357  C1358   1.416   .     S
C1358  H1359   1.114   .     S
C1358  H1360   1.108   .     S
C1358  H1361   1.109   .     S
O1362  C1363   1.413   .     S
C1363  H1364   1.107   .     S
C1363  H1365   1.116   .     S
C1363  H1366   1.109   .     S
O1367  C1368   1.413   .     S
C1368  H1370   1.114   .     S
C1368  H1369   1.105   .     S
C1368  H1371   1.105   .     S
O1372  C1373   1.409   .     S
C1373  H1374   1.108   .     S
C1373  H1375   1.114   .     S
C1373  H1376   1.108   .     S
C1377  C1388   1.450   .     S
C1377  O1425   1.295   .     A
C1378  O1426   1.301   .     A
C1378  C1473   1.453   .     S
C1378  O1514   1.299   .     S
C1379  H1417   1.078   .     S
C1379  C1381   1.385   .     A
C1379  C1408   1.413   .     A
C1380  C1382   1.390   .     A
C1380  H1418   1.078   .     S
C1380  C1407   1.414   .     A
C1381  H1411   1.083   .     S
C1382  H1412   1.084   .     S
C1382  C632    1.397   1_556 S
C1383  H1419   1.079   .     S
C1383  C1474   1.395   .     S
C1384  C1387   1.401   .     A
C1384  H1420   1.083   .     S
C1384  C870    1.388   1_565 S
C1385  H1421   1.074   .     S
C1385  C867    1.380   1_565 S
C1385  C1473   1.398   .     S
C1386  H1422   1.083   .     S
C1386  C1388   1.403   .     A
C1389  C1391   1.445   .     A
C1389  O1443   1.382   .     S
C1389  N1424   1.371   .     A
C1390  C1392   1.430   .     A
C1390  O1448   1.383   .     S
C1390  N1423   1.379   .     A
C1391  N1423   1.374   .     A
C1391  O1453   1.388   .     S
C1392  N1424   1.371   .     A
C1392  O1458   1.381   .     S
C1393  O1431   1.298   .     A
C1393  C1395   1.477   .     S
C1393  O1515   1.313   .     S
C1394  O1432   1.301   .     A
C1394  C1396   1.470   .     S
C1395  C1399   1.392   .     A
C1395  C1401   1.403   .     A
C1396  C1402   1.396   .     A
C1396  C1400   1.397   .     A
C1397  C1399   1.393   .     A
C1397  C1405   1.410   .     A
C1397  O1519   1.380   .     S
C1398  C1400   1.400   .     A
C1398  O1438   1.383   .     S
C1398  C1406   1.413   .     A
C1399  H1502   1.070   .     S
C1401  H1414   1.078   .     S
C1401  C1403   1.409   .     A
C1402  H1413   1.078   .     S
C1402  C1404   1.405   .     A
C1403  C1405   1.420   .     A
C1403  C1407   1.426   .     A
C1404  C1408   1.423   .     A
C1404  C1406   1.418   .     A
C1405  C607    1.395   1_556 S
C1407  C634    1.422   1_556 S
Cu1409 O1428   1.965   .     S
Cu1409 O1429   1.950   .     S
Cu1409 N1423   2.032   .     S
Cu1409 O1432   1.934   .     S
Cu1409 O1425   1.964   .     S
Cu1410 O1427   1.965   .     S
Cu1410 O1431   1.934   .     S
Cu1410 O1426   1.964   .     S
Cu1410 O1430   1.950   .     S
Cu1410 N1424   2.032   .     S
Cu1410 Cu1495  2.705   .     S
H1415  C1486   1.079   .     S
O1427  C1463   1.303   .     S
O1430  C1480   1.307   .     S
O1433  C1434   1.409   .     S
C1434  H1435   1.112   .     S
C1434  H576    1.113   1_556 S
C1434  H663    1.109   1_556 S
C1439  H1441   1.112   .     S
C1439  H1442   1.109   .     S
C1439  O1524   1.409   .     S
C1439  H1526   1.114   .     S
O1443  C1444   1.416   .     S
C1444  H1445   1.114   .     S
C1444  H1446   1.108   .     S
C1444  H1447   1.109   .     S
O1448  C1449   1.413   .     S
C1449  H1450   1.107   .     S
C1449  H1451   1.116   .     S
C1449  H1452   1.109   .     S
O1453  C1454   1.413   .     S
C1454  H1456   1.114   .     S
C1454  H1455   1.105   .     S
C1454  H1457   1.105   .     S
O1458  C1459   1.409   .     S
C1459  H1460   1.108   .     S
C1459  H1461   1.114   .     S
C1459  H1462   1.108   .     S
C1463  C1474   1.450   .     S
C1463  O1511   1.295   .     A
C1464  O1512   1.301   .     A
C1464  C1301   1.453   1_655 S
C1464  O1342   1.299   1_655 S
C1465  H1503   1.078   .     S
C1465  C1467   1.385   .     A
C1465  C1494   1.413   .     A
C1466  C1468   1.390   .     A
C1466  H1504   1.078   .     S
C1466  C1493   1.414   .     A
C1467  H1497   1.083   .     S
C1468  H1498   1.084   .     S
C1468  C718    1.397   1_556 S
C1469  H1505   1.079   .     S
C1469  C1302   1.395   1_655 S
C1470  C1473   1.401   .     A
C1470  H1506   1.083   .     S
C1470  C956    1.388   1_565 S
C1471  H1507   1.074   .     S
C1471  C953    1.380   1_565 S
C1471  C1301   1.398   1_655 S
C1472  H1508   1.083   .     S
C1472  C1474   1.403   .     A
C1475  C1477   1.445   .     A
C1475  O1529   1.382   .     S
C1475  N1510   1.371   .     A
C1476  C1478   1.430   .     A
C1476  O1534   1.383   .     S
C1476  N1509   1.379   .     A
C1477  N1509   1.374   .     A
C1477  O1539   1.388   .     S
C1478  N1510   1.371   .     A
C1478  O1544   1.381   .     S
C1479  O1517   1.298   .     A
C1479  C1481   1.477   .     S
C1479  O1343   1.313   1_655 S
C1480  O1518   1.301   .     A
C1480  C1482   1.470   .     S
C1481  C1485   1.392   .     A
C1481  C1487   1.403   .     A
C1482  C1488   1.396   .     A
C1482  C1486   1.397   .     A
C1483  C1485   1.393   .     A
C1483  C1491   1.410   .     A
C1483  O1347   1.380   1_655 S
C1484  C1486   1.400   .     A
C1484  O1524   1.383   .     S
C1484  C1492   1.413   .     A
C1485  H1330   1.070   1_655 S
C1487  H1500   1.078   .     S
C1487  C1489   1.409   .     A
C1488  H1499   1.078   .     S
C1488  C1490   1.405   .     A
C1489  C1491   1.420   .     A
C1489  C1493   1.426   .     A
C1490  C1494   1.423   .     A
C1490  C1492   1.418   .     A
C1491  C693    1.395   1_556 S
C1493  C720    1.422   1_556 S
Cu1495 O1514   1.965   .     S
Cu1495 O1515   1.950   .     S
Cu1495 N1509   2.032   .     S
Cu1495 O1518   1.934   .     S
Cu1495 O1511   1.964   .     S
Cu1496 O1513   1.965   .     S
Cu1496 O1517   1.934   .     S
Cu1496 O1512   1.964   .     S
Cu1496 O1516   1.950   .     S
Cu1496 N1510   2.032   .     S
Cu1496 Cu1323  2.705   1_655 S
H1501  C1314   1.079   1_655 S
O1513  C1291   1.303   1_655 S
O1516  C1308   1.307   1_655 S
O1519  C1520   1.409   .     S
C1520  H1521   1.112   .     S
C1520  H662    1.113   1_556 S
C1520  H749    1.109   1_556 S
H1522  C574    1.113   1_655 S
C1525  H1527   1.112   .     S
C1525  H1528   1.109   .     S
C1525  O1352   1.409   1_655 S
C1525  H1354   1.114   1_655 S
O1529  C1530   1.416   .     S
C1530  H1531   1.114   .     S
C1530  H1532   1.108   .     S
C1530  H1533   1.109   .     S
O1534  C1535   1.413   .     S
C1535  H1536   1.107   .     S
C1535  H1537   1.116   .     S
C1535  H1538   1.109   .     S
O1539  C1540   1.413   .     S
C1540  H1542   1.114   .     S
C1540  H1541   1.105   .     S
C1540  H1543   1.105   .     S
O1544  C1545   1.409   .     S
C1545  H1546   1.108   .     S
C1545  H1547   1.114   .     S
C1545  H1548   1.108   .     S
