data_str_m2_o1_o17_pcu_sym.51
_audit_creation_date              2020-01-03
_audit_creation_method            'Materials Studio'
_symmetry_space_group_name_H-M    'P1'
_symmetry_Int_Tables_number       1
_symmetry_cell_setting            triclinic
loop_
_symmetry_equiv_pos_as_xyz
  x,y,z
_cell_length_a                    32.7977
_cell_length_b                    28.4739
_cell_length_c                    30.1743
_cell_angle_alpha                 90.3957
_cell_angle_beta                  90.2813
_cell_angle_gamma                 89.8046
loop_
_atom_site_label
_atom_site_type_symbol
_atom_site_fract_x
_atom_site_fract_y
_atom_site_fract_z
_atom_site_U_iso_or_equiv
_atom_site_adp_type
_atom_site_occupancy
C1     C     0.08741   0.16679   0.24642   0.00000  Uiso   1.00
C2     C     0.04274   0.16703   0.23943   0.00000  Uiso   1.00
C3     C     0.14557   0.02466   0.21844   0.00000  Uiso   1.00
C4     C     0.18821   0.30864   0.28124   0.00000  Uiso   1.00
C5     C     0.18819   0.02497   0.28126   0.00000  Uiso   1.00
C6     C     0.14546   0.30836   0.21852   0.00000  Uiso   1.00
C7     C     0.16786   0.16645   0.16439   0.00000  Uiso   1.00
C8     C     0.16545   0.16688   0.33562   0.00000  Uiso   1.00
C9     C     0.18608   0.13256   0.40635   0.00000  Uiso   1.00
C10    C     0.14714   0.20073   0.09369   0.00000  Uiso   1.00
C11    C     0.16430   0.16733   0.38394   0.00000  Uiso   1.00
C12    C     0.24590   0.16650   0.24655   0.00000  Uiso   1.00
C13    C     0.16901   0.16602   0.11609   0.00000  Uiso   1.00
C14    C     0.14215   0.20176   0.40754   0.00000  Uiso   1.00
C15    C     0.19122   0.13166   0.09249   0.00000  Uiso   1.00
C16    C     0.14342   0.20188   0.45417   0.00000  Uiso   1.00
C17    C     0.18989   0.13149   0.04586   0.00000  Uiso   1.00
C18    C     0.16602   0.16675   0.47667   0.00000  Uiso   1.00
C19    C     0.16726   0.16659   0.02337   0.00000  Uiso   1.00
C20    C     0.18725   0.13169   0.45253   0.00000  Uiso   1.00
C21    C     0.14599   0.20162   0.04751   0.00000  Uiso   1.00
C22    C     0.12266   0.23639   0.47885   0.00000  Uiso   1.00
C23    C     0.12383   0.23655   0.02491   0.00000  Uiso   1.00
C24    C     0.21063   0.09696   0.02120   0.00000  Uiso   1.00
C25    C     0.04358   0.08077   0.21927   0.00000  Uiso   1.00
C26    C     0.28918   0.25245   0.21953   0.00000  Uiso   1.00
C27    C     0.29171   0.07709   0.23871   0.00000  Uiso   1.00
C28    C     0.04167   0.25583   0.23570   0.00000  Uiso   1.00
C29    C     0.20940   0.09676   0.47514   0.00000  Uiso   1.00
C30    C     0.02174   0.12395   0.23426   0.00000  Uiso   1.00
C31    C     0.31138   0.20916   0.23358   0.00000  Uiso   1.00
C32    C     0.31256   0.12320   0.23833   0.00000  Uiso   1.00
C33    C     0.02067   0.20993   0.23729   0.00000  Uiso   1.00
C34    C     0.29046   0.16618   0.23951   0.00000  Uiso   1.00
Cl35   Cl    0.11104   0.24274   0.37872   0.00000  Uiso   1.00
Cl36   Cl    0.22253   0.09087   0.12131   0.00000  Uiso   1.00
Cl37   Cl    0.09698   0.28170   0.05272   0.00000  Uiso   1.00
Cl38   Cl    0.23618   0.05154   0.44735   0.00000  Uiso   1.00
Cu39   Cu    0.16667   0.21355   0.25000   0.00000  Uiso   1.00
Cu40   Cu    0.16667   0.11978   0.25000   0.00000  Uiso   1.00
H41    H     0.20271   0.10660   0.38719   0.00000  Uiso   1.00
H42    H     0.26636   0.25021   0.19342   0.00000  Uiso   1.00
H43    H     0.27363   0.06588   0.21036   0.00000  Uiso   1.00
H44    H     0.05549   0.26740   0.20509   0.00000  Uiso   1.00
H45    H     0.13046   0.22664   0.11286   0.00000  Uiso   1.00
H46    H     0.10542   0.26392   0.46276   0.00000  Uiso   1.00
H47    H     0.22787   0.06944   0.03729   0.00000  Uiso   1.00
H48    H     0.12894   0.04322   0.19298   0.00000  Uiso   1.00
H49    H     0.20554   0.28999   0.30616   0.00000  Uiso   1.00
H50    H     0.20550   0.04383   0.30621   0.00000  Uiso   1.00
H51    H     0.12855   0.28952   0.19325   0.00000  Uiso   1.00
H52    H     0.06464   0.08298   0.19177   0.00000  Uiso   1.00
N53    N     0.16667   0.28402   0.25000   0.00000  Uiso   1.00
N54    N     0.16667   0.04931   0.25000   0.00000  Uiso   1.00
O55    O     0.10655   0.20625   0.24999   0.00000  Uiso   1.00
O56    O     0.29517   0.29027   0.23761   0.00000  Uiso   1.00
O57    O     0.29375   0.05226   0.27147   0.00000  Uiso   1.00
O58    O     0.04412   0.28027   0.26899   0.00000  Uiso   1.00
O59    O     0.22679   0.12709   0.25000   0.00000  Uiso   1.00
O60    O     0.22679   0.20625   0.25000   0.00000  Uiso   1.00
O61    O     0.10655   0.12709   0.24999   0.00000  Uiso   1.00
O62    O     0.16666   0.20627   0.18513   0.00000  Uiso   1.00
O63    O     0.16668   0.12707   0.31487   0.00000  Uiso   1.00
O64    O     0.16668   0.20627   0.31487   0.00000  Uiso   1.00
O65    O     0.16666   0.12707   0.18513   0.00000  Uiso   1.00
O66    O     0.03925   0.04328   0.23795   0.00000  Uiso   1.00
C67    C     0.42074   0.16679   0.24642   0.00000  Uiso   1.00
C68    C     0.37607   0.16703   0.23943   0.00000  Uiso   1.00
C69    C     0.47890   0.02466   0.21844   0.00000  Uiso   1.00
C70    C     0.52155   0.30864   0.28124   0.00000  Uiso   1.00
C71    C     0.52152   0.02497   0.28126   0.00000  Uiso   1.00
C72    C     0.47879   0.30836   0.21852   0.00000  Uiso   1.00
C73    C     0.50120   0.16645   0.16439   0.00000  Uiso   1.00
C74    C     0.49879   0.16688   0.33562   0.00000  Uiso   1.00
C75    C     0.51941   0.13256   0.40635   0.00000  Uiso   1.00
C76    C     0.48048   0.20073   0.09369   0.00000  Uiso   1.00
C77    C     0.49763   0.16733   0.38394   0.00000  Uiso   1.00
C78    C     0.57923   0.16650   0.24655   0.00000  Uiso   1.00
C79    C     0.50234   0.16602   0.11609   0.00000  Uiso   1.00
C80    C     0.47549   0.20176   0.40754   0.00000  Uiso   1.00
C81    C     0.52455   0.13166   0.09249   0.00000  Uiso   1.00
C82    C     0.47676   0.20188   0.45417   0.00000  Uiso   1.00
C83    C     0.52322   0.13149   0.04586   0.00000  Uiso   1.00
C84    C     0.49935   0.16675   0.47667   0.00000  Uiso   1.00
C85    C     0.50059   0.16659   0.02337   0.00000  Uiso   1.00
C86    C     0.52058   0.13169   0.45253   0.00000  Uiso   1.00
C87    C     0.47933   0.20162   0.04751   0.00000  Uiso   1.00
C88    C     0.45600   0.23639   0.47885   0.00000  Uiso   1.00
C89    C     0.45717   0.23655   0.02491   0.00000  Uiso   1.00
C90    C     0.54396   0.09696   0.02120   0.00000  Uiso   1.00
C91    C     0.37692   0.08077   0.21927   0.00000  Uiso   1.00
C92    C     0.62251   0.25245   0.21953   0.00000  Uiso   1.00
C93    C     0.62504   0.07709   0.23871   0.00000  Uiso   1.00
C94    C     0.37501   0.25583   0.23570   0.00000  Uiso   1.00
C95    C     0.54273   0.09676   0.47514   0.00000  Uiso   1.00
C96    C     0.35507   0.12395   0.23426   0.00000  Uiso   1.00
C97    C     0.64472   0.20916   0.23358   0.00000  Uiso   1.00
C98    C     0.64589   0.12320   0.23833   0.00000  Uiso   1.00
C99    C     0.35400   0.20993   0.23729   0.00000  Uiso   1.00
C100   C     0.62380   0.16618   0.23951   0.00000  Uiso   1.00
Cl101  Cl    0.44437   0.24274   0.37872   0.00000  Uiso   1.00
Cl102  Cl    0.55586   0.09087   0.12131   0.00000  Uiso   1.00
Cl103  Cl    0.43031   0.28170   0.05272   0.00000  Uiso   1.00
Cl104  Cl    0.56952   0.05154   0.44735   0.00000  Uiso   1.00
Cu105  Cu    0.50000   0.21355   0.25000   0.00000  Uiso   1.00
Cu106  Cu    0.50000   0.11978   0.25000   0.00000  Uiso   1.00
H107   H     0.53604   0.10660   0.38719   0.00000  Uiso   1.00
H108   H     0.59969   0.25021   0.19342   0.00000  Uiso   1.00
H109   H     0.60697   0.06588   0.21036   0.00000  Uiso   1.00
H110   H     0.38883   0.26740   0.20509   0.00000  Uiso   1.00
H111   H     0.46380   0.22664   0.11286   0.00000  Uiso   1.00
H112   H     0.43875   0.26392   0.46276   0.00000  Uiso   1.00
H113   H     0.56121   0.06944   0.03729   0.00000  Uiso   1.00
H114   H     0.46228   0.04322   0.19298   0.00000  Uiso   1.00
H115   H     0.53888   0.28999   0.30616   0.00000  Uiso   1.00
H116   H     0.53883   0.04383   0.30621   0.00000  Uiso   1.00
H117   H     0.46188   0.28952   0.19325   0.00000  Uiso   1.00
H118   H     0.39798   0.08298   0.19177   0.00000  Uiso   1.00
N119   N     0.50000   0.28402   0.25000   0.00000  Uiso   1.00
N120   N     0.50000   0.04931   0.25000   0.00000  Uiso   1.00
O121   O     0.43988   0.20625   0.24999   0.00000  Uiso   1.00
O122   O     0.62850   0.29027   0.23761   0.00000  Uiso   1.00
O123   O     0.62708   0.05226   0.27147   0.00000  Uiso   1.00
O124   O     0.37745   0.28027   0.26899   0.00000  Uiso   1.00
O125   O     0.56012   0.12709   0.25000   0.00000  Uiso   1.00
O126   O     0.56012   0.20625   0.25000   0.00000  Uiso   1.00
O127   O     0.43988   0.12709   0.24999   0.00000  Uiso   1.00
O128   O     0.49999   0.20627   0.18513   0.00000  Uiso   1.00
O129   O     0.50001   0.12707   0.31487   0.00000  Uiso   1.00
O130   O     0.50001   0.20627   0.31487   0.00000  Uiso   1.00
O131   O     0.49999   0.12707   0.18513   0.00000  Uiso   1.00
O132   O     0.37258   0.04328   0.23795   0.00000  Uiso   1.00
C133   C     0.75407   0.16679   0.24642   0.00000  Uiso   1.00
C134   C     0.70940   0.16703   0.23943   0.00000  Uiso   1.00
C135   C     0.81224   0.02466   0.21844   0.00000  Uiso   1.00
C136   C     0.85488   0.30864   0.28124   0.00000  Uiso   1.00
C137   C     0.85485   0.02497   0.28126   0.00000  Uiso   1.00
C138   C     0.81213   0.30836   0.21852   0.00000  Uiso   1.00
C139   C     0.83453   0.16645   0.16439   0.00000  Uiso   1.00
C140   C     0.83212   0.16688   0.33562   0.00000  Uiso   1.00
C141   C     0.85275   0.13256   0.40635   0.00000  Uiso   1.00
C142   C     0.81381   0.20073   0.09369   0.00000  Uiso   1.00
C143   C     0.83096   0.16733   0.38394   0.00000  Uiso   1.00
C144   C     0.91256   0.16650   0.24655   0.00000  Uiso   1.00
C145   C     0.83567   0.16602   0.11609   0.00000  Uiso   1.00
C146   C     0.80882   0.20176   0.40754   0.00000  Uiso   1.00
C147   C     0.85789   0.13166   0.09249   0.00000  Uiso   1.00
C148   C     0.81009   0.20188   0.45417   0.00000  Uiso   1.00
C149   C     0.85656   0.13149   0.04586   0.00000  Uiso   1.00
C150   C     0.83269   0.16675   0.47667   0.00000  Uiso   1.00
C151   C     0.83392   0.16659   0.02337   0.00000  Uiso   1.00
C152   C     0.85392   0.13169   0.45253   0.00000  Uiso   1.00
C153   C     0.81266   0.20162   0.04751   0.00000  Uiso   1.00
C154   C     0.78933   0.23639   0.47885   0.00000  Uiso   1.00
C155   C     0.79050   0.23655   0.02491   0.00000  Uiso   1.00
C156   C     0.87730   0.09696   0.02120   0.00000  Uiso   1.00
C157   C     0.71025   0.08077   0.21927   0.00000  Uiso   1.00
C158   C     0.95584   0.25245   0.21953   0.00000  Uiso   1.00
C159   C     0.95837   0.07709   0.23871   0.00000  Uiso   1.00
C160   C     0.70834   0.25583   0.23570   0.00000  Uiso   1.00
C161   C     0.87607   0.09676   0.47514   0.00000  Uiso   1.00
C162   C     0.68840   0.12395   0.23426   0.00000  Uiso   1.00
C163   C     0.97805   0.20916   0.23358   0.00000  Uiso   1.00
C164   C     0.97922   0.12320   0.23833   0.00000  Uiso   1.00
C165   C     0.68733   0.20993   0.23729   0.00000  Uiso   1.00
C166   C     0.95713   0.16618   0.23951   0.00000  Uiso   1.00
Cl167  Cl    0.77770   0.24274   0.37872   0.00000  Uiso   1.00
Cl168  Cl    0.88919   0.09087   0.12131   0.00000  Uiso   1.00
Cl169  Cl    0.76365   0.28170   0.05272   0.00000  Uiso   1.00
Cl170  Cl    0.90285   0.05154   0.44735   0.00000  Uiso   1.00
Cu171  Cu    0.83333   0.21355   0.25000   0.00000  Uiso   1.00
Cu172  Cu    0.83333   0.11978   0.25000   0.00000  Uiso   1.00
H173   H     0.86937   0.10660   0.38719   0.00000  Uiso   1.00
H174   H     0.93303   0.25021   0.19342   0.00000  Uiso   1.00
H175   H     0.94030   0.06588   0.21036   0.00000  Uiso   1.00
H176   H     0.72216   0.26740   0.20509   0.00000  Uiso   1.00
H177   H     0.79713   0.22664   0.11286   0.00000  Uiso   1.00
H178   H     0.77209   0.26392   0.46276   0.00000  Uiso   1.00
H179   H     0.89454   0.06944   0.03729   0.00000  Uiso   1.00
H180   H     0.79561   0.04322   0.19298   0.00000  Uiso   1.00
H181   H     0.87221   0.28999   0.30616   0.00000  Uiso   1.00
H182   H     0.87217   0.04383   0.30621   0.00000  Uiso   1.00
H183   H     0.79521   0.28952   0.19325   0.00000  Uiso   1.00
H184   H     0.73131   0.08298   0.19177   0.00000  Uiso   1.00
N185   N     0.83333   0.28402   0.25000   0.00000  Uiso   1.00
N186   N     0.83333   0.04931   0.25000   0.00000  Uiso   1.00
O187   O     0.77321   0.20625   0.24999   0.00000  Uiso   1.00
O188   O     0.96184   0.29027   0.23761   0.00000  Uiso   1.00
O189   O     0.96041   0.05226   0.27147   0.00000  Uiso   1.00
O190   O     0.71079   0.28027   0.26899   0.00000  Uiso   1.00
O191   O     0.89345   0.12709   0.25000   0.00000  Uiso   1.00
O192   O     0.89345   0.20625   0.25000   0.00000  Uiso   1.00
O193   O     0.77321   0.12709   0.24999   0.00000  Uiso   1.00
O194   O     0.83332   0.20627   0.18513   0.00000  Uiso   1.00
O195   O     0.83334   0.12707   0.31487   0.00000  Uiso   1.00
O196   O     0.83334   0.20627   0.31487   0.00000  Uiso   1.00
O197   O     0.83332   0.12707   0.18513   0.00000  Uiso   1.00
O198   O     0.70592   0.04328   0.23795   0.00000  Uiso   1.00
C199   C     0.08741   0.50012   0.24642   0.00000  Uiso   1.00
C200   C     0.04274   0.50036   0.23943   0.00000  Uiso   1.00
C201   C     0.14557   0.35799   0.21844   0.00000  Uiso   1.00
C202   C     0.18821   0.64197   0.28124   0.00000  Uiso   1.00
C203   C     0.18819   0.35831   0.28126   0.00000  Uiso   1.00
C204   C     0.14546   0.64169   0.21852   0.00000  Uiso   1.00
C205   C     0.16786   0.49979   0.16439   0.00000  Uiso   1.00
C206   C     0.16545   0.50022   0.33562   0.00000  Uiso   1.00
C207   C     0.18608   0.46589   0.40635   0.00000  Uiso   1.00
C208   C     0.14714   0.53406   0.09369   0.00000  Uiso   1.00
C209   C     0.16430   0.50067   0.38394   0.00000  Uiso   1.00
C210   C     0.24590   0.49984   0.24655   0.00000  Uiso   1.00
C211   C     0.16901   0.49935   0.11609   0.00000  Uiso   1.00
C212   C     0.14215   0.53509   0.40754   0.00000  Uiso   1.00
C213   C     0.19122   0.46500   0.09249   0.00000  Uiso   1.00
C214   C     0.14342   0.53521   0.45417   0.00000  Uiso   1.00
C215   C     0.18989   0.46482   0.04586   0.00000  Uiso   1.00
C216   C     0.16602   0.50009   0.47667   0.00000  Uiso   1.00
C217   C     0.16726   0.49992   0.02337   0.00000  Uiso   1.00
C218   C     0.18725   0.46503   0.45253   0.00000  Uiso   1.00
C219   C     0.14599   0.53495   0.04751   0.00000  Uiso   1.00
C220   C     0.12266   0.56972   0.47885   0.00000  Uiso   1.00
C221   C     0.12383   0.56988   0.02491   0.00000  Uiso   1.00
C222   C     0.21063   0.43029   0.02120   0.00000  Uiso   1.00
C223   C     0.04358   0.41411   0.21927   0.00000  Uiso   1.00
C224   C     0.28918   0.58578   0.21953   0.00000  Uiso   1.00
C225   C     0.29171   0.41043   0.23871   0.00000  Uiso   1.00
C226   C     0.04167   0.58916   0.23570   0.00000  Uiso   1.00
C227   C     0.20940   0.43009   0.47514   0.00000  Uiso   1.00
C228   C     0.02174   0.45728   0.23426   0.00000  Uiso   1.00
C229   C     0.31138   0.54250   0.23358   0.00000  Uiso   1.00
C230   C     0.31256   0.45653   0.23833   0.00000  Uiso   1.00
C231   C     0.02067   0.54327   0.23729   0.00000  Uiso   1.00
C232   C     0.29046   0.49951   0.23951   0.00000  Uiso   1.00
Cl233  Cl    0.11104   0.57607   0.37872   0.00000  Uiso   1.00
Cl234  Cl    0.22253   0.42421   0.12131   0.00000  Uiso   1.00
Cl235  Cl    0.09698   0.61503   0.05272   0.00000  Uiso   1.00
Cl236  Cl    0.23618   0.38488   0.44735   0.00000  Uiso   1.00
Cu237  Cu    0.16667   0.54689   0.25000   0.00000  Uiso   1.00
Cu238  Cu    0.16667   0.45311   0.25000   0.00000  Uiso   1.00
H239   H     0.20271   0.43993   0.38719   0.00000  Uiso   1.00
H240   H     0.26636   0.58355   0.19342   0.00000  Uiso   1.00
H241   H     0.27363   0.39921   0.21036   0.00000  Uiso   1.00
H242   H     0.05549   0.60073   0.20509   0.00000  Uiso   1.00
H243   H     0.13046   0.55997   0.11286   0.00000  Uiso   1.00
H244   H     0.10542   0.59725   0.46276   0.00000  Uiso   1.00
H245   H     0.22787   0.40277   0.03729   0.00000  Uiso   1.00
H246   H     0.12894   0.37655   0.19298   0.00000  Uiso   1.00
H247   H     0.20554   0.62332   0.30616   0.00000  Uiso   1.00
H248   H     0.20550   0.37717   0.30621   0.00000  Uiso   1.00
H249   H     0.12855   0.62285   0.19325   0.00000  Uiso   1.00
H250   H     0.06464   0.41631   0.19177   0.00000  Uiso   1.00
N251   N     0.16667   0.61736   0.25000   0.00000  Uiso   1.00
N252   N     0.16667   0.38264   0.25000   0.00000  Uiso   1.00
O253   O     0.10655   0.53958   0.24999   0.00000  Uiso   1.00
O254   O     0.29517   0.62360   0.23761   0.00000  Uiso   1.00
O255   O     0.29375   0.38560   0.27147   0.00000  Uiso   1.00
O256   O     0.04412   0.61360   0.26899   0.00000  Uiso   1.00
O257   O     0.22679   0.46042   0.25000   0.00000  Uiso   1.00
O258   O     0.22679   0.53958   0.25000   0.00000  Uiso   1.00
O259   O     0.10655   0.46042   0.24999   0.00000  Uiso   1.00
O260   O     0.16666   0.53960   0.18513   0.00000  Uiso   1.00
O261   O     0.16668   0.46040   0.31487   0.00000  Uiso   1.00
O262   O     0.16668   0.53960   0.31487   0.00000  Uiso   1.00
O263   O     0.16666   0.46040   0.18513   0.00000  Uiso   1.00
O264   O     0.03925   0.37661   0.23795   0.00000  Uiso   1.00
C265   C     0.42074   0.50012   0.24642   0.00000  Uiso   1.00
C266   C     0.37607   0.50036   0.23943   0.00000  Uiso   1.00
C267   C     0.47890   0.35799   0.21844   0.00000  Uiso   1.00
C268   C     0.52155   0.64197   0.28124   0.00000  Uiso   1.00
C269   C     0.52152   0.35831   0.28126   0.00000  Uiso   1.00
C270   C     0.47879   0.64169   0.21852   0.00000  Uiso   1.00
C271   C     0.50120   0.49979   0.16439   0.00000  Uiso   1.00
C272   C     0.49879   0.50022   0.33562   0.00000  Uiso   1.00
C273   C     0.51941   0.46589   0.40635   0.00000  Uiso   1.00
C274   C     0.48048   0.53406   0.09369   0.00000  Uiso   1.00
C275   C     0.49763   0.50067   0.38394   0.00000  Uiso   1.00
C276   C     0.57923   0.49984   0.24655   0.00000  Uiso   1.00
C277   C     0.50234   0.49935   0.11609   0.00000  Uiso   1.00
C278   C     0.47549   0.53509   0.40754   0.00000  Uiso   1.00
C279   C     0.52455   0.46500   0.09249   0.00000  Uiso   1.00
C280   C     0.47676   0.53521   0.45417   0.00000  Uiso   1.00
C281   C     0.52322   0.46482   0.04586   0.00000  Uiso   1.00
C282   C     0.49935   0.50009   0.47667   0.00000  Uiso   1.00
C283   C     0.50059   0.49992   0.02337   0.00000  Uiso   1.00
C284   C     0.52058   0.46503   0.45253   0.00000  Uiso   1.00
C285   C     0.47933   0.53495   0.04751   0.00000  Uiso   1.00
C286   C     0.45600   0.56972   0.47885   0.00000  Uiso   1.00
C287   C     0.45717   0.56988   0.02491   0.00000  Uiso   1.00
C288   C     0.54396   0.43029   0.02120   0.00000  Uiso   1.00
C289   C     0.37692   0.41411   0.21927   0.00000  Uiso   1.00
C290   C     0.62251   0.58578   0.21953   0.00000  Uiso   1.00
C291   C     0.62504   0.41043   0.23871   0.00000  Uiso   1.00
C292   C     0.37501   0.58916   0.23570   0.00000  Uiso   1.00
C293   C     0.54273   0.43009   0.47514   0.00000  Uiso   1.00
C294   C     0.35507   0.45728   0.23426   0.00000  Uiso   1.00
C295   C     0.64472   0.54250   0.23358   0.00000  Uiso   1.00
C296   C     0.64589   0.45653   0.23833   0.00000  Uiso   1.00
C297   C     0.35400   0.54327   0.23729   0.00000  Uiso   1.00
C298   C     0.62380   0.49951   0.23951   0.00000  Uiso   1.00
Cl299  Cl    0.44437   0.57607   0.37872   0.00000  Uiso   1.00
Cl300  Cl    0.55586   0.42421   0.12131   0.00000  Uiso   1.00
Cl301  Cl    0.43031   0.61503   0.05272   0.00000  Uiso   1.00
Cl302  Cl    0.56952   0.38488   0.44735   0.00000  Uiso   1.00
Cu303  Cu    0.50000   0.54689   0.25000   0.00000  Uiso   1.00
Cu304  Cu    0.50000   0.45311   0.25000   0.00000  Uiso   1.00
H305   H     0.53604   0.43993   0.38719   0.00000  Uiso   1.00
H306   H     0.59969   0.58355   0.19342   0.00000  Uiso   1.00
H307   H     0.60697   0.39921   0.21036   0.00000  Uiso   1.00
H308   H     0.38883   0.60073   0.20509   0.00000  Uiso   1.00
H309   H     0.46380   0.55997   0.11286   0.00000  Uiso   1.00
H310   H     0.43875   0.59725   0.46276   0.00000  Uiso   1.00
H311   H     0.56121   0.40277   0.03729   0.00000  Uiso   1.00
H312   H     0.46228   0.37655   0.19298   0.00000  Uiso   1.00
H313   H     0.53888   0.62332   0.30616   0.00000  Uiso   1.00
H314   H     0.53883   0.37717   0.30621   0.00000  Uiso   1.00
H315   H     0.46188   0.62285   0.19325   0.00000  Uiso   1.00
H316   H     0.39798   0.41631   0.19177   0.00000  Uiso   1.00
N317   N     0.50000   0.61736   0.25000   0.00000  Uiso   1.00
N318   N     0.50000   0.38264   0.25000   0.00000  Uiso   1.00
O319   O     0.43988   0.53958   0.24999   0.00000  Uiso   1.00
O320   O     0.62850   0.62360   0.23761   0.00000  Uiso   1.00
O321   O     0.62708   0.38560   0.27147   0.00000  Uiso   1.00
O322   O     0.37745   0.61360   0.26899   0.00000  Uiso   1.00
O323   O     0.56012   0.46042   0.25000   0.00000  Uiso   1.00
O324   O     0.56012   0.53958   0.25000   0.00000  Uiso   1.00
O325   O     0.43988   0.46042   0.24999   0.00000  Uiso   1.00
O326   O     0.49999   0.53960   0.18513   0.00000  Uiso   1.00
O327   O     0.50001   0.46040   0.31487   0.00000  Uiso   1.00
O328   O     0.50001   0.53960   0.31487   0.00000  Uiso   1.00
O329   O     0.49999   0.46040   0.18513   0.00000  Uiso   1.00
O330   O     0.37258   0.37661   0.23795   0.00000  Uiso   1.00
C331   C     0.75407   0.50012   0.24642   0.00000  Uiso   1.00
C332   C     0.70940   0.50036   0.23943   0.00000  Uiso   1.00
C333   C     0.81224   0.35799   0.21844   0.00000  Uiso   1.00
C334   C     0.85488   0.64197   0.28124   0.00000  Uiso   1.00
C335   C     0.85485   0.35831   0.28126   0.00000  Uiso   1.00
C336   C     0.81213   0.64169   0.21852   0.00000  Uiso   1.00
C337   C     0.83453   0.49979   0.16439   0.00000  Uiso   1.00
C338   C     0.83212   0.50022   0.33562   0.00000  Uiso   1.00
C339   C     0.85275   0.46589   0.40635   0.00000  Uiso   1.00
C340   C     0.81381   0.53406   0.09369   0.00000  Uiso   1.00
C341   C     0.83096   0.50067   0.38394   0.00000  Uiso   1.00
C342   C     0.91256   0.49984   0.24655   0.00000  Uiso   1.00
C343   C     0.83567   0.49935   0.11609   0.00000  Uiso   1.00
C344   C     0.80882   0.53509   0.40754   0.00000  Uiso   1.00
C345   C     0.85789   0.46500   0.09249   0.00000  Uiso   1.00
C346   C     0.81009   0.53521   0.45417   0.00000  Uiso   1.00
C347   C     0.85656   0.46482   0.04586   0.00000  Uiso   1.00
C348   C     0.83269   0.50009   0.47667   0.00000  Uiso   1.00
C349   C     0.83392   0.49992   0.02337   0.00000  Uiso   1.00
C350   C     0.85392   0.46503   0.45253   0.00000  Uiso   1.00
C351   C     0.81266   0.53495   0.04751   0.00000  Uiso   1.00
C352   C     0.78933   0.56972   0.47885   0.00000  Uiso   1.00
C353   C     0.79050   0.56988   0.02491   0.00000  Uiso   1.00
C354   C     0.87730   0.43029   0.02120   0.00000  Uiso   1.00
C355   C     0.71025   0.41411   0.21927   0.00000  Uiso   1.00
C356   C     0.95584   0.58578   0.21953   0.00000  Uiso   1.00
C357   C     0.95837   0.41043   0.23871   0.00000  Uiso   1.00
C358   C     0.70834   0.58916   0.23570   0.00000  Uiso   1.00
C359   C     0.87607   0.43009   0.47514   0.00000  Uiso   1.00
C360   C     0.68840   0.45728   0.23426   0.00000  Uiso   1.00
C361   C     0.97805   0.54250   0.23358   0.00000  Uiso   1.00
C362   C     0.97922   0.45653   0.23833   0.00000  Uiso   1.00
C363   C     0.68733   0.54327   0.23729   0.00000  Uiso   1.00
C364   C     0.95713   0.49951   0.23951   0.00000  Uiso   1.00
Cl365  Cl    0.77770   0.57607   0.37872   0.00000  Uiso   1.00
Cl366  Cl    0.88919   0.42421   0.12131   0.00000  Uiso   1.00
Cl367  Cl    0.76365   0.61503   0.05272   0.00000  Uiso   1.00
Cl368  Cl    0.90285   0.38488   0.44735   0.00000  Uiso   1.00
Cu369  Cu    0.83333   0.54689   0.25000   0.00000  Uiso   1.00
Cu370  Cu    0.83333   0.45311   0.25000   0.00000  Uiso   1.00
H371   H     0.86937   0.43993   0.38719   0.00000  Uiso   1.00
H372   H     0.93303   0.58355   0.19342   0.00000  Uiso   1.00
H373   H     0.94030   0.39921   0.21036   0.00000  Uiso   1.00
H374   H     0.72216   0.60073   0.20509   0.00000  Uiso   1.00
H375   H     0.79713   0.55997   0.11286   0.00000  Uiso   1.00
H376   H     0.77209   0.59725   0.46276   0.00000  Uiso   1.00
H377   H     0.89454   0.40277   0.03729   0.00000  Uiso   1.00
H378   H     0.79561   0.37655   0.19298   0.00000  Uiso   1.00
H379   H     0.87221   0.62332   0.30616   0.00000  Uiso   1.00
H380   H     0.87217   0.37717   0.30621   0.00000  Uiso   1.00
H381   H     0.79521   0.62285   0.19325   0.00000  Uiso   1.00
H382   H     0.73131   0.41631   0.19177   0.00000  Uiso   1.00
N383   N     0.83333   0.61736   0.25000   0.00000  Uiso   1.00
N384   N     0.83333   0.38264   0.25000   0.00000  Uiso   1.00
O385   O     0.77321   0.53958   0.24999   0.00000  Uiso   1.00
O386   O     0.96184   0.62360   0.23761   0.00000  Uiso   1.00
O387   O     0.96041   0.38560   0.27147   0.00000  Uiso   1.00
O388   O     0.71079   0.61360   0.26899   0.00000  Uiso   1.00
O389   O     0.89345   0.46042   0.25000   0.00000  Uiso   1.00
O390   O     0.89345   0.53958   0.25000   0.00000  Uiso   1.00
O391   O     0.77321   0.46042   0.24999   0.00000  Uiso   1.00
O392   O     0.83332   0.53960   0.18513   0.00000  Uiso   1.00
O393   O     0.83334   0.46040   0.31487   0.00000  Uiso   1.00
O394   O     0.83334   0.53960   0.31487   0.00000  Uiso   1.00
O395   O     0.83332   0.46040   0.18513   0.00000  Uiso   1.00
O396   O     0.70592   0.37661   0.23795   0.00000  Uiso   1.00
C397   C     0.08741   0.83346   0.24642   0.00000  Uiso   1.00
C398   C     0.04274   0.83369   0.23943   0.00000  Uiso   1.00
C399   C     0.14557   0.69133   0.21844   0.00000  Uiso   1.00
C400   C     0.18821   0.97530   0.28124   0.00000  Uiso   1.00
C401   C     0.18819   0.69164   0.28126   0.00000  Uiso   1.00
C402   C     0.14546   0.97502   0.21852   0.00000  Uiso   1.00
C403   C     0.16786   0.83312   0.16439   0.00000  Uiso   1.00
C404   C     0.16545   0.83355   0.33562   0.00000  Uiso   1.00
C405   C     0.18608   0.79923   0.40635   0.00000  Uiso   1.00
C406   C     0.14714   0.86739   0.09369   0.00000  Uiso   1.00
C407   C     0.16430   0.83400   0.38394   0.00000  Uiso   1.00
C408   C     0.24590   0.83317   0.24655   0.00000  Uiso   1.00
C409   C     0.16901   0.83268   0.11609   0.00000  Uiso   1.00
C410   C     0.14215   0.86842   0.40754   0.00000  Uiso   1.00
C411   C     0.19122   0.79833   0.09249   0.00000  Uiso   1.00
C412   C     0.14342   0.86855   0.45417   0.00000  Uiso   1.00
C413   C     0.18989   0.79816   0.04586   0.00000  Uiso   1.00
C414   C     0.16602   0.83342   0.47667   0.00000  Uiso   1.00
C415   C     0.16726   0.83325   0.02337   0.00000  Uiso   1.00
C416   C     0.18725   0.79836   0.45253   0.00000  Uiso   1.00
C417   C     0.14599   0.86828   0.04751   0.00000  Uiso   1.00
C418   C     0.12266   0.90306   0.47885   0.00000  Uiso   1.00
C419   C     0.12383   0.90321   0.02491   0.00000  Uiso   1.00
C420   C     0.21063   0.76363   0.02120   0.00000  Uiso   1.00
C421   C     0.04358   0.74744   0.21927   0.00000  Uiso   1.00
C422   C     0.28918   0.91911   0.21953   0.00000  Uiso   1.00
C423   C     0.29171   0.74376   0.23871   0.00000  Uiso   1.00
C424   C     0.04167   0.92249   0.23570   0.00000  Uiso   1.00
C425   C     0.20940   0.76342   0.47514   0.00000  Uiso   1.00
C426   C     0.02174   0.79062   0.23426   0.00000  Uiso   1.00
C427   C     0.31138   0.87583   0.23358   0.00000  Uiso   1.00
C428   C     0.31256   0.78986   0.23833   0.00000  Uiso   1.00
C429   C     0.02067   0.87660   0.23729   0.00000  Uiso   1.00
C430   C     0.29046   0.83284   0.23951   0.00000  Uiso   1.00
Cl431  Cl    0.11104   0.90940   0.37872   0.00000  Uiso   1.00
Cl432  Cl    0.22253   0.75754   0.12131   0.00000  Uiso   1.00
Cl433  Cl    0.09698   0.94836   0.05272   0.00000  Uiso   1.00
Cl434  Cl    0.23618   0.71821   0.44735   0.00000  Uiso   1.00
Cu435  Cu    0.16667   0.88022   0.25000   0.00000  Uiso   1.00
Cu436  Cu    0.16667   0.78645   0.25000   0.00000  Uiso   1.00
H437   H     0.20271   0.77326   0.38719   0.00000  Uiso   1.00
H438   H     0.26636   0.91688   0.19342   0.00000  Uiso   1.00
H439   H     0.27363   0.73254   0.21036   0.00000  Uiso   1.00
H440   H     0.05549   0.93407   0.20509   0.00000  Uiso   1.00
H441   H     0.13046   0.89331   0.11286   0.00000  Uiso   1.00
H442   H     0.10542   0.93058   0.46276   0.00000  Uiso   1.00
H443   H     0.22787   0.73611   0.03729   0.00000  Uiso   1.00
H444   H     0.12894   0.70989   0.19298   0.00000  Uiso   1.00
H445   H     0.20554   0.95665   0.30616   0.00000  Uiso   1.00
H446   H     0.20550   0.71050   0.30621   0.00000  Uiso   1.00
H447   H     0.12855   0.95618   0.19325   0.00000  Uiso   1.00
H448   H     0.06464   0.74965   0.19177   0.00000  Uiso   1.00
N449   N     0.16667   0.95069   0.25000   0.00000  Uiso   1.00
N450   N     0.16667   0.71598   0.25000   0.00000  Uiso   1.00
O451   O     0.10655   0.87291   0.24999   0.00000  Uiso   1.00
O452   O     0.29517   0.95693   0.23761   0.00000  Uiso   1.00
O453   O     0.29375   0.71893   0.27147   0.00000  Uiso   1.00
O454   O     0.04412   0.94693   0.26899   0.00000  Uiso   1.00
O455   O     0.22679   0.79375   0.25000   0.00000  Uiso   1.00
O456   O     0.22679   0.87291   0.25000   0.00000  Uiso   1.00
O457   O     0.10655   0.79375   0.24999   0.00000  Uiso   1.00
O458   O     0.16666   0.87293   0.18513   0.00000  Uiso   1.00
O459   O     0.16668   0.79373   0.31487   0.00000  Uiso   1.00
O460   O     0.16668   0.87293   0.31487   0.00000  Uiso   1.00
O461   O     0.16666   0.79373   0.18513   0.00000  Uiso   1.00
O462   O     0.03925   0.70994   0.23795   0.00000  Uiso   1.00
C463   C     0.42074   0.83346   0.24642   0.00000  Uiso   1.00
C464   C     0.37607   0.83369   0.23943   0.00000  Uiso   1.00
C465   C     0.47890   0.69133   0.21844   0.00000  Uiso   1.00
C466   C     0.52155   0.97530   0.28124   0.00000  Uiso   1.00
C467   C     0.52152   0.69164   0.28126   0.00000  Uiso   1.00
C468   C     0.47879   0.97502   0.21852   0.00000  Uiso   1.00
C469   C     0.50120   0.83312   0.16439   0.00000  Uiso   1.00
C470   C     0.49879   0.83355   0.33562   0.00000  Uiso   1.00
C471   C     0.51941   0.79923   0.40635   0.00000  Uiso   1.00
C472   C     0.48048   0.86739   0.09369   0.00000  Uiso   1.00
C473   C     0.49763   0.83400   0.38394   0.00000  Uiso   1.00
C474   C     0.57923   0.83317   0.24655   0.00000  Uiso   1.00
C475   C     0.50234   0.83268   0.11609   0.00000  Uiso   1.00
C476   C     0.47549   0.86842   0.40754   0.00000  Uiso   1.00
C477   C     0.52455   0.79833   0.09249   0.00000  Uiso   1.00
C478   C     0.47676   0.86855   0.45417   0.00000  Uiso   1.00
C479   C     0.52322   0.79816   0.04586   0.00000  Uiso   1.00
C480   C     0.49935   0.83342   0.47667   0.00000  Uiso   1.00
C481   C     0.50059   0.83325   0.02337   0.00000  Uiso   1.00
C482   C     0.52058   0.79836   0.45253   0.00000  Uiso   1.00
C483   C     0.47933   0.86828   0.04751   0.00000  Uiso   1.00
C484   C     0.45600   0.90306   0.47885   0.00000  Uiso   1.00
C485   C     0.45717   0.90321   0.02491   0.00000  Uiso   1.00
C486   C     0.54396   0.76363   0.02120   0.00000  Uiso   1.00
C487   C     0.37692   0.74744   0.21927   0.00000  Uiso   1.00
C488   C     0.62251   0.91911   0.21953   0.00000  Uiso   1.00
C489   C     0.62504   0.74376   0.23871   0.00000  Uiso   1.00
C490   C     0.37501   0.92249   0.23570   0.00000  Uiso   1.00
C491   C     0.54273   0.76342   0.47514   0.00000  Uiso   1.00
C492   C     0.35507   0.79062   0.23426   0.00000  Uiso   1.00
C493   C     0.64472   0.87583   0.23358   0.00000  Uiso   1.00
C494   C     0.64589   0.78986   0.23833   0.00000  Uiso   1.00
C495   C     0.35400   0.87660   0.23729   0.00000  Uiso   1.00
C496   C     0.62380   0.83284   0.23951   0.00000  Uiso   1.00
Cl497  Cl    0.44437   0.90940   0.37872   0.00000  Uiso   1.00
Cl498  Cl    0.55586   0.75754   0.12131   0.00000  Uiso   1.00
Cl499  Cl    0.43031   0.94836   0.05272   0.00000  Uiso   1.00
Cl500  Cl    0.56952   0.71821   0.44735   0.00000  Uiso   1.00
Cu501  Cu    0.50000   0.88022   0.25000   0.00000  Uiso   1.00
Cu502  Cu    0.50000   0.78645   0.25000   0.00000  Uiso   1.00
H503   H     0.53604   0.77326   0.38719   0.00000  Uiso   1.00
H504   H     0.59969   0.91688   0.19342   0.00000  Uiso   1.00
H505   H     0.60697   0.73254   0.21036   0.00000  Uiso   1.00
H506   H     0.38883   0.93407   0.20509   0.00000  Uiso   1.00
H507   H     0.46380   0.89331   0.11286   0.00000  Uiso   1.00
H508   H     0.43875   0.93058   0.46276   0.00000  Uiso   1.00
H509   H     0.56121   0.73611   0.03729   0.00000  Uiso   1.00
H510   H     0.46228   0.70989   0.19298   0.00000  Uiso   1.00
H511   H     0.53888   0.95665   0.30616   0.00000  Uiso   1.00
H512   H     0.53883   0.71050   0.30621   0.00000  Uiso   1.00
H513   H     0.46188   0.95618   0.19325   0.00000  Uiso   1.00
H514   H     0.39798   0.74965   0.19177   0.00000  Uiso   1.00
N515   N     0.50000   0.95069   0.25000   0.00000  Uiso   1.00
N516   N     0.50000   0.71598   0.25000   0.00000  Uiso   1.00
O517   O     0.43988   0.87291   0.24999   0.00000  Uiso   1.00
O518   O     0.62850   0.95693   0.23761   0.00000  Uiso   1.00
O519   O     0.62708   0.71893   0.27147   0.00000  Uiso   1.00
O520   O     0.37745   0.94693   0.26899   0.00000  Uiso   1.00
O521   O     0.56012   0.79375   0.25000   0.00000  Uiso   1.00
O522   O     0.56012   0.87291   0.25000   0.00000  Uiso   1.00
O523   O     0.43988   0.79375   0.24999   0.00000  Uiso   1.00
O524   O     0.49999   0.87293   0.18513   0.00000  Uiso   1.00
O525   O     0.50001   0.79373   0.31487   0.00000  Uiso   1.00
O526   O     0.50001   0.87293   0.31487   0.00000  Uiso   1.00
O527   O     0.49999   0.79373   0.18513   0.00000  Uiso   1.00
O528   O     0.37258   0.70994   0.23795   0.00000  Uiso   1.00
C529   C     0.75407   0.83346   0.24642   0.00000  Uiso   1.00
C530   C     0.70940   0.83369   0.23943   0.00000  Uiso   1.00
C531   C     0.81224   0.69133   0.21844   0.00000  Uiso   1.00
C532   C     0.85488   0.97530   0.28124   0.00000  Uiso   1.00
C533   C     0.85485   0.69164   0.28126   0.00000  Uiso   1.00
C534   C     0.81213   0.97502   0.21852   0.00000  Uiso   1.00
C535   C     0.83453   0.83312   0.16439   0.00000  Uiso   1.00
C536   C     0.83212   0.83355   0.33562   0.00000  Uiso   1.00
C537   C     0.85275   0.79923   0.40635   0.00000  Uiso   1.00
C538   C     0.81381   0.86739   0.09369   0.00000  Uiso   1.00
C539   C     0.83096   0.83400   0.38394   0.00000  Uiso   1.00
C540   C     0.91256   0.83317   0.24655   0.00000  Uiso   1.00
C541   C     0.83567   0.83268   0.11609   0.00000  Uiso   1.00
C542   C     0.80882   0.86842   0.40754   0.00000  Uiso   1.00
C543   C     0.85789   0.79833   0.09249   0.00000  Uiso   1.00
C544   C     0.81009   0.86855   0.45417   0.00000  Uiso   1.00
C545   C     0.85656   0.79816   0.04586   0.00000  Uiso   1.00
C546   C     0.83269   0.83342   0.47667   0.00000  Uiso   1.00
C547   C     0.83392   0.83325   0.02337   0.00000  Uiso   1.00
C548   C     0.85392   0.79836   0.45253   0.00000  Uiso   1.00
C549   C     0.81266   0.86828   0.04751   0.00000  Uiso   1.00
C550   C     0.78933   0.90306   0.47885   0.00000  Uiso   1.00
C551   C     0.79050   0.90321   0.02491   0.00000  Uiso   1.00
C552   C     0.87730   0.76363   0.02120   0.00000  Uiso   1.00
C553   C     0.71025   0.74744   0.21927   0.00000  Uiso   1.00
C554   C     0.95584   0.91911   0.21953   0.00000  Uiso   1.00
C555   C     0.95837   0.74376   0.23871   0.00000  Uiso   1.00
C556   C     0.70834   0.92249   0.23570   0.00000  Uiso   1.00
C557   C     0.87607   0.76342   0.47514   0.00000  Uiso   1.00
C558   C     0.68840   0.79062   0.23426   0.00000  Uiso   1.00
C559   C     0.97805   0.87583   0.23358   0.00000  Uiso   1.00
C560   C     0.97922   0.78986   0.23833   0.00000  Uiso   1.00
C561   C     0.68733   0.87660   0.23729   0.00000  Uiso   1.00
C562   C     0.95713   0.83284   0.23951   0.00000  Uiso   1.00
Cl563  Cl    0.77770   0.90940   0.37872   0.00000  Uiso   1.00
Cl564  Cl    0.88919   0.75754   0.12131   0.00000  Uiso   1.00
Cl565  Cl    0.76365   0.94836   0.05272   0.00000  Uiso   1.00
Cl566  Cl    0.90285   0.71821   0.44735   0.00000  Uiso   1.00
Cu567  Cu    0.83333   0.88022   0.25000   0.00000  Uiso   1.00
Cu568  Cu    0.83333   0.78645   0.25000   0.00000  Uiso   1.00
H569   H     0.86937   0.77326   0.38719   0.00000  Uiso   1.00
H570   H     0.93303   0.91688   0.19342   0.00000  Uiso   1.00
H571   H     0.94030   0.73254   0.21036   0.00000  Uiso   1.00
H572   H     0.72216   0.93407   0.20509   0.00000  Uiso   1.00
H573   H     0.79713   0.89331   0.11286   0.00000  Uiso   1.00
H574   H     0.77209   0.93058   0.46276   0.00000  Uiso   1.00
H575   H     0.89454   0.73611   0.03729   0.00000  Uiso   1.00
H576   H     0.79561   0.70989   0.19298   0.00000  Uiso   1.00
H577   H     0.87221   0.95665   0.30616   0.00000  Uiso   1.00
H578   H     0.87217   0.71050   0.30621   0.00000  Uiso   1.00
H579   H     0.79521   0.95618   0.19325   0.00000  Uiso   1.00
H580   H     0.73131   0.74965   0.19177   0.00000  Uiso   1.00
N581   N     0.83333   0.95069   0.25000   0.00000  Uiso   1.00
N582   N     0.83333   0.71598   0.25000   0.00000  Uiso   1.00
O583   O     0.77321   0.87291   0.24999   0.00000  Uiso   1.00
O584   O     0.96184   0.95693   0.23761   0.00000  Uiso   1.00
O585   O     0.96041   0.71893   0.27147   0.00000  Uiso   1.00
O586   O     0.71079   0.94693   0.26899   0.00000  Uiso   1.00
O587   O     0.89345   0.79375   0.25000   0.00000  Uiso   1.00
O588   O     0.89345   0.87291   0.25000   0.00000  Uiso   1.00
O589   O     0.77321   0.79375   0.24999   0.00000  Uiso   1.00
O590   O     0.83332   0.87293   0.18513   0.00000  Uiso   1.00
O591   O     0.83334   0.79373   0.31487   0.00000  Uiso   1.00
O592   O     0.83334   0.87293   0.31487   0.00000  Uiso   1.00
O593   O     0.83332   0.79373   0.18513   0.00000  Uiso   1.00
O594   O     0.70592   0.70994   0.23795   0.00000  Uiso   1.00
C595   C     0.08741   0.16679   0.74642   0.00000  Uiso   1.00
C596   C     0.04274   0.16703   0.73943   0.00000  Uiso   1.00
C597   C     0.14557   0.02466   0.71844   0.00000  Uiso   1.00
C598   C     0.18821   0.30864   0.78124   0.00000  Uiso   1.00
C599   C     0.18819   0.02497   0.78126   0.00000  Uiso   1.00
C600   C     0.14546   0.30836   0.71852   0.00000  Uiso   1.00
C601   C     0.16786   0.16645   0.66439   0.00000  Uiso   1.00
C602   C     0.16545   0.16688   0.83562   0.00000  Uiso   1.00
C603   C     0.18608   0.13256   0.90635   0.00000  Uiso   1.00
C604   C     0.14714   0.20073   0.59369   0.00000  Uiso   1.00
C605   C     0.16430   0.16733   0.88394   0.00000  Uiso   1.00
C606   C     0.24590   0.16650   0.74655   0.00000  Uiso   1.00
C607   C     0.16901   0.16602   0.61609   0.00000  Uiso   1.00
C608   C     0.14215   0.20176   0.90754   0.00000  Uiso   1.00
C609   C     0.19122   0.13166   0.59249   0.00000  Uiso   1.00
C610   C     0.14342   0.20188   0.95417   0.00000  Uiso   1.00
C611   C     0.18989   0.13149   0.54586   0.00000  Uiso   1.00
C612   C     0.16602   0.16675   0.97667   0.00000  Uiso   1.00
C613   C     0.16726   0.16659   0.52337   0.00000  Uiso   1.00
C614   C     0.18725   0.13169   0.95253   0.00000  Uiso   1.00
C615   C     0.14599   0.20162   0.54751   0.00000  Uiso   1.00
C616   C     0.12266   0.23639   0.97885   0.00000  Uiso   1.00
C617   C     0.12383   0.23655   0.52491   0.00000  Uiso   1.00
C618   C     0.21063   0.09696   0.52120   0.00000  Uiso   1.00
C619   C     0.04358   0.08077   0.71927   0.00000  Uiso   1.00
C620   C     0.28918   0.25245   0.71953   0.00000  Uiso   1.00
C621   C     0.29171   0.07709   0.73871   0.00000  Uiso   1.00
C622   C     0.04167   0.25583   0.73570   0.00000  Uiso   1.00
C623   C     0.20940   0.09676   0.97514   0.00000  Uiso   1.00
C624   C     0.02174   0.12395   0.73426   0.00000  Uiso   1.00
C625   C     0.31138   0.20916   0.73358   0.00000  Uiso   1.00
C626   C     0.31256   0.12320   0.73833   0.00000  Uiso   1.00
C627   C     0.02067   0.20993   0.73729   0.00000  Uiso   1.00
C628   C     0.29046   0.16618   0.73951   0.00000  Uiso   1.00
Cl629  Cl    0.11104   0.24274   0.87872   0.00000  Uiso   1.00
Cl630  Cl    0.22253   0.09087   0.62131   0.00000  Uiso   1.00
Cl631  Cl    0.09698   0.28170   0.55272   0.00000  Uiso   1.00
Cl632  Cl    0.23618   0.05154   0.94735   0.00000  Uiso   1.00
Cu633  Cu    0.16667   0.21355   0.75000   0.00000  Uiso   1.00
Cu634  Cu    0.16667   0.11978   0.75000   0.00000  Uiso   1.00
H635   H     0.20271   0.10660   0.88719   0.00000  Uiso   1.00
H636   H     0.26636   0.25021   0.69342   0.00000  Uiso   1.00
H637   H     0.27363   0.06588   0.71036   0.00000  Uiso   1.00
H638   H     0.05549   0.26740   0.70509   0.00000  Uiso   1.00
H639   H     0.13046   0.22664   0.61286   0.00000  Uiso   1.00
H640   H     0.10542   0.26392   0.96276   0.00000  Uiso   1.00
H641   H     0.22787   0.06944   0.53729   0.00000  Uiso   1.00
H642   H     0.12894   0.04322   0.69298   0.00000  Uiso   1.00
H643   H     0.20554   0.28999   0.80616   0.00000  Uiso   1.00
H644   H     0.20550   0.04383   0.80621   0.00000  Uiso   1.00
H645   H     0.12855   0.28952   0.69325   0.00000  Uiso   1.00
H646   H     0.06464   0.08298   0.69177   0.00000  Uiso   1.00
N647   N     0.16667   0.28402   0.75000   0.00000  Uiso   1.00
N648   N     0.16667   0.04931   0.75000   0.00000  Uiso   1.00
O649   O     0.10655   0.20625   0.74999   0.00000  Uiso   1.00
O650   O     0.29517   0.29027   0.73761   0.00000  Uiso   1.00
O651   O     0.29375   0.05226   0.77147   0.00000  Uiso   1.00
O652   O     0.04412   0.28027   0.76899   0.00000  Uiso   1.00
O653   O     0.22679   0.12709   0.75000   0.00000  Uiso   1.00
O654   O     0.22679   0.20625   0.75000   0.00000  Uiso   1.00
O655   O     0.10655   0.12709   0.74999   0.00000  Uiso   1.00
O656   O     0.16666   0.20627   0.68513   0.00000  Uiso   1.00
O657   O     0.16668   0.12707   0.81487   0.00000  Uiso   1.00
O658   O     0.16668   0.20627   0.81487   0.00000  Uiso   1.00
O659   O     0.16666   0.12707   0.68513   0.00000  Uiso   1.00
O660   O     0.03925   0.04328   0.73795   0.00000  Uiso   1.00
C661   C     0.42074   0.16679   0.74642   0.00000  Uiso   1.00
C662   C     0.37607   0.16703   0.73943   0.00000  Uiso   1.00
C663   C     0.47890   0.02466   0.71844   0.00000  Uiso   1.00
C664   C     0.52155   0.30864   0.78124   0.00000  Uiso   1.00
C665   C     0.52152   0.02497   0.78126   0.00000  Uiso   1.00
C666   C     0.47879   0.30836   0.71852   0.00000  Uiso   1.00
C667   C     0.50120   0.16645   0.66439   0.00000  Uiso   1.00
C668   C     0.49879   0.16688   0.83562   0.00000  Uiso   1.00
C669   C     0.51941   0.13256   0.90635   0.00000  Uiso   1.00
C670   C     0.48048   0.20073   0.59369   0.00000  Uiso   1.00
C671   C     0.49763   0.16733   0.88394   0.00000  Uiso   1.00
C672   C     0.57923   0.16650   0.74655   0.00000  Uiso   1.00
C673   C     0.50234   0.16602   0.61609   0.00000  Uiso   1.00
C674   C     0.47549   0.20176   0.90754   0.00000  Uiso   1.00
C675   C     0.52455   0.13166   0.59249   0.00000  Uiso   1.00
C676   C     0.47676   0.20188   0.95417   0.00000  Uiso   1.00
C677   C     0.52322   0.13149   0.54586   0.00000  Uiso   1.00
C678   C     0.49935   0.16675   0.97667   0.00000  Uiso   1.00
C679   C     0.50059   0.16659   0.52337   0.00000  Uiso   1.00
C680   C     0.52058   0.13169   0.95253   0.00000  Uiso   1.00
C681   C     0.47933   0.20162   0.54751   0.00000  Uiso   1.00
C682   C     0.45600   0.23639   0.97885   0.00000  Uiso   1.00
C683   C     0.45717   0.23655   0.52491   0.00000  Uiso   1.00
C684   C     0.54396   0.09696   0.52120   0.00000  Uiso   1.00
C685   C     0.37692   0.08077   0.71927   0.00000  Uiso   1.00
C686   C     0.62251   0.25245   0.71953   0.00000  Uiso   1.00
C687   C     0.62504   0.07709   0.73871   0.00000  Uiso   1.00
C688   C     0.37501   0.25583   0.73570   0.00000  Uiso   1.00
C689   C     0.54273   0.09676   0.97514   0.00000  Uiso   1.00
C690   C     0.35507   0.12395   0.73426   0.00000  Uiso   1.00
C691   C     0.64472   0.20916   0.73358   0.00000  Uiso   1.00
C692   C     0.64589   0.12320   0.73833   0.00000  Uiso   1.00
C693   C     0.35400   0.20993   0.73729   0.00000  Uiso   1.00
C694   C     0.62380   0.16618   0.73951   0.00000  Uiso   1.00
Cl695  Cl    0.44437   0.24274   0.87872   0.00000  Uiso   1.00
Cl696  Cl    0.55586   0.09087   0.62131   0.00000  Uiso   1.00
Cl697  Cl    0.43031   0.28170   0.55272   0.00000  Uiso   1.00
Cl698  Cl    0.56952   0.05154   0.94735   0.00000  Uiso   1.00
Cu699  Cu    0.50000   0.21355   0.75000   0.00000  Uiso   1.00
Cu700  Cu    0.50000   0.11978   0.75000   0.00000  Uiso   1.00
H701   H     0.53604   0.10660   0.88719   0.00000  Uiso   1.00
H702   H     0.59969   0.25021   0.69342   0.00000  Uiso   1.00
H703   H     0.60697   0.06588   0.71036   0.00000  Uiso   1.00
H704   H     0.38883   0.26740   0.70509   0.00000  Uiso   1.00
H705   H     0.46380   0.22664   0.61286   0.00000  Uiso   1.00
H706   H     0.43875   0.26392   0.96276   0.00000  Uiso   1.00
H707   H     0.56121   0.06944   0.53729   0.00000  Uiso   1.00
H708   H     0.46228   0.04322   0.69298   0.00000  Uiso   1.00
H709   H     0.53888   0.28999   0.80616   0.00000  Uiso   1.00
H710   H     0.53883   0.04383   0.80621   0.00000  Uiso   1.00
H711   H     0.46188   0.28952   0.69325   0.00000  Uiso   1.00
H712   H     0.39798   0.08298   0.69177   0.00000  Uiso   1.00
N713   N     0.50000   0.28402   0.75000   0.00000  Uiso   1.00
N714   N     0.50000   0.04931   0.75000   0.00000  Uiso   1.00
O715   O     0.43988   0.20625   0.74999   0.00000  Uiso   1.00
O716   O     0.62850   0.29027   0.73761   0.00000  Uiso   1.00
O717   O     0.62708   0.05226   0.77147   0.00000  Uiso   1.00
O718   O     0.37745   0.28027   0.76899   0.00000  Uiso   1.00
O719   O     0.56012   0.12709   0.75000   0.00000  Uiso   1.00
O720   O     0.56012   0.20625   0.75000   0.00000  Uiso   1.00
O721   O     0.43988   0.12709   0.74999   0.00000  Uiso   1.00
O722   O     0.49999   0.20627   0.68513   0.00000  Uiso   1.00
O723   O     0.50001   0.12707   0.81487   0.00000  Uiso   1.00
O724   O     0.50001   0.20627   0.81487   0.00000  Uiso   1.00
O725   O     0.49999   0.12707   0.68513   0.00000  Uiso   1.00
O726   O     0.37258   0.04328   0.73795   0.00000  Uiso   1.00
C727   C     0.75407   0.16679   0.74642   0.00000  Uiso   1.00
C728   C     0.70940   0.16703   0.73943   0.00000  Uiso   1.00
C729   C     0.81224   0.02466   0.71844   0.00000  Uiso   1.00
C730   C     0.85488   0.30864   0.78124   0.00000  Uiso   1.00
C731   C     0.85485   0.02497   0.78126   0.00000  Uiso   1.00
C732   C     0.81213   0.30836   0.71852   0.00000  Uiso   1.00
C733   C     0.83453   0.16645   0.66439   0.00000  Uiso   1.00
C734   C     0.83212   0.16688   0.83562   0.00000  Uiso   1.00
C735   C     0.85275   0.13256   0.90635   0.00000  Uiso   1.00
C736   C     0.81381   0.20073   0.59369   0.00000  Uiso   1.00
C737   C     0.83096   0.16733   0.88394   0.00000  Uiso   1.00
C738   C     0.91256   0.16650   0.74655   0.00000  Uiso   1.00
C739   C     0.83567   0.16602   0.61609   0.00000  Uiso   1.00
C740   C     0.80882   0.20176   0.90754   0.00000  Uiso   1.00
C741   C     0.85789   0.13166   0.59249   0.00000  Uiso   1.00
C742   C     0.81009   0.20188   0.95417   0.00000  Uiso   1.00
C743   C     0.85656   0.13149   0.54586   0.00000  Uiso   1.00
C744   C     0.83269   0.16675   0.97667   0.00000  Uiso   1.00
C745   C     0.83392   0.16659   0.52337   0.00000  Uiso   1.00
C746   C     0.85392   0.13169   0.95253   0.00000  Uiso   1.00
C747   C     0.81266   0.20162   0.54751   0.00000  Uiso   1.00
C748   C     0.78933   0.23639   0.97885   0.00000  Uiso   1.00
C749   C     0.79050   0.23655   0.52491   0.00000  Uiso   1.00
C750   C     0.87730   0.09696   0.52120   0.00000  Uiso   1.00
C751   C     0.71025   0.08077   0.71927   0.00000  Uiso   1.00
C752   C     0.95584   0.25245   0.71953   0.00000  Uiso   1.00
C753   C     0.95837   0.07709   0.73871   0.00000  Uiso   1.00
C754   C     0.70834   0.25583   0.73570   0.00000  Uiso   1.00
C755   C     0.87607   0.09676   0.97514   0.00000  Uiso   1.00
C756   C     0.68840   0.12395   0.73426   0.00000  Uiso   1.00
C757   C     0.97805   0.20916   0.73358   0.00000  Uiso   1.00
C758   C     0.97922   0.12320   0.73833   0.00000  Uiso   1.00
C759   C     0.68733   0.20993   0.73729   0.00000  Uiso   1.00
C760   C     0.95713   0.16618   0.73951   0.00000  Uiso   1.00
Cl761  Cl    0.77770   0.24274   0.87872   0.00000  Uiso   1.00
Cl762  Cl    0.88919   0.09087   0.62131   0.00000  Uiso   1.00
Cl763  Cl    0.76365   0.28170   0.55272   0.00000  Uiso   1.00
Cl764  Cl    0.90285   0.05154   0.94735   0.00000  Uiso   1.00
Cu765  Cu    0.83333   0.21355   0.75000   0.00000  Uiso   1.00
Cu766  Cu    0.83333   0.11978   0.75000   0.00000  Uiso   1.00
H767   H     0.86937   0.10660   0.88719   0.00000  Uiso   1.00
H768   H     0.93303   0.25021   0.69342   0.00000  Uiso   1.00
H769   H     0.94030   0.06588   0.71036   0.00000  Uiso   1.00
H770   H     0.72216   0.26740   0.70509   0.00000  Uiso   1.00
H771   H     0.79713   0.22664   0.61286   0.00000  Uiso   1.00
H772   H     0.77209   0.26392   0.96276   0.00000  Uiso   1.00
H773   H     0.89454   0.06944   0.53729   0.00000  Uiso   1.00
H774   H     0.79561   0.04322   0.69298   0.00000  Uiso   1.00
H775   H     0.87221   0.28999   0.80616   0.00000  Uiso   1.00
H776   H     0.87217   0.04383   0.80621   0.00000  Uiso   1.00
H777   H     0.79521   0.28952   0.69325   0.00000  Uiso   1.00
H778   H     0.73131   0.08298   0.69177   0.00000  Uiso   1.00
N779   N     0.83333   0.28402   0.75000   0.00000  Uiso   1.00
N780   N     0.83333   0.04931   0.75000   0.00000  Uiso   1.00
O781   O     0.77321   0.20625   0.74999   0.00000  Uiso   1.00
O782   O     0.96184   0.29027   0.73761   0.00000  Uiso   1.00
O783   O     0.96041   0.05226   0.77147   0.00000  Uiso   1.00
O784   O     0.71079   0.28027   0.76899   0.00000  Uiso   1.00
O785   O     0.89345   0.12709   0.75000   0.00000  Uiso   1.00
O786   O     0.89345   0.20625   0.75000   0.00000  Uiso   1.00
O787   O     0.77321   0.12709   0.74999   0.00000  Uiso   1.00
O788   O     0.83332   0.20627   0.68513   0.00000  Uiso   1.00
O789   O     0.83334   0.12707   0.81487   0.00000  Uiso   1.00
O790   O     0.83334   0.20627   0.81487   0.00000  Uiso   1.00
O791   O     0.83332   0.12707   0.68513   0.00000  Uiso   1.00
O792   O     0.70592   0.04328   0.73795   0.00000  Uiso   1.00
C793   C     0.08741   0.50012   0.74642   0.00000  Uiso   1.00
C794   C     0.04274   0.50036   0.73943   0.00000  Uiso   1.00
C795   C     0.14557   0.35799   0.71844   0.00000  Uiso   1.00
C796   C     0.18821   0.64197   0.78124   0.00000  Uiso   1.00
C797   C     0.18819   0.35831   0.78126   0.00000  Uiso   1.00
C798   C     0.14546   0.64169   0.71852   0.00000  Uiso   1.00
C799   C     0.16786   0.49979   0.66439   0.00000  Uiso   1.00
C800   C     0.16545   0.50022   0.83562   0.00000  Uiso   1.00
C801   C     0.18608   0.46589   0.90635   0.00000  Uiso   1.00
C802   C     0.14714   0.53406   0.59369   0.00000  Uiso   1.00
C803   C     0.16430   0.50067   0.88394   0.00000  Uiso   1.00
C804   C     0.24590   0.49984   0.74655   0.00000  Uiso   1.00
C805   C     0.16901   0.49935   0.61609   0.00000  Uiso   1.00
C806   C     0.14215   0.53509   0.90754   0.00000  Uiso   1.00
C807   C     0.19122   0.46500   0.59249   0.00000  Uiso   1.00
C808   C     0.14342   0.53521   0.95417   0.00000  Uiso   1.00
C809   C     0.18989   0.46482   0.54586   0.00000  Uiso   1.00
C810   C     0.16602   0.50009   0.97667   0.00000  Uiso   1.00
C811   C     0.16726   0.49992   0.52337   0.00000  Uiso   1.00
C812   C     0.18725   0.46503   0.95253   0.00000  Uiso   1.00
C813   C     0.14599   0.53495   0.54751   0.00000  Uiso   1.00
C814   C     0.12266   0.56972   0.97885   0.00000  Uiso   1.00
C815   C     0.12383   0.56988   0.52491   0.00000  Uiso   1.00
C816   C     0.21063   0.43029   0.52120   0.00000  Uiso   1.00
C817   C     0.04358   0.41411   0.71927   0.00000  Uiso   1.00
C818   C     0.28918   0.58578   0.71953   0.00000  Uiso   1.00
C819   C     0.29171   0.41043   0.73871   0.00000  Uiso   1.00
C820   C     0.04167   0.58916   0.73570   0.00000  Uiso   1.00
C821   C     0.20940   0.43009   0.97514   0.00000  Uiso   1.00
C822   C     0.02174   0.45728   0.73426   0.00000  Uiso   1.00
C823   C     0.31138   0.54250   0.73358   0.00000  Uiso   1.00
C824   C     0.31256   0.45653   0.73833   0.00000  Uiso   1.00
C825   C     0.02067   0.54327   0.73729   0.00000  Uiso   1.00
C826   C     0.29046   0.49951   0.73951   0.00000  Uiso   1.00
Cl827  Cl    0.11104   0.57607   0.87872   0.00000  Uiso   1.00
Cl828  Cl    0.22253   0.42421   0.62131   0.00000  Uiso   1.00
Cl829  Cl    0.09698   0.61503   0.55272   0.00000  Uiso   1.00
Cl830  Cl    0.23618   0.38488   0.94735   0.00000  Uiso   1.00
Cu831  Cu    0.16667   0.54689   0.75000   0.00000  Uiso   1.00
Cu832  Cu    0.16667   0.45311   0.75000   0.00000  Uiso   1.00
H833   H     0.20271   0.43993   0.88719   0.00000  Uiso   1.00
H834   H     0.26636   0.58355   0.69342   0.00000  Uiso   1.00
H835   H     0.27363   0.39921   0.71036   0.00000  Uiso   1.00
H836   H     0.05549   0.60073   0.70509   0.00000  Uiso   1.00
H837   H     0.13046   0.55997   0.61286   0.00000  Uiso   1.00
H838   H     0.10542   0.59725   0.96276   0.00000  Uiso   1.00
H839   H     0.22787   0.40277   0.53729   0.00000  Uiso   1.00
H840   H     0.12894   0.37655   0.69298   0.00000  Uiso   1.00
H841   H     0.20554   0.62332   0.80616   0.00000  Uiso   1.00
H842   H     0.20550   0.37717   0.80621   0.00000  Uiso   1.00
H843   H     0.12855   0.62285   0.69325   0.00000  Uiso   1.00
H844   H     0.06464   0.41631   0.69177   0.00000  Uiso   1.00
N845   N     0.16667   0.61736   0.75000   0.00000  Uiso   1.00
N846   N     0.16667   0.38264   0.75000   0.00000  Uiso   1.00
O847   O     0.10655   0.53958   0.74999   0.00000  Uiso   1.00
O848   O     0.29517   0.62360   0.73761   0.00000  Uiso   1.00
O849   O     0.29375   0.38560   0.77147   0.00000  Uiso   1.00
O850   O     0.04412   0.61360   0.76899   0.00000  Uiso   1.00
O851   O     0.22679   0.46042   0.75000   0.00000  Uiso   1.00
O852   O     0.22679   0.53958   0.75000   0.00000  Uiso   1.00
O853   O     0.10655   0.46042   0.74999   0.00000  Uiso   1.00
O854   O     0.16666   0.53960   0.68513   0.00000  Uiso   1.00
O855   O     0.16668   0.46040   0.81487   0.00000  Uiso   1.00
O856   O     0.16668   0.53960   0.81487   0.00000  Uiso   1.00
O857   O     0.16666   0.46040   0.68513   0.00000  Uiso   1.00
O858   O     0.03925   0.37661   0.73795   0.00000  Uiso   1.00
C859   C     0.42074   0.50012   0.74642   0.00000  Uiso   1.00
C860   C     0.37607   0.50036   0.73943   0.00000  Uiso   1.00
C861   C     0.47890   0.35799   0.71844   0.00000  Uiso   1.00
C862   C     0.52155   0.64197   0.78124   0.00000  Uiso   1.00
C863   C     0.52152   0.35831   0.78126   0.00000  Uiso   1.00
C864   C     0.47879   0.64169   0.71852   0.00000  Uiso   1.00
C865   C     0.50120   0.49979   0.66439   0.00000  Uiso   1.00
C866   C     0.49879   0.50022   0.83562   0.00000  Uiso   1.00
C867   C     0.51941   0.46589   0.90635   0.00000  Uiso   1.00
C868   C     0.48048   0.53406   0.59369   0.00000  Uiso   1.00
C869   C     0.49763   0.50067   0.88394   0.00000  Uiso   1.00
C870   C     0.57923   0.49984   0.74655   0.00000  Uiso   1.00
C871   C     0.50234   0.49935   0.61609   0.00000  Uiso   1.00
C872   C     0.47549   0.53509   0.90754   0.00000  Uiso   1.00
C873   C     0.52455   0.46500   0.59249   0.00000  Uiso   1.00
C874   C     0.47676   0.53521   0.95417   0.00000  Uiso   1.00
C875   C     0.52322   0.46482   0.54586   0.00000  Uiso   1.00
C876   C     0.49935   0.50009   0.97667   0.00000  Uiso   1.00
C877   C     0.50059   0.49992   0.52337   0.00000  Uiso   1.00
C878   C     0.52058   0.46503   0.95253   0.00000  Uiso   1.00
C879   C     0.47933   0.53495   0.54751   0.00000  Uiso   1.00
C880   C     0.45600   0.56972   0.97885   0.00000  Uiso   1.00
C881   C     0.45717   0.56988   0.52491   0.00000  Uiso   1.00
C882   C     0.54396   0.43029   0.52120   0.00000  Uiso   1.00
C883   C     0.37692   0.41411   0.71927   0.00000  Uiso   1.00
C884   C     0.62251   0.58578   0.71953   0.00000  Uiso   1.00
C885   C     0.62504   0.41043   0.73871   0.00000  Uiso   1.00
C886   C     0.37501   0.58916   0.73570   0.00000  Uiso   1.00
C887   C     0.54273   0.43009   0.97514   0.00000  Uiso   1.00
C888   C     0.35507   0.45728   0.73426   0.00000  Uiso   1.00
C889   C     0.64472   0.54250   0.73358   0.00000  Uiso   1.00
C890   C     0.64589   0.45653   0.73833   0.00000  Uiso   1.00
C891   C     0.35400   0.54327   0.73729   0.00000  Uiso   1.00
C892   C     0.62380   0.49951   0.73951   0.00000  Uiso   1.00
Cl893  Cl    0.44437   0.57607   0.87872   0.00000  Uiso   1.00
Cl894  Cl    0.55586   0.42421   0.62131   0.00000  Uiso   1.00
Cl895  Cl    0.43031   0.61503   0.55272   0.00000  Uiso   1.00
Cl896  Cl    0.56952   0.38488   0.94735   0.00000  Uiso   1.00
Cu897  Cu    0.50000   0.54689   0.75000   0.00000  Uiso   1.00
Cu898  Cu    0.50000   0.45311   0.75000   0.00000  Uiso   1.00
H899   H     0.53604   0.43993   0.88719   0.00000  Uiso   1.00
H900   H     0.59969   0.58355   0.69342   0.00000  Uiso   1.00
H901   H     0.60697   0.39921   0.71036   0.00000  Uiso   1.00
H902   H     0.38883   0.60073   0.70509   0.00000  Uiso   1.00
H903   H     0.46380   0.55997   0.61286   0.00000  Uiso   1.00
H904   H     0.43875   0.59725   0.96276   0.00000  Uiso   1.00
H905   H     0.56121   0.40277   0.53729   0.00000  Uiso   1.00
H906   H     0.46228   0.37655   0.69298   0.00000  Uiso   1.00
H907   H     0.53888   0.62332   0.80616   0.00000  Uiso   1.00
H908   H     0.53883   0.37717   0.80621   0.00000  Uiso   1.00
H909   H     0.46188   0.62285   0.69325   0.00000  Uiso   1.00
H910   H     0.39798   0.41631   0.69177   0.00000  Uiso   1.00
N911   N     0.50000   0.61736   0.75000   0.00000  Uiso   1.00
N912   N     0.50000   0.38264   0.75000   0.00000  Uiso   1.00
O913   O     0.43988   0.53958   0.74999   0.00000  Uiso   1.00
O914   O     0.62850   0.62360   0.73761   0.00000  Uiso   1.00
O915   O     0.62708   0.38560   0.77147   0.00000  Uiso   1.00
O916   O     0.37745   0.61360   0.76899   0.00000  Uiso   1.00
O917   O     0.56012   0.46042   0.75000   0.00000  Uiso   1.00
O918   O     0.56012   0.53958   0.75000   0.00000  Uiso   1.00
O919   O     0.43988   0.46042   0.74999   0.00000  Uiso   1.00
O920   O     0.49999   0.53960   0.68513   0.00000  Uiso   1.00
O921   O     0.50001   0.46040   0.81487   0.00000  Uiso   1.00
O922   O     0.50001   0.53960   0.81487   0.00000  Uiso   1.00
O923   O     0.49999   0.46040   0.68513   0.00000  Uiso   1.00
O924   O     0.37258   0.37661   0.73795   0.00000  Uiso   1.00
C925   C     0.75407   0.50012   0.74642   0.00000  Uiso   1.00
C926   C     0.70940   0.50036   0.73943   0.00000  Uiso   1.00
C927   C     0.81224   0.35799   0.71844   0.00000  Uiso   1.00
C928   C     0.85488   0.64197   0.78124   0.00000  Uiso   1.00
C929   C     0.85485   0.35831   0.78126   0.00000  Uiso   1.00
C930   C     0.81213   0.64169   0.71852   0.00000  Uiso   1.00
C931   C     0.83453   0.49979   0.66439   0.00000  Uiso   1.00
C932   C     0.83212   0.50022   0.83562   0.00000  Uiso   1.00
C933   C     0.85275   0.46589   0.90635   0.00000  Uiso   1.00
C934   C     0.81381   0.53406   0.59369   0.00000  Uiso   1.00
C935   C     0.83096   0.50067   0.88394   0.00000  Uiso   1.00
C936   C     0.91256   0.49984   0.74655   0.00000  Uiso   1.00
C937   C     0.83567   0.49935   0.61609   0.00000  Uiso   1.00
C938   C     0.80882   0.53509   0.90754   0.00000  Uiso   1.00
C939   C     0.85789   0.46500   0.59249   0.00000  Uiso   1.00
C940   C     0.81009   0.53521   0.95417   0.00000  Uiso   1.00
C941   C     0.85656   0.46482   0.54586   0.00000  Uiso   1.00
C942   C     0.83269   0.50009   0.97667   0.00000  Uiso   1.00
C943   C     0.83392   0.49992   0.52337   0.00000  Uiso   1.00
C944   C     0.85392   0.46503   0.95253   0.00000  Uiso   1.00
C945   C     0.81266   0.53495   0.54751   0.00000  Uiso   1.00
C946   C     0.78933   0.56972   0.97885   0.00000  Uiso   1.00
C947   C     0.79050   0.56988   0.52491   0.00000  Uiso   1.00
C948   C     0.87730   0.43029   0.52120   0.00000  Uiso   1.00
C949   C     0.71025   0.41411   0.71927   0.00000  Uiso   1.00
C950   C     0.95584   0.58578   0.71953   0.00000  Uiso   1.00
C951   C     0.95837   0.41043   0.73871   0.00000  Uiso   1.00
C952   C     0.70834   0.58916   0.73570   0.00000  Uiso   1.00
C953   C     0.87607   0.43009   0.97514   0.00000  Uiso   1.00
C954   C     0.68840   0.45728   0.73426   0.00000  Uiso   1.00
C955   C     0.97805   0.54250   0.73358   0.00000  Uiso   1.00
C956   C     0.97922   0.45653   0.73833   0.00000  Uiso   1.00
C957   C     0.68733   0.54327   0.73729   0.00000  Uiso   1.00
C958   C     0.95713   0.49951   0.73951   0.00000  Uiso   1.00
Cl959  Cl    0.77770   0.57607   0.87872   0.00000  Uiso   1.00
Cl960  Cl    0.88919   0.42421   0.62131   0.00000  Uiso   1.00
Cl961  Cl    0.76365   0.61503   0.55272   0.00000  Uiso   1.00
Cl962  Cl    0.90285   0.38488   0.94735   0.00000  Uiso   1.00
Cu963  Cu    0.83333   0.54689   0.75000   0.00000  Uiso   1.00
Cu964  Cu    0.83333   0.45311   0.75000   0.00000  Uiso   1.00
H965   H     0.86937   0.43993   0.88719   0.00000  Uiso   1.00
H966   H     0.93303   0.58355   0.69342   0.00000  Uiso   1.00
H967   H     0.94030   0.39921   0.71036   0.00000  Uiso   1.00
H968   H     0.72216   0.60073   0.70509   0.00000  Uiso   1.00
H969   H     0.79713   0.55997   0.61286   0.00000  Uiso   1.00
H970   H     0.77209   0.59725   0.96276   0.00000  Uiso   1.00
H971   H     0.89454   0.40277   0.53729   0.00000  Uiso   1.00
H972   H     0.79561   0.37655   0.69298   0.00000  Uiso   1.00
H973   H     0.87221   0.62332   0.80616   0.00000  Uiso   1.00
H974   H     0.87217   0.37717   0.80621   0.00000  Uiso   1.00
H975   H     0.79521   0.62285   0.69325   0.00000  Uiso   1.00
H976   H     0.73131   0.41631   0.69177   0.00000  Uiso   1.00
N977   N     0.83333   0.61736   0.75000   0.00000  Uiso   1.00
N978   N     0.83333   0.38264   0.75000   0.00000  Uiso   1.00
O979   O     0.77321   0.53958   0.74999   0.00000  Uiso   1.00
O980   O     0.96184   0.62360   0.73761   0.00000  Uiso   1.00
O981   O     0.96041   0.38560   0.77147   0.00000  Uiso   1.00
O982   O     0.71079   0.61360   0.76899   0.00000  Uiso   1.00
O983   O     0.89345   0.46042   0.75000   0.00000  Uiso   1.00
O984   O     0.89345   0.53958   0.75000   0.00000  Uiso   1.00
O985   O     0.77321   0.46042   0.74999   0.00000  Uiso   1.00
O986   O     0.83332   0.53960   0.68513   0.00000  Uiso   1.00
O987   O     0.83334   0.46040   0.81487   0.00000  Uiso   1.00
O988   O     0.83334   0.53960   0.81487   0.00000  Uiso   1.00
O989   O     0.83332   0.46040   0.68513   0.00000  Uiso   1.00
O990   O     0.70592   0.37661   0.73795   0.00000  Uiso   1.00
C991   C     0.08741   0.83346   0.74642   0.00000  Uiso   1.00
C992   C     0.04274   0.83369   0.73943   0.00000  Uiso   1.00
C993   C     0.14557   0.69133   0.71844   0.00000  Uiso   1.00
C994   C     0.18821   0.97530   0.78124   0.00000  Uiso   1.00
C995   C     0.18819   0.69164   0.78126   0.00000  Uiso   1.00
C996   C     0.14546   0.97502   0.71852   0.00000  Uiso   1.00
C997   C     0.16786   0.83312   0.66439   0.00000  Uiso   1.00
C998   C     0.16545   0.83355   0.83562   0.00000  Uiso   1.00
C999   C     0.18608   0.79923   0.90635   0.00000  Uiso   1.00
C1000  C     0.14714   0.86739   0.59369   0.00000  Uiso   1.00
C1001  C     0.16430   0.83400   0.88394   0.00000  Uiso   1.00
C1002  C     0.24590   0.83317   0.74655   0.00000  Uiso   1.00
C1003  C     0.16901   0.83268   0.61609   0.00000  Uiso   1.00
C1004  C     0.14215   0.86842   0.90754   0.00000  Uiso   1.00
C1005  C     0.19122   0.79833   0.59249   0.00000  Uiso   1.00
C1006  C     0.14342   0.86855   0.95417   0.00000  Uiso   1.00
C1007  C     0.18989   0.79816   0.54586   0.00000  Uiso   1.00
C1008  C     0.16602   0.83342   0.97667   0.00000  Uiso   1.00
C1009  C     0.16726   0.83325   0.52337   0.00000  Uiso   1.00
C1010  C     0.18725   0.79836   0.95253   0.00000  Uiso   1.00
C1011  C     0.14599   0.86828   0.54751   0.00000  Uiso   1.00
C1012  C     0.12266   0.90306   0.97885   0.00000  Uiso   1.00
C1013  C     0.12383   0.90321   0.52491   0.00000  Uiso   1.00
C1014  C     0.21063   0.76363   0.52120   0.00000  Uiso   1.00
C1015  C     0.04358   0.74744   0.71927   0.00000  Uiso   1.00
C1016  C     0.28918   0.91911   0.71953   0.00000  Uiso   1.00
C1017  C     0.29171   0.74376   0.73871   0.00000  Uiso   1.00
C1018  C     0.04167   0.92249   0.73570   0.00000  Uiso   1.00
C1019  C     0.20940   0.76342   0.97514   0.00000  Uiso   1.00
C1020  C     0.02174   0.79062   0.73426   0.00000  Uiso   1.00
C1021  C     0.31138   0.87583   0.73358   0.00000  Uiso   1.00
C1022  C     0.31256   0.78986   0.73833   0.00000  Uiso   1.00
C1023  C     0.02067   0.87660   0.73729   0.00000  Uiso   1.00
C1024  C     0.29046   0.83284   0.73951   0.00000  Uiso   1.00
Cl1025 Cl    0.11104   0.90940   0.87872   0.00000  Uiso   1.00
Cl1026 Cl    0.22253   0.75754   0.62131   0.00000  Uiso   1.00
Cl1027 Cl    0.09698   0.94836   0.55272   0.00000  Uiso   1.00
Cl1028 Cl    0.23618   0.71821   0.94735   0.00000  Uiso   1.00
Cu1029 Cu    0.16667   0.88022   0.75000   0.00000  Uiso   1.00
Cu1030 Cu    0.16667   0.78645   0.75000   0.00000  Uiso   1.00
H1031  H     0.20271   0.77326   0.88719   0.00000  Uiso   1.00
H1032  H     0.26636   0.91688   0.69342   0.00000  Uiso   1.00
H1033  H     0.27363   0.73254   0.71036   0.00000  Uiso   1.00
H1034  H     0.05549   0.93407   0.70509   0.00000  Uiso   1.00
H1035  H     0.13046   0.89331   0.61286   0.00000  Uiso   1.00
H1036  H     0.10542   0.93058   0.96276   0.00000  Uiso   1.00
H1037  H     0.22787   0.73611   0.53729   0.00000  Uiso   1.00
H1038  H     0.12894   0.70989   0.69298   0.00000  Uiso   1.00
H1039  H     0.20554   0.95665   0.80616   0.00000  Uiso   1.00
H1040  H     0.20550   0.71050   0.80621   0.00000  Uiso   1.00
H1041  H     0.12855   0.95618   0.69325   0.00000  Uiso   1.00
H1042  H     0.06464   0.74965   0.69177   0.00000  Uiso   1.00
N1043  N     0.16667   0.95069   0.75000   0.00000  Uiso   1.00
N1044  N     0.16667   0.71598   0.75000   0.00000  Uiso   1.00
O1045  O     0.10655   0.87291   0.74999   0.00000  Uiso   1.00
O1046  O     0.29517   0.95693   0.73761   0.00000  Uiso   1.00
O1047  O     0.29375   0.71893   0.77147   0.00000  Uiso   1.00
O1048  O     0.04412   0.94693   0.76899   0.00000  Uiso   1.00
O1049  O     0.22679   0.79375   0.75000   0.00000  Uiso   1.00
O1050  O     0.22679   0.87291   0.75000   0.00000  Uiso   1.00
O1051  O     0.10655   0.79375   0.74999   0.00000  Uiso   1.00
O1052  O     0.16666   0.87293   0.68513   0.00000  Uiso   1.00
O1053  O     0.16668   0.79373   0.81487   0.00000  Uiso   1.00
O1054  O     0.16668   0.87293   0.81487   0.00000  Uiso   1.00
O1055  O     0.16666   0.79373   0.68513   0.00000  Uiso   1.00
O1056  O     0.03925   0.70994   0.73795   0.00000  Uiso   1.00
C1057  C     0.42074   0.83346   0.74642   0.00000  Uiso   1.00
C1058  C     0.37607   0.83369   0.73943   0.00000  Uiso   1.00
C1059  C     0.47890   0.69133   0.71844   0.00000  Uiso   1.00
C1060  C     0.52155   0.97530   0.78124   0.00000  Uiso   1.00
C1061  C     0.52152   0.69164   0.78126   0.00000  Uiso   1.00
C1062  C     0.47879   0.97502   0.71852   0.00000  Uiso   1.00
C1063  C     0.50120   0.83312   0.66439   0.00000  Uiso   1.00
C1064  C     0.49879   0.83355   0.83562   0.00000  Uiso   1.00
C1065  C     0.51941   0.79923   0.90635   0.00000  Uiso   1.00
C1066  C     0.48048   0.86739   0.59369   0.00000  Uiso   1.00
C1067  C     0.49763   0.83400   0.88394   0.00000  Uiso   1.00
C1068  C     0.57923   0.83317   0.74655   0.00000  Uiso   1.00
C1069  C     0.50234   0.83268   0.61609   0.00000  Uiso   1.00
C1070  C     0.47549   0.86842   0.90754   0.00000  Uiso   1.00
C1071  C     0.52455   0.79833   0.59249   0.00000  Uiso   1.00
C1072  C     0.47676   0.86855   0.95417   0.00000  Uiso   1.00
C1073  C     0.52322   0.79816   0.54586   0.00000  Uiso   1.00
C1074  C     0.49935   0.83342   0.97667   0.00000  Uiso   1.00
C1075  C     0.50059   0.83325   0.52337   0.00000  Uiso   1.00
C1076  C     0.52058   0.79836   0.95253   0.00000  Uiso   1.00
C1077  C     0.47933   0.86828   0.54751   0.00000  Uiso   1.00
C1078  C     0.45600   0.90306   0.97885   0.00000  Uiso   1.00
C1079  C     0.45717   0.90321   0.52491   0.00000  Uiso   1.00
C1080  C     0.54396   0.76363   0.52120   0.00000  Uiso   1.00
C1081  C     0.37692   0.74744   0.71927   0.00000  Uiso   1.00
C1082  C     0.62251   0.91911   0.71953   0.00000  Uiso   1.00
C1083  C     0.62504   0.74376   0.73871   0.00000  Uiso   1.00
C1084  C     0.37501   0.92249   0.73570   0.00000  Uiso   1.00
C1085  C     0.54273   0.76342   0.97514   0.00000  Uiso   1.00
C1086  C     0.35507   0.79062   0.73426   0.00000  Uiso   1.00
C1087  C     0.64472   0.87583   0.73358   0.00000  Uiso   1.00
C1088  C     0.64589   0.78986   0.73833   0.00000  Uiso   1.00
C1089  C     0.35400   0.87660   0.73729   0.00000  Uiso   1.00
C1090  C     0.62380   0.83284   0.73951   0.00000  Uiso   1.00
Cl1091 Cl    0.44437   0.90940   0.87872   0.00000  Uiso   1.00
Cl1092 Cl    0.55586   0.75754   0.62131   0.00000  Uiso   1.00
Cl1093 Cl    0.43031   0.94836   0.55272   0.00000  Uiso   1.00
Cl1094 Cl    0.56952   0.71821   0.94735   0.00000  Uiso   1.00
Cu1095 Cu    0.50000   0.88022   0.75000   0.00000  Uiso   1.00
Cu1096 Cu    0.50000   0.78645   0.75000   0.00000  Uiso   1.00
H1097  H     0.53604   0.77326   0.88719   0.00000  Uiso   1.00
H1098  H     0.59969   0.91688   0.69342   0.00000  Uiso   1.00
H1099  H     0.60697   0.73254   0.71036   0.00000  Uiso   1.00
H1100  H     0.38883   0.93407   0.70509   0.00000  Uiso   1.00
H1101  H     0.46380   0.89331   0.61286   0.00000  Uiso   1.00
H1102  H     0.43875   0.93058   0.96276   0.00000  Uiso   1.00
H1103  H     0.56121   0.73611   0.53729   0.00000  Uiso   1.00
H1104  H     0.46228   0.70989   0.69298   0.00000  Uiso   1.00
H1105  H     0.53888   0.95665   0.80616   0.00000  Uiso   1.00
H1106  H     0.53883   0.71050   0.80621   0.00000  Uiso   1.00
H1107  H     0.46188   0.95618   0.69325   0.00000  Uiso   1.00
H1108  H     0.39798   0.74965   0.69177   0.00000  Uiso   1.00
N1109  N     0.50000   0.95069   0.75000   0.00000  Uiso   1.00
N1110  N     0.50000   0.71598   0.75000   0.00000  Uiso   1.00
O1111  O     0.43988   0.87291   0.74999   0.00000  Uiso   1.00
O1112  O     0.62850   0.95693   0.73761   0.00000  Uiso   1.00
O1113  O     0.62708   0.71893   0.77147   0.00000  Uiso   1.00
O1114  O     0.37745   0.94693   0.76899   0.00000  Uiso   1.00
O1115  O     0.56012   0.79375   0.75000   0.00000  Uiso   1.00
O1116  O     0.56012   0.87291   0.75000   0.00000  Uiso   1.00
O1117  O     0.43988   0.79375   0.74999   0.00000  Uiso   1.00
O1118  O     0.49999   0.87293   0.68513   0.00000  Uiso   1.00
O1119  O     0.50001   0.79373   0.81487   0.00000  Uiso   1.00
O1120  O     0.50001   0.87293   0.81487   0.00000  Uiso   1.00
O1121  O     0.49999   0.79373   0.68513   0.00000  Uiso   1.00
O1122  O     0.37258   0.70994   0.73795   0.00000  Uiso   1.00
C1123  C     0.75407   0.83346   0.74642   0.00000  Uiso   1.00
C1124  C     0.70940   0.83369   0.73943   0.00000  Uiso   1.00
C1125  C     0.81224   0.69133   0.71844   0.00000  Uiso   1.00
C1126  C     0.85488   0.97530   0.78124   0.00000  Uiso   1.00
C1127  C     0.85485   0.69164   0.78126   0.00000  Uiso   1.00
C1128  C     0.81213   0.97502   0.71852   0.00000  Uiso   1.00
C1129  C     0.83453   0.83312   0.66439   0.00000  Uiso   1.00
C1130  C     0.83212   0.83355   0.83562   0.00000  Uiso   1.00
C1131  C     0.85275   0.79923   0.90635   0.00000  Uiso   1.00
C1132  C     0.81381   0.86739   0.59369   0.00000  Uiso   1.00
C1133  C     0.83096   0.83400   0.88394   0.00000  Uiso   1.00
C1134  C     0.91256   0.83317   0.74655   0.00000  Uiso   1.00
C1135  C     0.83567   0.83268   0.61609   0.00000  Uiso   1.00
C1136  C     0.80882   0.86842   0.90754   0.00000  Uiso   1.00
C1137  C     0.85789   0.79833   0.59249   0.00000  Uiso   1.00
C1138  C     0.81009   0.86855   0.95417   0.00000  Uiso   1.00
C1139  C     0.85656   0.79816   0.54586   0.00000  Uiso   1.00
C1140  C     0.83269   0.83342   0.97667   0.00000  Uiso   1.00
C1141  C     0.83392   0.83325   0.52337   0.00000  Uiso   1.00
C1142  C     0.85392   0.79836   0.95253   0.00000  Uiso   1.00
C1143  C     0.81266   0.86828   0.54751   0.00000  Uiso   1.00
C1144  C     0.78933   0.90306   0.97885   0.00000  Uiso   1.00
C1145  C     0.79050   0.90321   0.52491   0.00000  Uiso   1.00
C1146  C     0.87730   0.76363   0.52120   0.00000  Uiso   1.00
C1147  C     0.71025   0.74744   0.71927   0.00000  Uiso   1.00
C1148  C     0.95584   0.91911   0.71953   0.00000  Uiso   1.00
C1149  C     0.95837   0.74376   0.73871   0.00000  Uiso   1.00
C1150  C     0.70834   0.92249   0.73570   0.00000  Uiso   1.00
C1151  C     0.87607   0.76342   0.97514   0.00000  Uiso   1.00
C1152  C     0.68840   0.79062   0.73426   0.00000  Uiso   1.00
C1153  C     0.97805   0.87583   0.73358   0.00000  Uiso   1.00
C1154  C     0.97922   0.78986   0.73833   0.00000  Uiso   1.00
C1155  C     0.68733   0.87660   0.73729   0.00000  Uiso   1.00
C1156  C     0.95713   0.83284   0.73951   0.00000  Uiso   1.00
Cl1157 Cl    0.77770   0.90940   0.87872   0.00000  Uiso   1.00
Cl1158 Cl    0.88919   0.75754   0.62131   0.00000  Uiso   1.00
Cl1159 Cl    0.76365   0.94836   0.55272   0.00000  Uiso   1.00
Cl1160 Cl    0.90285   0.71821   0.94735   0.00000  Uiso   1.00
Cu1161 Cu    0.83333   0.88022   0.75000   0.00000  Uiso   1.00
Cu1162 Cu    0.83333   0.78645   0.75000   0.00000  Uiso   1.00
H1163  H     0.86937   0.77326   0.88719   0.00000  Uiso   1.00
H1164  H     0.93303   0.91688   0.69342   0.00000  Uiso   1.00
H1165  H     0.94030   0.73254   0.71036   0.00000  Uiso   1.00
H1166  H     0.72216   0.93407   0.70509   0.00000  Uiso   1.00
H1167  H     0.79713   0.89331   0.61286   0.00000  Uiso   1.00
H1168  H     0.77209   0.93058   0.96276   0.00000  Uiso   1.00
H1169  H     0.89454   0.73611   0.53729   0.00000  Uiso   1.00
H1170  H     0.79561   0.70989   0.69298   0.00000  Uiso   1.00
H1171  H     0.87221   0.95665   0.80616   0.00000  Uiso   1.00
H1172  H     0.87217   0.71050   0.80621   0.00000  Uiso   1.00
H1173  H     0.79521   0.95618   0.69325   0.00000  Uiso   1.00
H1174  H     0.73131   0.74965   0.69177   0.00000  Uiso   1.00
N1175  N     0.83333   0.95069   0.75000   0.00000  Uiso   1.00
N1176  N     0.83333   0.71598   0.75000   0.00000  Uiso   1.00
O1177  O     0.77321   0.87291   0.74999   0.00000  Uiso   1.00
O1178  O     0.96184   0.95693   0.73761   0.00000  Uiso   1.00
O1179  O     0.96041   0.71893   0.77147   0.00000  Uiso   1.00
O1180  O     0.71079   0.94693   0.76899   0.00000  Uiso   1.00
O1181  O     0.89345   0.79375   0.75000   0.00000  Uiso   1.00
O1182  O     0.89345   0.87291   0.75000   0.00000  Uiso   1.00
O1183  O     0.77321   0.79375   0.74999   0.00000  Uiso   1.00
O1184  O     0.83332   0.87293   0.68513   0.00000  Uiso   1.00
O1185  O     0.83334   0.79373   0.81487   0.00000  Uiso   1.00
O1186  O     0.83334   0.87293   0.81487   0.00000  Uiso   1.00
O1187  O     0.83332   0.79373   0.68513   0.00000  Uiso   1.00
O1188  O     0.70592   0.70994   0.73795   0.00000  Uiso   1.00
loop_
_geom_bond_atom_site_label_1
_geom_bond_atom_site_label_2
_geom_bond_distance
_geom_bond_site_symmetry_2
_ccdc_geom_bond_type
C1     O55     1.292   .     A
C1     C2      1.479   .     S
C1     O61     1.296   .     A
C2     C30     1.416   .     A
C2     C33     1.420   .     A
C3     N54     1.366   .     A
C3     H48     1.080   .     S
C3     C402    1.413   1_545 S
C4     H49     1.082   .     S
C4     N53     1.366   .     A
C4     C203    1.414   .     S
C5     N54     1.366   .     A
C5     H50     1.082   .     S
C5     C400    1.414   1_545 S
C6     H51     1.081   .     S
C6     N53     1.366   .     A
C6     C201    1.413   .     S
C7     O62     1.292   .     A
C7     O65     1.289   .     A
C7     C13     1.458   .     S
C8     O64     1.289   .     A
C8     C11     1.459   .     S
C8     O63     1.292   .     A
C9     C20     1.394   .     A
C9     H41     1.083   .     S
C9     C11     1.396   .     A
C10    H45     1.083   .     S
C10    C21     1.394   .     A
C10    C13     1.395   .     A
C11    C14     1.409   .     A
C12    C34     1.478   .     S
C12    O60     1.296   .     A
C12    O59     1.292   .     A
C13    C15     1.409   .     A
C14    C16     1.407   .     A
C14    Cl35    1.777   .     S
C15    C17     1.407   .     A
C15    Cl36    1.777   .     S
C16    C18     1.418   .     A
C16    C22     1.405   .     A
C17    C24     1.405   .     A
C17    C19     1.418   .     A
C18    C20     1.415   .     A
C18    C613    1.410   .     S
C19    C21     1.415   .     A
C19    C612    1.410   1_554 S
C20    C29     1.408   .     A
C21    C23     1.408   .     A
C22    H46     1.081   .     S
C22    C617    1.390   .     S
C23    Cl37    1.766   .     S
C23    C616    1.390   1_554 S
C24    H47     1.081   .     S
C24    C623    1.390   1_554 S
C25    O66     1.220   .     D
C25    H52     1.085   .     S
C25    C30     1.490   .     S
C26    C31     1.492   .     S
C26    O56     1.220   .     D
C26    H42     1.086   .     S
C27    C32     1.482   .     S
C27    H43     1.085   .     S
C27    O57     1.221   .     D
C28    O58     1.221   .     D
C28    H44     1.085   .     S
C28    C33     1.481   .     S
C29    Cl38    1.765   .     S
C29    C618    1.390   .     S
C30    C164    1.401   1_455 S
C31    C34     1.418   .     A
C31    C99     1.402   .     S
C32    C34     1.420   .     A
C32    C96     1.401   .     S
C33    C163    1.402   1_455 S
Cu39   O64     1.970   .     S
Cu39   N53     2.007   .     S
Cu39   O60     1.982   .     S
Cu39   Cu40    2.670   .     S
Cu39   O62     1.967   .     S
Cu39   O55     1.983   .     S
Cu40   O59     1.983   .     S
Cu40   O63     1.967   .     S
Cu40   N54     2.007   .     S
Cu40   O65     1.970   .     S
Cu40   O61     1.982   .     S
C67    O121    1.292   .     A
C67    C68     1.479   .     S
C67    O127    1.296   .     A
C68    C96     1.416   .     A
C68    C99     1.420   .     A
C69    N120    1.366   .     A
C69    H114    1.080   .     S
C69    C468    1.413   1_545 S
C70    H115    1.082   .     S
C70    N119    1.366   .     A
C70    C269    1.414   .     S
C71    N120    1.366   .     A
C71    H116    1.082   .     S
C71    C466    1.414   1_545 S
C72    H117    1.081   .     S
C72    N119    1.366   .     A
C72    C267    1.413   .     S
C73    O128    1.292   .     A
C73    O131    1.289   .     A
C73    C79     1.458   .     S
C74    O130    1.289   .     A
C74    C77     1.459   .     S
C74    O129    1.292   .     A
C75    C86     1.394   .     A
C75    H107    1.083   .     S
C75    C77     1.396   .     A
C76    H111    1.083   .     S
C76    C87     1.394   .     A
C76    C79     1.395   .     A
C77    C80     1.409   .     A
C78    C100    1.478   .     S
C78    O126    1.296   .     A
C78    O125    1.292   .     A
C79    C81     1.409   .     A
C80    C82     1.407   .     A
C80    Cl101   1.777   .     S
C81    C83     1.407   .     A
C81    Cl102   1.777   .     S
C82    C84     1.418   .     A
C82    C88     1.405   .     A
C83    C90     1.405   .     A
C83    C85     1.418   .     A
C84    C86     1.415   .     A
C84    C679    1.410   .     S
C85    C87     1.415   .     A
C85    C678    1.410   1_554 S
C86    C95     1.408   .     A
C87    C89     1.408   .     A
C88    H112    1.081   .     S
C88    C683    1.390   .     S
C89    Cl103   1.766   .     S
C89    C682    1.390   1_554 S
C90    H113    1.081   .     S
C90    C689    1.390   1_554 S
C91    O132    1.220   .     D
C91    H118    1.085   .     S
C91    C96     1.490   .     S
C92    C97     1.492   .     S
C92    O122    1.220   .     D
C92    H108    1.086   .     S
C93    C98     1.482   .     S
C93    H109    1.085   .     S
C93    O123    1.221   .     D
C94    O124    1.221   .     D
C94    H110    1.085   .     S
C94    C99     1.481   .     S
C95    Cl104   1.765   .     S
C95    C684    1.390   .     S
C97    C100    1.418   .     A
C97    C165    1.402   .     S
C98    C100    1.420   .     A
C98    C162    1.401   .     S
Cu105  O130    1.970   .     S
Cu105  N119    2.007   .     S
Cu105  O126    1.982   .     S
Cu105  Cu106   2.670   .     S
Cu105  O128    1.967   .     S
Cu105  O121    1.983   .     S
Cu106  O125    1.983   .     S
Cu106  O129    1.967   .     S
Cu106  N120    2.007   .     S
Cu106  O131    1.970   .     S
Cu106  O127    1.982   .     S
C133   O187    1.292   .     A
C133   C134    1.479   .     S
C133   O193    1.296   .     A
C134   C162    1.416   .     A
C134   C165    1.420   .     A
C135   N186    1.366   .     A
C135   H180    1.080   .     S
C135   C534    1.413   1_545 S
C136   H181    1.082   .     S
C136   N185    1.366   .     A
C136   C335    1.414   .     S
C137   N186    1.366   .     A
C137   H182    1.082   .     S
C137   C532    1.414   1_545 S
C138   H183    1.081   .     S
C138   N185    1.366   .     A
C138   C333    1.413   .     S
C139   O194    1.292   .     A
C139   O197    1.289   .     A
C139   C145    1.458   .     S
C140   O196    1.289   .     A
C140   C143    1.459   .     S
C140   O195    1.292   .     A
C141   C152    1.394   .     A
C141   H173    1.083   .     S
C141   C143    1.396   .     A
C142   H177    1.083   .     S
C142   C153    1.394   .     A
C142   C145    1.395   .     A
C143   C146    1.409   .     A
C144   C166    1.478   .     S
C144   O192    1.296   .     A
C144   O191    1.292   .     A
C145   C147    1.409   .     A
C146   C148    1.407   .     A
C146   Cl167   1.777   .     S
C147   C149    1.407   .     A
C147   Cl168   1.777   .     S
C148   C150    1.418   .     A
C148   C154    1.405   .     A
C149   C156    1.405   .     A
C149   C151    1.418   .     A
C150   C152    1.415   .     A
C150   C745    1.410   .     S
C151   C153    1.415   .     A
C151   C744    1.410   1_554 S
C152   C161    1.408   .     A
C153   C155    1.408   .     A
C154   H178    1.081   .     S
C154   C749    1.390   .     S
C155   Cl169   1.766   .     S
C155   C748    1.390   1_554 S
C156   H179    1.081   .     S
C156   C755    1.390   1_554 S
C157   O198    1.220   .     D
C157   H184    1.085   .     S
C157   C162    1.490   .     S
C158   C163    1.492   .     S
C158   O188    1.220   .     D
C158   H174    1.086   .     S
C159   C164    1.482   .     S
C159   H175    1.085   .     S
C159   O189    1.221   .     D
C160   O190    1.221   .     D
C160   H176    1.085   .     S
C160   C165    1.481   .     S
C161   Cl170   1.765   .     S
C161   C750    1.390   .     S
C163   C166    1.418   .     A
C163   C33     1.402   1_655 S
C164   C166    1.420   .     A
C164   C30     1.401   1_655 S
Cu171  O196    1.970   .     S
Cu171  N185    2.007   .     S
Cu171  O192    1.982   .     S
Cu171  Cu172   2.670   .     S
Cu171  O194    1.967   .     S
Cu171  O187    1.983   .     S
Cu172  O191    1.983   .     S
Cu172  O195    1.967   .     S
Cu172  N186    2.007   .     S
Cu172  O197    1.970   .     S
Cu172  O193    1.982   .     S
C199   O253    1.292   .     A
C199   C200    1.479   .     S
C199   O259    1.296   .     A
C200   C228    1.416   .     A
C200   C231    1.420   .     A
C201   N252    1.366   .     A
C201   H246    1.080   .     S
C202   H247    1.082   .     S
C202   N251    1.366   .     A
C202   C401    1.414   .     S
C203   N252    1.366   .     A
C203   H248    1.082   .     S
C204   H249    1.081   .     S
C204   N251    1.366   .     A
C204   C399    1.413   .     S
C205   O260    1.292   .     A
C205   O263    1.289   .     A
C205   C211    1.458   .     S
C206   O262    1.289   .     A
C206   C209    1.459   .     S
C206   O261    1.292   .     A
C207   C218    1.394   .     A
C207   H239    1.083   .     S
C207   C209    1.396   .     A
C208   H243    1.083   .     S
C208   C219    1.394   .     A
C208   C211    1.395   .     A
C209   C212    1.409   .     A
C210   C232    1.478   .     S
C210   O258    1.296   .     A
C210   O257    1.292   .     A
C211   C213    1.409   .     A
C212   C214    1.407   .     A
C212   Cl233   1.777   .     S
C213   C215    1.407   .     A
C213   Cl234   1.777   .     S
C214   C216    1.418   .     A
C214   C220    1.405   .     A
C215   C222    1.405   .     A
C215   C217    1.418   .     A
C216   C218    1.415   .     A
C216   C811    1.410   .     S
C217   C219    1.415   .     A
C217   C810    1.410   1_554 S
C218   C227    1.408   .     A
C219   C221    1.408   .     A
C220   H244    1.081   .     S
C220   C815    1.390   .     S
C221   Cl235   1.766   .     S
C221   C814    1.390   1_554 S
C222   H245    1.081   .     S
C222   C821    1.390   1_554 S
C223   O264    1.220   .     D
C223   H250    1.085   .     S
C223   C228    1.490   .     S
C224   C229    1.492   .     S
C224   O254    1.220   .     D
C224   H240    1.086   .     S
C225   C230    1.482   .     S
C225   H241    1.085   .     S
C225   O255    1.221   .     D
C226   O256    1.221   .     D
C226   H242    1.085   .     S
C226   C231    1.481   .     S
C227   Cl236   1.765   .     S
C227   C816    1.390   .     S
C228   C362    1.401   1_455 S
C229   C232    1.418   .     A
C229   C297    1.402   .     S
C230   C232    1.420   .     A
C230   C294    1.401   .     S
C231   C361    1.402   1_455 S
Cu237  O262    1.970   .     S
Cu237  N251    2.007   .     S
Cu237  O258    1.982   .     S
Cu237  Cu238   2.670   .     S
Cu237  O260    1.967   .     S
Cu237  O253    1.983   .     S
Cu238  O257    1.983   .     S
Cu238  O261    1.967   .     S
Cu238  N252    2.007   .     S
Cu238  O263    1.970   .     S
Cu238  O259    1.982   .     S
C265   O319    1.292   .     A
C265   C266    1.479   .     S
C265   O325    1.296   .     A
C266   C294    1.416   .     A
C266   C297    1.420   .     A
C267   N318    1.366   .     A
C267   H312    1.080   .     S
C268   H313    1.082   .     S
C268   N317    1.366   .     A
C268   C467    1.414   .     S
C269   N318    1.366   .     A
C269   H314    1.082   .     S
C270   H315    1.081   .     S
C270   N317    1.366   .     A
C270   C465    1.413   .     S
C271   O326    1.292   .     A
C271   O329    1.289   .     A
C271   C277    1.458   .     S
C272   O328    1.289   .     A
C272   C275    1.459   .     S
C272   O327    1.292   .     A
C273   C284    1.394   .     A
C273   H305    1.083   .     S
C273   C275    1.396   .     A
C274   H309    1.083   .     S
C274   C285    1.394   .     A
C274   C277    1.395   .     A
C275   C278    1.409   .     A
C276   C298    1.478   .     S
C276   O324    1.296   .     A
C276   O323    1.292   .     A
C277   C279    1.409   .     A
C278   C280    1.407   .     A
C278   Cl299   1.777   .     S
C279   C281    1.407   .     A
C279   Cl300   1.777   .     S
C280   C282    1.418   .     A
C280   C286    1.405   .     A
C281   C288    1.405   .     A
C281   C283    1.418   .     A
C282   C284    1.415   .     A
C282   C877    1.410   .     S
C283   C285    1.415   .     A
C283   C876    1.410   1_554 S
C284   C293    1.408   .     A
C285   C287    1.408   .     A
C286   H310    1.081   .     S
C286   C881    1.390   .     S
C287   Cl301   1.766   .     S
C287   C880    1.390   1_554 S
C288   H311    1.081   .     S
C288   C887    1.390   1_554 S
C289   O330    1.220   .     D
C289   H316    1.085   .     S
C289   C294    1.490   .     S
C290   C295    1.492   .     S
C290   O320    1.220   .     D
C290   H306    1.086   .     S
C291   C296    1.482   .     S
C291   H307    1.085   .     S
C291   O321    1.221   .     D
C292   O322    1.221   .     D
C292   H308    1.085   .     S
C292   C297    1.481   .     S
C293   Cl302   1.765   .     S
C293   C882    1.390   .     S
C295   C298    1.418   .     A
C295   C363    1.402   .     S
C296   C298    1.420   .     A
C296   C360    1.401   .     S
Cu303  O328    1.970   .     S
Cu303  N317    2.007   .     S
Cu303  O324    1.982   .     S
Cu303  Cu304   2.670   .     S
Cu303  O326    1.967   .     S
Cu303  O319    1.983   .     S
Cu304  O323    1.983   .     S
Cu304  O327    1.967   .     S
Cu304  N318    2.007   .     S
Cu304  O329    1.970   .     S
Cu304  O325    1.982   .     S
C331   O385    1.292   .     A
C331   C332    1.479   .     S
C331   O391    1.296   .     A
C332   C360    1.416   .     A
C332   C363    1.420   .     A
C333   N384    1.366   .     A
C333   H378    1.080   .     S
C334   H379    1.082   .     S
C334   N383    1.366   .     A
C334   C533    1.414   .     S
C335   N384    1.366   .     A
C335   H380    1.082   .     S
C336   H381    1.081   .     S
C336   N383    1.366   .     A
C336   C531    1.413   .     S
C337   O392    1.292   .     A
C337   O395    1.289   .     A
C337   C343    1.458   .     S
C338   O394    1.289   .     A
C338   C341    1.459   .     S
C338   O393    1.292   .     A
C339   C350    1.394   .     A
C339   H371    1.083   .     S
C339   C341    1.396   .     A
C340   H375    1.083   .     S
C340   C351    1.394   .     A
C340   C343    1.395   .     A
C341   C344    1.409   .     A
C342   C364    1.478   .     S
C342   O390    1.296   .     A
C342   O389    1.292   .     A
C343   C345    1.409   .     A
C344   C346    1.407   .     A
C344   Cl365   1.777   .     S
C345   C347    1.407   .     A
C345   Cl366   1.777   .     S
C346   C348    1.418   .     A
C346   C352    1.405   .     A
C347   C354    1.405   .     A
C347   C349    1.418   .     A
C348   C350    1.415   .     A
C348   C943    1.410   .     S
C349   C351    1.415   .     A
C349   C942    1.410   1_554 S
C350   C359    1.408   .     A
C351   C353    1.408   .     A
C352   H376    1.081   .     S
C352   C947    1.390   .     S
C353   Cl367   1.766   .     S
C353   C946    1.390   1_554 S
C354   H377    1.081   .     S
C354   C953    1.390   1_554 S
C355   O396    1.220   .     D
C355   H382    1.085   .     S
C355   C360    1.490   .     S
C356   C361    1.492   .     S
C356   O386    1.220   .     D
C356   H372    1.086   .     S
C357   C362    1.482   .     S
C357   H373    1.085   .     S
C357   O387    1.221   .     D
C358   O388    1.221   .     D
C358   H374    1.085   .     S
C358   C363    1.481   .     S
C359   Cl368   1.765   .     S
C359   C948    1.390   .     S
C361   C364    1.418   .     A
C361   C231    1.402   1_655 S
C362   C364    1.420   .     A
C362   C228    1.401   1_655 S
Cu369  O394    1.970   .     S
Cu369  N383    2.007   .     S
Cu369  O390    1.982   .     S
Cu369  Cu370   2.670   .     S
Cu369  O392    1.967   .     S
Cu369  O385    1.983   .     S
Cu370  O389    1.983   .     S
Cu370  O393    1.967   .     S
Cu370  N384    2.007   .     S
Cu370  O395    1.970   .     S
Cu370  O391    1.982   .     S
C397   O451    1.292   .     A
C397   C398    1.479   .     S
C397   O457    1.296   .     A
C398   C426    1.416   .     A
C398   C429    1.420   .     A
C399   N450    1.366   .     A
C399   H444    1.080   .     S
C400   H445    1.082   .     S
C400   N449    1.366   .     A
C400   C5      1.414   1_565 S
C401   N450    1.366   .     A
C401   H446    1.082   .     S
C402   H447    1.081   .     S
C402   N449    1.366   .     A
C402   C3      1.413   1_565 S
C403   O458    1.292   .     A
C403   O461    1.289   .     A
C403   C409    1.458   .     S
C404   O460    1.289   .     A
C404   C407    1.459   .     S
C404   O459    1.292   .     A
C405   C416    1.394   .     A
C405   H437    1.083   .     S
C405   C407    1.396   .     A
C406   H441    1.083   .     S
C406   C417    1.394   .     A
C406   C409    1.395   .     A
C407   C410    1.409   .     A
C408   C430    1.478   .     S
C408   O456    1.296   .     A
C408   O455    1.292   .     A
C409   C411    1.409   .     A
C410   C412    1.407   .     A
C410   Cl431   1.777   .     S
C411   C413    1.407   .     A
C411   Cl432   1.777   .     S
C412   C414    1.418   .     A
C412   C418    1.405   .     A
C413   C420    1.405   .     A
C413   C415    1.418   .     A
C414   C416    1.415   .     A
C414   C1009   1.410   .     S
C415   C417    1.415   .     A
C415   C1008   1.410   1_554 S
C416   C425    1.408   .     A
C417   C419    1.408   .     A
C418   H442    1.081   .     S
C418   C1013   1.390   .     S
C419   Cl433   1.766   .     S
C419   C1012   1.390   1_554 S
C420   H443    1.081   .     S
C420   C1019   1.390   1_554 S
C421   O462    1.220   .     D
C421   H448    1.085   .     S
C421   C426    1.490   .     S
C422   C427    1.492   .     S
C422   O452    1.220   .     D
C422   H438    1.086   .     S
C423   C428    1.482   .     S
C423   H439    1.085   .     S
C423   O453    1.221   .     D
C424   O454    1.221   .     D
C424   H440    1.085   .     S
C424   C429    1.481   .     S
C425   Cl434   1.765   .     S
C425   C1014   1.390   .     S
C426   C560    1.401   1_455 S
C427   C430    1.418   .     A
C427   C495    1.402   .     S
C428   C430    1.420   .     A
C428   C492    1.401   .     S
C429   C559    1.402   1_455 S
Cu435  O460    1.970   .     S
Cu435  N449    2.007   .     S
Cu435  O456    1.982   .     S
Cu435  Cu436   2.670   .     S
Cu435  O458    1.967   .     S
Cu435  O451    1.983   .     S
Cu436  O455    1.983   .     S
Cu436  O459    1.967   .     S
Cu436  N450    2.007   .     S
Cu436  O461    1.970   .     S
Cu436  O457    1.982   .     S
C463   O517    1.292   .     A
C463   C464    1.479   .     S
C463   O523    1.296   .     A
C464   C492    1.416   .     A
C464   C495    1.420   .     A
C465   N516    1.366   .     A
C465   H510    1.080   .     S
C466   H511    1.082   .     S
C466   N515    1.366   .     A
C466   C71     1.414   1_565 S
C467   N516    1.366   .     A
C467   H512    1.082   .     S
C468   H513    1.081   .     S
C468   N515    1.366   .     A
C468   C69     1.413   1_565 S
C469   O524    1.292   .     A
C469   O527    1.289   .     A
C469   C475    1.458   .     S
C470   O526    1.289   .     A
C470   C473    1.459   .     S
C470   O525    1.292   .     A
C471   C482    1.394   .     A
C471   H503    1.083   .     S
C471   C473    1.396   .     A
C472   H507    1.083   .     S
C472   C483    1.394   .     A
C472   C475    1.395   .     A
C473   C476    1.409   .     A
C474   C496    1.478   .     S
C474   O522    1.296   .     A
C474   O521    1.292   .     A
C475   C477    1.409   .     A
C476   C478    1.407   .     A
C476   Cl497   1.777   .     S
C477   C479    1.407   .     A
C477   Cl498   1.777   .     S
C478   C480    1.418   .     A
C478   C484    1.405   .     A
C479   C486    1.405   .     A
C479   C481    1.418   .     A
C480   C482    1.415   .     A
C480   C1075   1.410   .     S
C481   C483    1.415   .     A
C481   C1074   1.410   1_554 S
C482   C491    1.408   .     A
C483   C485    1.408   .     A
C484   H508    1.081   .     S
C484   C1079   1.390   .     S
C485   Cl499   1.766   .     S
C485   C1078   1.390   1_554 S
C486   H509    1.081   .     S
C486   C1085   1.390   1_554 S
C487   O528    1.220   .     D
C487   H514    1.085   .     S
C487   C492    1.490   .     S
C488   C493    1.492   .     S
C488   O518    1.220   .     D
C488   H504    1.086   .     S
C489   C494    1.482   .     S
C489   H505    1.085   .     S
C489   O519    1.221   .     D
C490   O520    1.221   .     D
C490   H506    1.085   .     S
C490   C495    1.481   .     S
C491   Cl500   1.765   .     S
C491   C1080   1.390   .     S
C493   C496    1.418   .     A
C493   C561    1.402   .     S
C494   C496    1.420   .     A
C494   C558    1.401   .     S
Cu501  O526    1.970   .     S
Cu501  N515    2.007   .     S
Cu501  O522    1.982   .     S
Cu501  Cu502   2.670   .     S
Cu501  O524    1.967   .     S
Cu501  O517    1.983   .     S
Cu502  O521    1.983   .     S
Cu502  O525    1.967   .     S
Cu502  N516    2.007   .     S
Cu502  O527    1.970   .     S
Cu502  O523    1.982   .     S
C529   O583    1.292   .     A
C529   C530    1.479   .     S
C529   O589    1.296   .     A
C530   C558    1.416   .     A
C530   C561    1.420   .     A
C531   N582    1.366   .     A
C531   H576    1.080   .     S
C532   H577    1.082   .     S
C532   N581    1.366   .     A
C532   C137    1.414   1_565 S
C533   N582    1.366   .     A
C533   H578    1.082   .     S
C534   H579    1.081   .     S
C534   N581    1.366   .     A
C534   C135    1.413   1_565 S
C535   O590    1.292   .     A
C535   O593    1.289   .     A
C535   C541    1.458   .     S
C536   O592    1.289   .     A
C536   C539    1.459   .     S
C536   O591    1.292   .     A
C537   C548    1.394   .     A
C537   H569    1.083   .     S
C537   C539    1.396   .     A
C538   H573    1.083   .     S
C538   C549    1.394   .     A
C538   C541    1.395   .     A
C539   C542    1.409   .     A
C540   C562    1.478   .     S
C540   O588    1.296   .     A
C540   O587    1.292   .     A
C541   C543    1.409   .     A
C542   C544    1.407   .     A
C542   Cl563   1.777   .     S
C543   C545    1.407   .     A
C543   Cl564   1.777   .     S
C544   C546    1.418   .     A
C544   C550    1.405   .     A
C545   C552    1.405   .     A
C545   C547    1.418   .     A
C546   C548    1.415   .     A
C546   C1141   1.410   .     S
C547   C549    1.415   .     A
C547   C1140   1.410   1_554 S
C548   C557    1.408   .     A
C549   C551    1.408   .     A
C550   H574    1.081   .     S
C550   C1145   1.390   .     S
C551   Cl565   1.766   .     S
C551   C1144   1.390   1_554 S
C552   H575    1.081   .     S
C552   C1151   1.390   1_554 S
C553   O594    1.220   .     D
C553   H580    1.085   .     S
C553   C558    1.490   .     S
C554   C559    1.492   .     S
C554   O584    1.220   .     D
C554   H570    1.086   .     S
C555   C560    1.482   .     S
C555   H571    1.085   .     S
C555   O585    1.221   .     D
C556   O586    1.221   .     D
C556   H572    1.085   .     S
C556   C561    1.481   .     S
C557   Cl566   1.765   .     S
C557   C1146   1.390   .     S
C559   C562    1.418   .     A
C559   C429    1.402   1_655 S
C560   C562    1.420   .     A
C560   C426    1.401   1_655 S
Cu567  O592    1.970   .     S
Cu567  N581    2.007   .     S
Cu567  O588    1.982   .     S
Cu567  Cu568   2.670   .     S
Cu567  O590    1.967   .     S
Cu567  O583    1.983   .     S
Cu568  O587    1.983   .     S
Cu568  O591    1.967   .     S
Cu568  N582    2.007   .     S
Cu568  O593    1.970   .     S
Cu568  O589    1.982   .     S
C595   O649    1.292   .     A
C595   C596    1.479   .     S
C595   O655    1.296   .     A
C596   C624    1.416   .     A
C596   C627    1.420   .     A
C597   N648    1.366   .     A
C597   H642    1.080   .     S
C597   C996    1.413   1_545 S
C598   H643    1.082   .     S
C598   N647    1.366   .     A
C598   C797    1.414   .     S
C599   N648    1.366   .     A
C599   H644    1.082   .     S
C599   C994    1.414   1_545 S
C600   H645    1.081   .     S
C600   N647    1.366   .     A
C600   C795    1.413   .     S
C601   O656    1.292   .     A
C601   O659    1.289   .     A
C601   C607    1.458   .     S
C602   O658    1.289   .     A
C602   C605    1.459   .     S
C602   O657    1.292   .     A
C603   C614    1.394   .     A
C603   H635    1.083   .     S
C603   C605    1.396   .     A
C604   H639    1.083   .     S
C604   C615    1.394   .     A
C604   C607    1.395   .     A
C605   C608    1.409   .     A
C606   C628    1.478   .     S
C606   O654    1.296   .     A
C606   O653    1.292   .     A
C607   C609    1.409   .     A
C608   C610    1.407   .     A
C608   Cl629   1.777   .     S
C609   C611    1.407   .     A
C609   Cl630   1.777   .     S
C610   C612    1.418   .     A
C610   C616    1.405   .     A
C611   C618    1.405   .     A
C611   C613    1.418   .     A
C612   C614    1.415   .     A
C612   C19     1.410   1_556 S
C613   C615    1.415   .     A
C614   C623    1.408   .     A
C615   C617    1.408   .     A
C616   H640    1.081   .     S
C616   C23     1.390   1_556 S
C617   Cl631   1.766   .     S
C618   H641    1.081   .     S
C619   O660    1.220   .     D
C619   H646    1.085   .     S
C619   C624    1.490   .     S
C620   C625    1.492   .     S
C620   O650    1.220   .     D
C620   H636    1.086   .     S
C621   C626    1.482   .     S
C621   H637    1.085   .     S
C621   O651    1.221   .     D
C622   O652    1.221   .     D
C622   H638    1.085   .     S
C622   C627    1.481   .     S
C623   Cl632   1.765   .     S
C623   C24     1.390   1_556 S
C624   C758    1.401   1_455 S
C625   C628    1.418   .     A
C625   C693    1.402   .     S
C626   C628    1.420   .     A
C626   C690    1.401   .     S
C627   C757    1.402   1_455 S
Cu633  O658    1.970   .     S
Cu633  N647    2.007   .     S
Cu633  O654    1.982   .     S
Cu633  Cu634   2.670   .     S
Cu633  O656    1.967   .     S
Cu633  O649    1.983   .     S
Cu634  O653    1.983   .     S
Cu634  O657    1.967   .     S
Cu634  N648    2.007   .     S
Cu634  O659    1.970   .     S
Cu634  O655    1.982   .     S
C661   O715    1.292   .     A
C661   C662    1.479   .     S
C661   O721    1.296   .     A
C662   C690    1.416   .     A
C662   C693    1.420   .     A
C663   N714    1.366   .     A
C663   H708    1.080   .     S
C663   C1062   1.413   1_545 S
C664   H709    1.082   .     S
C664   N713    1.366   .     A
C664   C863    1.414   .     S
C665   N714    1.366   .     A
C665   H710    1.082   .     S
C665   C1060   1.414   1_545 S
C666   H711    1.081   .     S
C666   N713    1.366   .     A
C666   C861    1.413   .     S
C667   O722    1.292   .     A
C667   O725    1.289   .     A
C667   C673    1.458   .     S
C668   O724    1.289   .     A
C668   C671    1.459   .     S
C668   O723    1.292   .     A
C669   C680    1.394   .     A
C669   H701    1.083   .     S
C669   C671    1.396   .     A
C670   H705    1.083   .     S
C670   C681    1.394   .     A
C670   C673    1.395   .     A
C671   C674    1.409   .     A
C672   C694    1.478   .     S
C672   O720    1.296   .     A
C672   O719    1.292   .     A
C673   C675    1.409   .     A
C674   C676    1.407   .     A
C674   Cl695   1.777   .     S
C675   C677    1.407   .     A
C675   Cl696   1.777   .     S
C676   C678    1.418   .     A
C676   C682    1.405   .     A
C677   C684    1.405   .     A
C677   C679    1.418   .     A
C678   C680    1.415   .     A
C678   C85     1.410   1_556 S
C679   C681    1.415   .     A
C680   C689    1.408   .     A
C681   C683    1.408   .     A
C682   H706    1.081   .     S
C682   C89     1.390   1_556 S
C683   Cl697   1.766   .     S
C684   H707    1.081   .     S
C685   O726    1.220   .     D
C685   H712    1.085   .     S
C685   C690    1.490   .     S
C686   C691    1.492   .     S
C686   O716    1.220   .     D
C686   H702    1.086   .     S
C687   C692    1.482   .     S
C687   H703    1.085   .     S
C687   O717    1.221   .     D
C688   O718    1.221   .     D
C688   H704    1.085   .     S
C688   C693    1.481   .     S
C689   Cl698   1.765   .     S
C689   C90     1.390   1_556 S
C691   C694    1.418   .     A
C691   C759    1.402   .     S
C692   C694    1.420   .     A
C692   C756    1.401   .     S
Cu699  O724    1.970   .     S
Cu699  N713    2.007   .     S
Cu699  O720    1.982   .     S
Cu699  Cu700   2.670   .     S
Cu699  O722    1.967   .     S
Cu699  O715    1.983   .     S
Cu700  O719    1.983   .     S
Cu700  O723    1.967   .     S
Cu700  N714    2.007   .     S
Cu700  O725    1.970   .     S
Cu700  O721    1.982   .     S
C727   O781    1.292   .     A
C727   C728    1.479   .     S
C727   O787    1.296   .     A
C728   C756    1.416   .     A
C728   C759    1.420   .     A
C729   N780    1.366   .     A
C729   H774    1.080   .     S
C729   C1128   1.413   1_545 S
C730   H775    1.082   .     S
C730   N779    1.366   .     A
C730   C929    1.414   .     S
C731   N780    1.366   .     A
C731   H776    1.082   .     S
C731   C1126   1.414   1_545 S
C732   H777    1.081   .     S
C732   N779    1.366   .     A
C732   C927    1.413   .     S
C733   O788    1.292   .     A
C733   O791    1.289   .     A
C733   C739    1.458   .     S
C734   O790    1.289   .     A
C734   C737    1.459   .     S
C734   O789    1.292   .     A
C735   C746    1.394   .     A
C735   H767    1.083   .     S
C735   C737    1.396   .     A
C736   H771    1.083   .     S
C736   C747    1.394   .     A
C736   C739    1.395   .     A
C737   C740    1.409   .     A
C738   C760    1.478   .     S
C738   O786    1.296   .     A
C738   O785    1.292   .     A
C739   C741    1.409   .     A
C740   C742    1.407   .     A
C740   Cl761   1.777   .     S
C741   C743    1.407   .     A
C741   Cl762   1.777   .     S
C742   C744    1.418   .     A
C742   C748    1.405   .     A
C743   C750    1.405   .     A
C743   C745    1.418   .     A
C744   C746    1.415   .     A
C744   C151    1.410   1_556 S
C745   C747    1.415   .     A
C746   C755    1.408   .     A
C747   C749    1.408   .     A
C748   H772    1.081   .     S
C748   C155    1.390   1_556 S
C749   Cl763   1.766   .     S
C750   H773    1.081   .     S
C751   O792    1.220   .     D
C751   H778    1.085   .     S
C751   C756    1.490   .     S
C752   C757    1.492   .     S
C752   O782    1.220   .     D
C752   H768    1.086   .     S
C753   C758    1.482   .     S
C753   H769    1.085   .     S
C753   O783    1.221   .     D
C754   O784    1.221   .     D
C754   H770    1.085   .     S
C754   C759    1.481   .     S
C755   Cl764   1.765   .     S
C755   C156    1.390   1_556 S
C757   C760    1.418   .     A
C757   C627    1.402   1_655 S
C758   C760    1.420   .     A
C758   C624    1.401   1_655 S
Cu765  O790    1.970   .     S
Cu765  N779    2.007   .     S
Cu765  O786    1.982   .     S
Cu765  Cu766   2.670   .     S
Cu765  O788    1.967   .     S
Cu765  O781    1.983   .     S
Cu766  O785    1.983   .     S
Cu766  O789    1.967   .     S
Cu766  N780    2.007   .     S
Cu766  O791    1.970   .     S
Cu766  O787    1.982   .     S
C793   O847    1.292   .     A
C793   C794    1.479   .     S
C793   O853    1.296   .     A
C794   C822    1.416   .     A
C794   C825    1.420   .     A
C795   N846    1.366   .     A
C795   H840    1.080   .     S
C796   H841    1.082   .     S
C796   N845    1.366   .     A
C796   C995    1.414   .     S
C797   N846    1.366   .     A
C797   H842    1.082   .     S
C798   H843    1.081   .     S
C798   N845    1.366   .     A
C798   C993    1.413   .     S
C799   O854    1.292   .     A
C799   O857    1.289   .     A
C799   C805    1.458   .     S
C800   O856    1.289   .     A
C800   C803    1.459   .     S
C800   O855    1.292   .     A
C801   C812    1.394   .     A
C801   H833    1.083   .     S
C801   C803    1.396   .     A
C802   H837    1.083   .     S
C802   C813    1.394   .     A
C802   C805    1.395   .     A
C803   C806    1.409   .     A
C804   C826    1.478   .     S
C804   O852    1.296   .     A
C804   O851    1.292   .     A
C805   C807    1.409   .     A
C806   C808    1.407   .     A
C806   Cl827   1.777   .     S
C807   C809    1.407   .     A
C807   Cl828   1.777   .     S
C808   C810    1.418   .     A
C808   C814    1.405   .     A
C809   C816    1.405   .     A
C809   C811    1.418   .     A
C810   C812    1.415   .     A
C810   C217    1.410   1_556 S
C811   C813    1.415   .     A
C812   C821    1.408   .     A
C813   C815    1.408   .     A
C814   H838    1.081   .     S
C814   C221    1.390   1_556 S
C815   Cl829   1.766   .     S
C816   H839    1.081   .     S
C817   O858    1.220   .     D
C817   H844    1.085   .     S
C817   C822    1.490   .     S
C818   C823    1.492   .     S
C818   O848    1.220   .     D
C818   H834    1.086   .     S
C819   C824    1.482   .     S
C819   H835    1.085   .     S
C819   O849    1.221   .     D
C820   O850    1.221   .     D
C820   H836    1.085   .     S
C820   C825    1.481   .     S
C821   Cl830   1.765   .     S
C821   C222    1.390   1_556 S
C822   C956    1.401   1_455 S
C823   C826    1.418   .     A
C823   C891    1.402   .     S
C824   C826    1.420   .     A
C824   C888    1.401   .     S
C825   C955    1.402   1_455 S
Cu831  O856    1.970   .     S
Cu831  N845    2.007   .     S
Cu831  O852    1.982   .     S
Cu831  Cu832   2.670   .     S
Cu831  O854    1.967   .     S
Cu831  O847    1.983   .     S
Cu832  O851    1.983   .     S
Cu832  O855    1.967   .     S
Cu832  N846    2.007   .     S
Cu832  O857    1.970   .     S
Cu832  O853    1.982   .     S
C859   O913    1.292   .     A
C859   C860    1.479   .     S
C859   O919    1.296   .     A
C860   C888    1.416   .     A
C860   C891    1.420   .     A
C861   N912    1.366   .     A
C861   H906    1.080   .     S
C862   H907    1.082   .     S
C862   N911    1.366   .     A
C862   C1061   1.414   .     S
C863   N912    1.366   .     A
C863   H908    1.082   .     S
C864   H909    1.081   .     S
C864   N911    1.366   .     A
C864   C1059   1.413   .     S
C865   O920    1.292   .     A
C865   O923    1.289   .     A
C865   C871    1.458   .     S
C866   O922    1.289   .     A
C866   C869    1.459   .     S
C866   O921    1.292   .     A
C867   C878    1.394   .     A
C867   H899    1.083   .     S
C867   C869    1.396   .     A
C868   H903    1.083   .     S
C868   C879    1.394   .     A
C868   C871    1.395   .     A
C869   C872    1.409   .     A
C870   C892    1.478   .     S
C870   O918    1.296   .     A
C870   O917    1.292   .     A
C871   C873    1.409   .     A
C872   C874    1.407   .     A
C872   Cl893   1.777   .     S
C873   C875    1.407   .     A
C873   Cl894   1.777   .     S
C874   C876    1.418   .     A
C874   C880    1.405   .     A
C875   C882    1.405   .     A
C875   C877    1.418   .     A
C876   C878    1.415   .     A
C876   C283    1.410   1_556 S
C877   C879    1.415   .     A
C878   C887    1.408   .     A
C879   C881    1.408   .     A
C880   H904    1.081   .     S
C880   C287    1.390   1_556 S
C881   Cl895   1.766   .     S
C882   H905    1.081   .     S
C883   O924    1.220   .     D
C883   H910    1.085   .     S
C883   C888    1.490   .     S
C884   C889    1.492   .     S
C884   O914    1.220   .     D
C884   H900    1.086   .     S
C885   C890    1.482   .     S
C885   H901    1.085   .     S
C885   O915    1.221   .     D
C886   O916    1.221   .     D
C886   H902    1.085   .     S
C886   C891    1.481   .     S
C887   Cl896   1.765   .     S
C887   C288    1.390   1_556 S
C889   C892    1.418   .     A
C889   C957    1.402   .     S
C890   C892    1.420   .     A
C890   C954    1.401   .     S
Cu897  O922    1.970   .     S
Cu897  N911    2.007   .     S
Cu897  O918    1.982   .     S
Cu897  Cu898   2.670   .     S
Cu897  O920    1.967   .     S
Cu897  O913    1.983   .     S
Cu898  O917    1.983   .     S
Cu898  O921    1.967   .     S
Cu898  N912    2.007   .     S
Cu898  O923    1.970   .     S
Cu898  O919    1.982   .     S
C925   O979    1.292   .     A
C925   C926    1.479   .     S
C925   O985    1.296   .     A
C926   C954    1.416   .     A
C926   C957    1.420   .     A
C927   N978    1.366   .     A
C927   H972    1.080   .     S
C928   H973    1.082   .     S
C928   N977    1.366   .     A
C928   C1127   1.414   .     S
C929   N978    1.366   .     A
C929   H974    1.082   .     S
C930   H975    1.081   .     S
C930   N977    1.366   .     A
C930   C1125   1.413   .     S
C931   O986    1.292   .     A
C931   O989    1.289   .     A
C931   C937    1.458   .     S
C932   O988    1.289   .     A
C932   C935    1.459   .     S
C932   O987    1.292   .     A
C933   C944    1.394   .     A
C933   H965    1.083   .     S
C933   C935    1.396   .     A
C934   H969    1.083   .     S
C934   C945    1.394   .     A
C934   C937    1.395   .     A
C935   C938    1.409   .     A
C936   C958    1.478   .     S
C936   O984    1.296   .     A
C936   O983    1.292   .     A
C937   C939    1.409   .     A
C938   C940    1.407   .     A
C938   Cl959   1.777   .     S
C939   C941    1.407   .     A
C939   Cl960   1.777   .     S
C940   C942    1.418   .     A
C940   C946    1.405   .     A
C941   C948    1.405   .     A
C941   C943    1.418   .     A
C942   C944    1.415   .     A
C942   C349    1.410   1_556 S
C943   C945    1.415   .     A
C944   C953    1.408   .     A
C945   C947    1.408   .     A
C946   H970    1.081   .     S
C946   C353    1.390   1_556 S
C947   Cl961   1.766   .     S
C948   H971    1.081   .     S
C949   O990    1.220   .     D
C949   H976    1.085   .     S
C949   C954    1.490   .     S
C950   C955    1.492   .     S
C950   O980    1.220   .     D
C950   H966    1.086   .     S
C951   C956    1.482   .     S
C951   H967    1.085   .     S
C951   O981    1.221   .     D
C952   O982    1.221   .     D
C952   H968    1.085   .     S
C952   C957    1.481   .     S
C953   Cl962   1.765   .     S
C953   C354    1.390   1_556 S
C955   C958    1.418   .     A
C955   C825    1.402   1_655 S
C956   C958    1.420   .     A
C956   C822    1.401   1_655 S
Cu963  O988    1.970   .     S
Cu963  N977    2.007   .     S
Cu963  O984    1.982   .     S
Cu963  Cu964   2.670   .     S
Cu963  O986    1.967   .     S
Cu963  O979    1.983   .     S
Cu964  O983    1.983   .     S
Cu964  O987    1.967   .     S
Cu964  N978    2.007   .     S
Cu964  O989    1.970   .     S
Cu964  O985    1.982   .     S
C991   O1045   1.292   .     A
C991   C992    1.479   .     S
C991   O1051   1.296   .     A
C992   C1020   1.416   .     A
C992   C1023   1.420   .     A
C993   N1044   1.366   .     A
C993   H1038   1.080   .     S
C994   H1039   1.082   .     S
C994   N1043   1.366   .     A
C994   C599    1.414   1_565 S
C995   N1044   1.366   .     A
C995   H1040   1.082   .     S
C996   H1041   1.081   .     S
C996   N1043   1.366   .     A
C996   C597    1.413   1_565 S
C997   O1052   1.292   .     A
C997   O1055   1.289   .     A
C997   C1003   1.458   .     S
C998   O1054   1.289   .     A
C998   C1001   1.459   .     S
C998   O1053   1.292   .     A
C999   C1010   1.394   .     A
C999   H1031   1.083   .     S
C999   C1001   1.396   .     A
C1000  H1035   1.083   .     S
C1000  C1011   1.394   .     A
C1000  C1003   1.395   .     A
C1001  C1004   1.409   .     A
C1002  C1024   1.478   .     S
C1002  O1050   1.296   .     A
C1002  O1049   1.292   .     A
C1003  C1005   1.409   .     A
C1004  C1006   1.407   .     A
C1004  Cl1025  1.777   .     S
C1005  C1007   1.407   .     A
C1005  Cl1026  1.777   .     S
C1006  C1008   1.418   .     A
C1006  C1012   1.405   .     A
C1007  C1014   1.405   .     A
C1007  C1009   1.418   .     A
C1008  C1010   1.415   .     A
C1008  C415    1.410   1_556 S
C1009  C1011   1.415   .     A
C1010  C1019   1.408   .     A
C1011  C1013   1.408   .     A
C1012  H1036   1.081   .     S
C1012  C419    1.390   1_556 S
C1013  Cl1027  1.766   .     S
C1014  H1037   1.081   .     S
C1015  O1056   1.220   .     D
C1015  H1042   1.085   .     S
C1015  C1020   1.490   .     S
C1016  C1021   1.492   .     S
C1016  O1046   1.220   .     D
C1016  H1032   1.086   .     S
C1017  C1022   1.482   .     S
C1017  H1033   1.085   .     S
C1017  O1047   1.221   .     D
C1018  O1048   1.221   .     D
C1018  H1034   1.085   .     S
C1018  C1023   1.481   .     S
C1019  Cl1028  1.765   .     S
C1019  C420    1.390   1_556 S
C1020  C1154   1.401   1_455 S
C1021  C1024   1.418   .     A
C1021  C1089   1.402   .     S
C1022  C1024   1.420   .     A
C1022  C1086   1.401   .     S
C1023  C1153   1.402   1_455 S
Cu1029 O1054   1.970   .     S
Cu1029 N1043   2.007   .     S
Cu1029 O1050   1.982   .     S
Cu1029 Cu1030  2.670   .     S
Cu1029 O1052   1.967   .     S
Cu1029 O1045   1.983   .     S
Cu1030 O1049   1.983   .     S
Cu1030 O1053   1.967   .     S
Cu1030 N1044   2.007   .     S
Cu1030 O1055   1.970   .     S
Cu1030 O1051   1.982   .     S
C1057  O1111   1.292   .     A
C1057  C1058   1.479   .     S
C1057  O1117   1.296   .     A
C1058  C1086   1.416   .     A
C1058  C1089   1.420   .     A
C1059  N1110   1.366   .     A
C1059  H1104   1.080   .     S
C1060  H1105   1.082   .     S
C1060  N1109   1.366   .     A
C1060  C665    1.414   1_565 S
C1061  N1110   1.366   .     A
C1061  H1106   1.082   .     S
C1062  H1107   1.081   .     S
C1062  N1109   1.366   .     A
C1062  C663    1.413   1_565 S
C1063  O1118   1.292   .     A
C1063  O1121   1.289   .     A
C1063  C1069   1.458   .     S
C1064  O1120   1.289   .     A
C1064  C1067   1.459   .     S
C1064  O1119   1.292   .     A
C1065  C1076   1.394   .     A
C1065  H1097   1.083   .     S
C1065  C1067   1.396   .     A
C1066  H1101   1.083   .     S
C1066  C1077   1.394   .     A
C1066  C1069   1.395   .     A
C1067  C1070   1.409   .     A
C1068  C1090   1.478   .     S
C1068  O1116   1.296   .     A
C1068  O1115   1.292   .     A
C1069  C1071   1.409   .     A
C1070  C1072   1.407   .     A
C1070  Cl1091  1.777   .     S
C1071  C1073   1.407   .     A
C1071  Cl1092  1.777   .     S
C1072  C1074   1.418   .     A
C1072  C1078   1.405   .     A
C1073  C1080   1.405   .     A
C1073  C1075   1.418   .     A
C1074  C1076   1.415   .     A
C1074  C481    1.410   1_556 S
C1075  C1077   1.415   .     A
C1076  C1085   1.408   .     A
C1077  C1079   1.408   .     A
C1078  H1102   1.081   .     S
C1078  C485    1.390   1_556 S
C1079  Cl1093  1.766   .     S
C1080  H1103   1.081   .     S
C1081  O1122   1.220   .     D
C1081  H1108   1.085   .     S
C1081  C1086   1.490   .     S
C1082  C1087   1.492   .     S
C1082  O1112   1.220   .     D
C1082  H1098   1.086   .     S
C1083  C1088   1.482   .     S
C1083  H1099   1.085   .     S
C1083  O1113   1.221   .     D
C1084  O1114   1.221   .     D
C1084  H1100   1.085   .     S
C1084  C1089   1.481   .     S
C1085  Cl1094  1.765   .     S
C1085  C486    1.390   1_556 S
C1087  C1090   1.418   .     A
C1087  C1155   1.402   .     S
C1088  C1090   1.420   .     A
C1088  C1152   1.401   .     S
Cu1095 O1120   1.970   .     S
Cu1095 N1109   2.007   .     S
Cu1095 O1116   1.982   .     S
Cu1095 Cu1096  2.670   .     S
Cu1095 O1118   1.967   .     S
Cu1095 O1111   1.983   .     S
Cu1096 O1115   1.983   .     S
Cu1096 O1119   1.967   .     S
Cu1096 N1110   2.007   .     S
Cu1096 O1121   1.970   .     S
Cu1096 O1117   1.982   .     S
C1123  O1177   1.292   .     A
C1123  C1124   1.479   .     S
C1123  O1183   1.296   .     A
C1124  C1152   1.416   .     A
C1124  C1155   1.420   .     A
C1125  N1176   1.366   .     A
C1125  H1170   1.080   .     S
C1126  H1171   1.082   .     S
C1126  N1175   1.366   .     A
C1126  C731    1.414   1_565 S
C1127  N1176   1.366   .     A
C1127  H1172   1.082   .     S
C1128  H1173   1.081   .     S
C1128  N1175   1.366   .     A
C1128  C729    1.413   1_565 S
C1129  O1184   1.292   .     A
C1129  O1187   1.289   .     A
C1129  C1135   1.458   .     S
C1130  O1186   1.289   .     A
C1130  C1133   1.459   .     S
C1130  O1185   1.292   .     A
C1131  C1142   1.394   .     A
C1131  H1163   1.083   .     S
C1131  C1133   1.396   .     A
C1132  H1167   1.083   .     S
C1132  C1143   1.394   .     A
C1132  C1135   1.395   .     A
C1133  C1136   1.409   .     A
C1134  C1156   1.478   .     S
C1134  O1182   1.296   .     A
C1134  O1181   1.292   .     A
C1135  C1137   1.409   .     A
C1136  C1138   1.407   .     A
C1136  Cl1157  1.777   .     S
C1137  C1139   1.407   .     A
C1137  Cl1158  1.777   .     S
C1138  C1140   1.418   .     A
C1138  C1144   1.405   .     A
C1139  C1146   1.405   .     A
C1139  C1141   1.418   .     A
C1140  C1142   1.415   .     A
C1140  C547    1.410   1_556 S
C1141  C1143   1.415   .     A
C1142  C1151   1.408   .     A
C1143  C1145   1.408   .     A
C1144  H1168   1.081   .     S
C1144  C551    1.390   1_556 S
C1145  Cl1159  1.766   .     S
C1146  H1169   1.081   .     S
C1147  O1188   1.220   .     D
C1147  H1174   1.085   .     S
C1147  C1152   1.490   .     S
C1148  C1153   1.492   .     S
C1148  O1178   1.220   .     D
C1148  H1164   1.086   .     S
C1149  C1154   1.482   .     S
C1149  H1165   1.085   .     S
C1149  O1179   1.221   .     D
C1150  O1180   1.221   .     D
C1150  H1166   1.085   .     S
C1150  C1155   1.481   .     S
C1151  Cl1160  1.765   .     S
C1151  C552    1.390   1_556 S
C1153  C1156   1.418   .     A
C1153  C1023   1.402   1_655 S
C1154  C1156   1.420   .     A
C1154  C1020   1.401   1_655 S
Cu1161 O1186   1.970   .     S
Cu1161 N1175   2.007   .     S
Cu1161 O1182   1.982   .     S
Cu1161 Cu1162  2.670   .     S
Cu1161 O1184   1.967   .     S
Cu1161 O1177   1.983   .     S
Cu1162 O1181   1.983   .     S
Cu1162 O1185   1.967   .     S
Cu1162 N1176   2.007   .     S
Cu1162 O1187   1.970   .     S
Cu1162 O1183   1.982   .     S
