data_str_m2_o1_o17_pcu_sym.221
_audit_creation_date              2020-01-03
_audit_creation_method            'Materials Studio'
_symmetry_space_group_name_H-M    'P1'
_symmetry_Int_Tables_number       1
_symmetry_cell_setting            triclinic
loop_
_symmetry_equiv_pos_as_xyz
  x,y,z
_cell_length_a                    32.3615
_cell_length_b                    28.5426
_cell_length_c                    30.1860
_cell_angle_alpha                 89.9734
_cell_angle_beta                  90.2119
_cell_angle_gamma                 90.1757
loop_
_atom_site_label
_atom_site_type_symbol
_atom_site_fract_x
_atom_site_fract_y
_atom_site_fract_z
_atom_site_U_iso_or_equiv
_atom_site_adp_type
_atom_site_occupancy
C1     C     0.08750   0.16660   0.24994   0.00000  Uiso   1.00
C2     C     0.24584   0.16676   0.24955   0.00000  Uiso   1.00
C3     C     0.13279   0.24426   0.02147   0.00000  Uiso   1.00
C4     C     0.20024   0.08894   0.47855   0.00000  Uiso   1.00
C5     C     0.02143   0.14364   0.21493   0.00000  Uiso   1.00
C6     C     0.31142   0.19086   0.28265   0.00000  Uiso   1.00
C7     C     0.31186   0.14358   0.21461   0.00000  Uiso   1.00
C8     C     0.02138   0.18971   0.28404   0.00000  Uiso   1.00
C9     C     0.29043   0.16712   0.24861   0.00000  Uiso   1.00
C10    C     0.04289   0.16647   0.24973   0.00000  Uiso   1.00
C11    C     0.14114   0.02474   0.22224   0.00000  Uiso   1.00
C12    C     0.19220   0.30859   0.27776   0.00000  Uiso   1.00
C13    C     0.19220   0.02488   0.27775   0.00000  Uiso   1.00
C14    C     0.14113   0.30846   0.22225   0.00000  Uiso   1.00
C15    C     0.16512   0.16667   0.16438   0.00000  Uiso   1.00
C16    C     0.16820   0.16666   0.33562   0.00000  Uiso   1.00
C17    C     0.18923   0.12973   0.40756   0.00000  Uiso   1.00
C18    C     0.14391   0.20353   0.09246   0.00000  Uiso   1.00
C19    C     0.17066   0.16683   0.38402   0.00000  Uiso   1.00
C20    C     0.16256   0.16647   0.11600   0.00000  Uiso   1.00
C21    C     0.15330   0.20440   0.40658   0.00000  Uiso   1.00
C22    C     0.17988   0.12888   0.09343   0.00000  Uiso   1.00
C23    C     0.15258   0.20569   0.45272   0.00000  Uiso   1.00
C24    C     0.18051   0.12755   0.04729   0.00000  Uiso   1.00
C25    C     0.16763   0.16662   0.47674   0.00000  Uiso   1.00
C26    C     0.16545   0.16662   0.02327   0.00000  Uiso   1.00
C27    C     0.18558   0.12797   0.45417   0.00000  Uiso   1.00
C28    C     0.14750   0.20526   0.04585   0.00000  Uiso   1.00
C29    C     0.13664   0.24509   0.47501   0.00000  Uiso   1.00
C30    C     0.19641   0.08813   0.02500   0.00000  Uiso   1.00
Cu31   Cu    0.16667   0.21355   0.25000   0.00000  Uiso   1.00
Cu32   Cu    0.16667   0.11978   0.25000   0.00000  Uiso   1.00
H33    H     0.13931   0.23208   0.38736   0.00000  Uiso   1.00
H34    H     0.19391   0.10122   0.11263   0.00000  Uiso   1.00
H35    H     0.12069   0.04341   0.20001   0.00000  Uiso   1.00
H36    H     0.21265   0.28993   0.29998   0.00000  Uiso   1.00
H37    H     0.21269   0.04363   0.29993   0.00000  Uiso   1.00
H38    H     0.12064   0.28970   0.20007   0.00000  Uiso   1.00
N39    N     0.16667   0.28402   0.25000   0.00000  Uiso   1.00
N40    N     0.16667   0.04931   0.25000   0.00000  Uiso   1.00
O41    O     0.10655   0.20625   0.24999   0.00000  Uiso   1.00
O42    O     0.22679   0.12709   0.25000   0.00000  Uiso   1.00
O43    O     0.22679   0.20625   0.25000   0.00000  Uiso   1.00
O44    O     0.10655   0.12709   0.24999   0.00000  Uiso   1.00
O45    O     0.16666   0.20627   0.18513   0.00000  Uiso   1.00
O46    O     0.16668   0.12707   0.31487   0.00000  Uiso   1.00
O47    O     0.16668   0.20627   0.31487   0.00000  Uiso   1.00
O48    O     0.16666   0.12707   0.18513   0.00000  Uiso   1.00
O49    O     0.21163   0.09572   0.38576   0.00000  Uiso   1.00
H50    H     0.22655   0.11067   0.36083   0.00000  Uiso   1.00
O51    O     0.12151   0.23752   0.11429   0.00000  Uiso   1.00
H52    H     0.10668   0.22256   0.13927   0.00000  Uiso   1.00
I53    I     0.12272   0.30886   0.43985   0.00000  Uiso   1.00
I54    I     0.21025   0.02434   0.06017   0.00000  Uiso   1.00
O55    O     0.11641   0.28209   0.04380   0.00000  Uiso   1.00
H56    H     0.09512   0.29708   0.02503   0.00000  Uiso   1.00
O57    O     0.21657   0.05108   0.45621   0.00000  Uiso   1.00
H58    H     0.23783   0.03604   0.47498   0.00000  Uiso   1.00
O59    O     0.04101   0.12200   0.17976   0.00000  Uiso   1.00
H60    H     0.06964   0.13378   0.17694   0.00000  Uiso   1.00
O61    O     0.28842   0.21302   0.31508   0.00000  Uiso   1.00
H62    H     0.30683   0.22947   0.33622   0.00000  Uiso   1.00
O63    O     0.29229   0.12154   0.17944   0.00000  Uiso   1.00
H64    H     0.26341   0.13243   0.17686   0.00000  Uiso   1.00
O65    O     0.04137   0.21079   0.31950   0.00000  Uiso   1.00
H66    H     0.06929   0.19736   0.32337   0.00000  Uiso   1.00
C67    C     0.42083   0.16660   0.24994   0.00000  Uiso   1.00
C68    C     0.57917   0.16676   0.24955   0.00000  Uiso   1.00
C69    C     0.46613   0.24426   0.02147   0.00000  Uiso   1.00
C70    C     0.53357   0.08894   0.47855   0.00000  Uiso   1.00
C71    C     0.35476   0.14364   0.21493   0.00000  Uiso   1.00
C72    C     0.64476   0.19086   0.28265   0.00000  Uiso   1.00
C73    C     0.64520   0.14358   0.21461   0.00000  Uiso   1.00
C74    C     0.35472   0.18971   0.28404   0.00000  Uiso   1.00
C75    C     0.62376   0.16712   0.24861   0.00000  Uiso   1.00
C76    C     0.37622   0.16647   0.24973   0.00000  Uiso   1.00
C77    C     0.47447   0.02474   0.22224   0.00000  Uiso   1.00
C78    C     0.52553   0.30859   0.27776   0.00000  Uiso   1.00
C79    C     0.52554   0.02488   0.27775   0.00000  Uiso   1.00
C80    C     0.47446   0.30846   0.22225   0.00000  Uiso   1.00
C81    C     0.49845   0.16667   0.16438   0.00000  Uiso   1.00
C82    C     0.50153   0.16666   0.33562   0.00000  Uiso   1.00
C83    C     0.52257   0.12973   0.40756   0.00000  Uiso   1.00
C84    C     0.47724   0.20353   0.09246   0.00000  Uiso   1.00
C85    C     0.50400   0.16683   0.38402   0.00000  Uiso   1.00
C86    C     0.49589   0.16647   0.11600   0.00000  Uiso   1.00
C87    C     0.48664   0.20440   0.40658   0.00000  Uiso   1.00
C88    C     0.51321   0.12888   0.09343   0.00000  Uiso   1.00
C89    C     0.48592   0.20569   0.45272   0.00000  Uiso   1.00
C90    C     0.51385   0.12755   0.04729   0.00000  Uiso   1.00
C91    C     0.50096   0.16662   0.47674   0.00000  Uiso   1.00
C92    C     0.49879   0.16662   0.02327   0.00000  Uiso   1.00
C93    C     0.51891   0.12797   0.45417   0.00000  Uiso   1.00
C94    C     0.48084   0.20526   0.04585   0.00000  Uiso   1.00
C95    C     0.46997   0.24509   0.47501   0.00000  Uiso   1.00
C96    C     0.52974   0.08813   0.02500   0.00000  Uiso   1.00
Cu97   Cu    0.50000   0.21355   0.25000   0.00000  Uiso   1.00
Cu98   Cu    0.50000   0.11978   0.25000   0.00000  Uiso   1.00
H99    H     0.47264   0.23208   0.38736   0.00000  Uiso   1.00
H100   H     0.52724   0.10122   0.11263   0.00000  Uiso   1.00
H101   H     0.45402   0.04341   0.20001   0.00000  Uiso   1.00
H102   H     0.54598   0.28993   0.29998   0.00000  Uiso   1.00
H103   H     0.54602   0.04363   0.29993   0.00000  Uiso   1.00
H104   H     0.45398   0.28970   0.20007   0.00000  Uiso   1.00
N105   N     0.50000   0.28402   0.25000   0.00000  Uiso   1.00
N106   N     0.50000   0.04931   0.25000   0.00000  Uiso   1.00
O107   O     0.43988   0.20625   0.24999   0.00000  Uiso   1.00
O108   O     0.56012   0.12709   0.25000   0.00000  Uiso   1.00
O109   O     0.56012   0.20625   0.25000   0.00000  Uiso   1.00
O110   O     0.43988   0.12709   0.24999   0.00000  Uiso   1.00
O111   O     0.49999   0.20627   0.18513   0.00000  Uiso   1.00
O112   O     0.50001   0.12707   0.31487   0.00000  Uiso   1.00
O113   O     0.50001   0.20627   0.31487   0.00000  Uiso   1.00
O114   O     0.49999   0.12707   0.18513   0.00000  Uiso   1.00
O115   O     0.54497   0.09572   0.38576   0.00000  Uiso   1.00
H116   H     0.55988   0.11067   0.36083   0.00000  Uiso   1.00
O117   O     0.45484   0.23752   0.11429   0.00000  Uiso   1.00
H118   H     0.44001   0.22256   0.13927   0.00000  Uiso   1.00
I119   I     0.45605   0.30886   0.43985   0.00000  Uiso   1.00
I120   I     0.54358   0.02434   0.06017   0.00000  Uiso   1.00
O121   O     0.44974   0.28209   0.04380   0.00000  Uiso   1.00
H122   H     0.42845   0.29708   0.02503   0.00000  Uiso   1.00
O123   O     0.54990   0.05108   0.45621   0.00000  Uiso   1.00
H124   H     0.57116   0.03604   0.47498   0.00000  Uiso   1.00
O125   O     0.37434   0.12200   0.17976   0.00000  Uiso   1.00
H126   H     0.40297   0.13378   0.17694   0.00000  Uiso   1.00
O127   O     0.62175   0.21302   0.31508   0.00000  Uiso   1.00
H128   H     0.64017   0.22947   0.33622   0.00000  Uiso   1.00
O129   O     0.62563   0.12154   0.17944   0.00000  Uiso   1.00
H130   H     0.59674   0.13243   0.17686   0.00000  Uiso   1.00
O131   O     0.37470   0.21079   0.31950   0.00000  Uiso   1.00
H132   H     0.40262   0.19736   0.32337   0.00000  Uiso   1.00
C133   C     0.75416   0.16660   0.24994   0.00000  Uiso   1.00
C134   C     0.91251   0.16676   0.24955   0.00000  Uiso   1.00
C135   C     0.79946   0.24426   0.02147   0.00000  Uiso   1.00
C136   C     0.86691   0.08894   0.47855   0.00000  Uiso   1.00
C137   C     0.68810   0.14364   0.21493   0.00000  Uiso   1.00
C138   C     0.97809   0.19086   0.28265   0.00000  Uiso   1.00
C139   C     0.97853   0.14358   0.21461   0.00000  Uiso   1.00
C140   C     0.68805   0.18971   0.28404   0.00000  Uiso   1.00
C141   C     0.95709   0.16712   0.24861   0.00000  Uiso   1.00
C142   C     0.70956   0.16647   0.24973   0.00000  Uiso   1.00
C143   C     0.80780   0.02474   0.22224   0.00000  Uiso   1.00
C144   C     0.85886   0.30859   0.27776   0.00000  Uiso   1.00
C145   C     0.85887   0.02488   0.27775   0.00000  Uiso   1.00
C146   C     0.80780   0.30846   0.22225   0.00000  Uiso   1.00
C147   C     0.83178   0.16667   0.16438   0.00000  Uiso   1.00
C148   C     0.83487   0.16666   0.33562   0.00000  Uiso   1.00
C149   C     0.85590   0.12973   0.40756   0.00000  Uiso   1.00
C150   C     0.81058   0.20353   0.09246   0.00000  Uiso   1.00
C151   C     0.83733   0.16683   0.38402   0.00000  Uiso   1.00
C152   C     0.82923   0.16647   0.11600   0.00000  Uiso   1.00
C153   C     0.81997   0.20440   0.40658   0.00000  Uiso   1.00
C154   C     0.84655   0.12888   0.09343   0.00000  Uiso   1.00
C155   C     0.81925   0.20569   0.45272   0.00000  Uiso   1.00
C156   C     0.84718   0.12755   0.04729   0.00000  Uiso   1.00
C157   C     0.83429   0.16662   0.47674   0.00000  Uiso   1.00
C158   C     0.83212   0.16662   0.02327   0.00000  Uiso   1.00
C159   C     0.85225   0.12797   0.45417   0.00000  Uiso   1.00
C160   C     0.81417   0.20526   0.04585   0.00000  Uiso   1.00
C161   C     0.80330   0.24509   0.47501   0.00000  Uiso   1.00
C162   C     0.86307   0.08813   0.02500   0.00000  Uiso   1.00
Cu163  Cu    0.83333   0.21355   0.25000   0.00000  Uiso   1.00
Cu164  Cu    0.83333   0.11978   0.25000   0.00000  Uiso   1.00
H165   H     0.80598   0.23208   0.38736   0.00000  Uiso   1.00
H166   H     0.86058   0.10122   0.11263   0.00000  Uiso   1.00
H167   H     0.78735   0.04341   0.20001   0.00000  Uiso   1.00
H168   H     0.87932   0.28993   0.29998   0.00000  Uiso   1.00
H169   H     0.87936   0.04363   0.29993   0.00000  Uiso   1.00
H170   H     0.78731   0.28970   0.20007   0.00000  Uiso   1.00
N171   N     0.83333   0.28402   0.25000   0.00000  Uiso   1.00
N172   N     0.83333   0.04931   0.25000   0.00000  Uiso   1.00
O173   O     0.77321   0.20625   0.24999   0.00000  Uiso   1.00
O174   O     0.89345   0.12709   0.25000   0.00000  Uiso   1.00
O175   O     0.89345   0.20625   0.25000   0.00000  Uiso   1.00
O176   O     0.77321   0.12709   0.24999   0.00000  Uiso   1.00
O177   O     0.83332   0.20627   0.18513   0.00000  Uiso   1.00
O178   O     0.83334   0.12707   0.31487   0.00000  Uiso   1.00
O179   O     0.83334   0.20627   0.31487   0.00000  Uiso   1.00
O180   O     0.83332   0.12707   0.18513   0.00000  Uiso   1.00
O181   O     0.87830   0.09572   0.38576   0.00000  Uiso   1.00
H182   H     0.89321   0.11067   0.36083   0.00000  Uiso   1.00
O183   O     0.78817   0.23752   0.11429   0.00000  Uiso   1.00
H184   H     0.77334   0.22256   0.13927   0.00000  Uiso   1.00
I185   I     0.78938   0.30886   0.43985   0.00000  Uiso   1.00
I186   I     0.87692   0.02434   0.06017   0.00000  Uiso   1.00
O187   O     0.78307   0.28209   0.04380   0.00000  Uiso   1.00
H188   H     0.76179   0.29708   0.02503   0.00000  Uiso   1.00
O189   O     0.88324   0.05108   0.45621   0.00000  Uiso   1.00
H190   H     0.90450   0.03604   0.47498   0.00000  Uiso   1.00
O191   O     0.70767   0.12200   0.17976   0.00000  Uiso   1.00
H192   H     0.73630   0.13378   0.17694   0.00000  Uiso   1.00
O193   O     0.95508   0.21302   0.31508   0.00000  Uiso   1.00
H194   H     0.97350   0.22947   0.33622   0.00000  Uiso   1.00
O195   O     0.95896   0.12154   0.17944   0.00000  Uiso   1.00
H196   H     0.93008   0.13243   0.17686   0.00000  Uiso   1.00
O197   O     0.70804   0.21079   0.31950   0.00000  Uiso   1.00
H198   H     0.73595   0.19736   0.32337   0.00000  Uiso   1.00
C199   C     0.08750   0.49993   0.24994   0.00000  Uiso   1.00
C200   C     0.24584   0.50009   0.24955   0.00000  Uiso   1.00
C201   C     0.13279   0.57760   0.02147   0.00000  Uiso   1.00
C202   C     0.20024   0.42228   0.47855   0.00000  Uiso   1.00
C203   C     0.02143   0.47697   0.21493   0.00000  Uiso   1.00
C204   C     0.31142   0.52420   0.28265   0.00000  Uiso   1.00
C205   C     0.31186   0.47691   0.21461   0.00000  Uiso   1.00
C206   C     0.02138   0.52304   0.28404   0.00000  Uiso   1.00
C207   C     0.29043   0.50046   0.24861   0.00000  Uiso   1.00
C208   C     0.04289   0.49980   0.24973   0.00000  Uiso   1.00
C209   C     0.14114   0.35808   0.22224   0.00000  Uiso   1.00
C210   C     0.19220   0.64192   0.27776   0.00000  Uiso   1.00
C211   C     0.19220   0.35821   0.27775   0.00000  Uiso   1.00
C212   C     0.14113   0.64179   0.22225   0.00000  Uiso   1.00
C213   C     0.16512   0.50000   0.16438   0.00000  Uiso   1.00
C214   C     0.16820   0.50000   0.33562   0.00000  Uiso   1.00
C215   C     0.18923   0.46306   0.40756   0.00000  Uiso   1.00
C216   C     0.14391   0.53686   0.09246   0.00000  Uiso   1.00
C217   C     0.17066   0.50016   0.38402   0.00000  Uiso   1.00
C218   C     0.16256   0.49981   0.11600   0.00000  Uiso   1.00
C219   C     0.15330   0.53773   0.40658   0.00000  Uiso   1.00
C220   C     0.17988   0.46222   0.09343   0.00000  Uiso   1.00
C221   C     0.15258   0.53902   0.45272   0.00000  Uiso   1.00
C222   C     0.18051   0.46088   0.04729   0.00000  Uiso   1.00
C223   C     0.16763   0.49995   0.47674   0.00000  Uiso   1.00
C224   C     0.16545   0.49995   0.02327   0.00000  Uiso   1.00
C225   C     0.18558   0.46131   0.45417   0.00000  Uiso   1.00
C226   C     0.14750   0.53859   0.04585   0.00000  Uiso   1.00
C227   C     0.13664   0.57842   0.47501   0.00000  Uiso   1.00
C228   C     0.19641   0.42146   0.02500   0.00000  Uiso   1.00
Cu229  Cu    0.16667   0.54689   0.25000   0.00000  Uiso   1.00
Cu230  Cu    0.16667   0.45311   0.25000   0.00000  Uiso   1.00
H231   H     0.13931   0.56541   0.38736   0.00000  Uiso   1.00
H232   H     0.19391   0.43455   0.11263   0.00000  Uiso   1.00
H233   H     0.12069   0.37674   0.20001   0.00000  Uiso   1.00
H234   H     0.21265   0.62327   0.29998   0.00000  Uiso   1.00
H235   H     0.21269   0.37697   0.29993   0.00000  Uiso   1.00
H236   H     0.12064   0.62304   0.20007   0.00000  Uiso   1.00
N237   N     0.16667   0.61736   0.25000   0.00000  Uiso   1.00
N238   N     0.16667   0.38264   0.25000   0.00000  Uiso   1.00
O239   O     0.10655   0.53958   0.24999   0.00000  Uiso   1.00
O240   O     0.22679   0.46042   0.25000   0.00000  Uiso   1.00
O241   O     0.22679   0.53958   0.25000   0.00000  Uiso   1.00
O242   O     0.10655   0.46042   0.24999   0.00000  Uiso   1.00
O243   O     0.16666   0.53960   0.18513   0.00000  Uiso   1.00
O244   O     0.16668   0.46040   0.31487   0.00000  Uiso   1.00
O245   O     0.16668   0.53960   0.31487   0.00000  Uiso   1.00
O246   O     0.16666   0.46040   0.18513   0.00000  Uiso   1.00
O247   O     0.21163   0.42905   0.38576   0.00000  Uiso   1.00
H248   H     0.22655   0.44401   0.36083   0.00000  Uiso   1.00
O249   O     0.12151   0.57085   0.11429   0.00000  Uiso   1.00
H250   H     0.10668   0.55590   0.13927   0.00000  Uiso   1.00
I251   I     0.12272   0.64220   0.43985   0.00000  Uiso   1.00
I252   I     0.21025   0.35767   0.06017   0.00000  Uiso   1.00
O253   O     0.11641   0.61543   0.04380   0.00000  Uiso   1.00
H254   H     0.09512   0.63042   0.02503   0.00000  Uiso   1.00
O255   O     0.21657   0.38441   0.45621   0.00000  Uiso   1.00
H256   H     0.23783   0.36938   0.47498   0.00000  Uiso   1.00
O257   O     0.04101   0.45533   0.17976   0.00000  Uiso   1.00
H258   H     0.06964   0.46711   0.17694   0.00000  Uiso   1.00
O259   O     0.28842   0.54635   0.31508   0.00000  Uiso   1.00
H260   H     0.30683   0.56281   0.33622   0.00000  Uiso   1.00
O261   O     0.29229   0.45487   0.17944   0.00000  Uiso   1.00
H262   H     0.26341   0.46576   0.17686   0.00000  Uiso   1.00
O263   O     0.04137   0.54413   0.31950   0.00000  Uiso   1.00
H264   H     0.06929   0.53070   0.32337   0.00000  Uiso   1.00
C265   C     0.42083   0.49993   0.24994   0.00000  Uiso   1.00
C266   C     0.57917   0.50009   0.24955   0.00000  Uiso   1.00
C267   C     0.46613   0.57760   0.02147   0.00000  Uiso   1.00
C268   C     0.53357   0.42228   0.47855   0.00000  Uiso   1.00
C269   C     0.35476   0.47697   0.21493   0.00000  Uiso   1.00
C270   C     0.64476   0.52420   0.28265   0.00000  Uiso   1.00
C271   C     0.64520   0.47691   0.21461   0.00000  Uiso   1.00
C272   C     0.35472   0.52304   0.28404   0.00000  Uiso   1.00
C273   C     0.62376   0.50046   0.24861   0.00000  Uiso   1.00
C274   C     0.37622   0.49980   0.24973   0.00000  Uiso   1.00
C275   C     0.47447   0.35808   0.22224   0.00000  Uiso   1.00
C276   C     0.52553   0.64192   0.27776   0.00000  Uiso   1.00
C277   C     0.52554   0.35821   0.27775   0.00000  Uiso   1.00
C278   C     0.47446   0.64179   0.22225   0.00000  Uiso   1.00
C279   C     0.49845   0.50000   0.16438   0.00000  Uiso   1.00
C280   C     0.50153   0.50000   0.33562   0.00000  Uiso   1.00
C281   C     0.52257   0.46306   0.40756   0.00000  Uiso   1.00
C282   C     0.47724   0.53686   0.09246   0.00000  Uiso   1.00
C283   C     0.50400   0.50016   0.38402   0.00000  Uiso   1.00
C284   C     0.49589   0.49981   0.11600   0.00000  Uiso   1.00
C285   C     0.48664   0.53773   0.40658   0.00000  Uiso   1.00
C286   C     0.51321   0.46222   0.09343   0.00000  Uiso   1.00
C287   C     0.48592   0.53902   0.45272   0.00000  Uiso   1.00
C288   C     0.51385   0.46088   0.04729   0.00000  Uiso   1.00
C289   C     0.50096   0.49995   0.47674   0.00000  Uiso   1.00
C290   C     0.49879   0.49995   0.02327   0.00000  Uiso   1.00
C291   C     0.51891   0.46131   0.45417   0.00000  Uiso   1.00
C292   C     0.48084   0.53859   0.04585   0.00000  Uiso   1.00
C293   C     0.46997   0.57842   0.47501   0.00000  Uiso   1.00
C294   C     0.52974   0.42146   0.02500   0.00000  Uiso   1.00
Cu295  Cu    0.50000   0.54689   0.25000   0.00000  Uiso   1.00
Cu296  Cu    0.50000   0.45311   0.25000   0.00000  Uiso   1.00
H297   H     0.47264   0.56541   0.38736   0.00000  Uiso   1.00
H298   H     0.52724   0.43455   0.11263   0.00000  Uiso   1.00
H299   H     0.45402   0.37674   0.20001   0.00000  Uiso   1.00
H300   H     0.54598   0.62327   0.29998   0.00000  Uiso   1.00
H301   H     0.54602   0.37697   0.29993   0.00000  Uiso   1.00
H302   H     0.45398   0.62304   0.20007   0.00000  Uiso   1.00
N303   N     0.50000   0.61736   0.25000   0.00000  Uiso   1.00
N304   N     0.50000   0.38264   0.25000   0.00000  Uiso   1.00
O305   O     0.43988   0.53958   0.24999   0.00000  Uiso   1.00
O306   O     0.56012   0.46042   0.25000   0.00000  Uiso   1.00
O307   O     0.56012   0.53958   0.25000   0.00000  Uiso   1.00
O308   O     0.43988   0.46042   0.24999   0.00000  Uiso   1.00
O309   O     0.49999   0.53960   0.18513   0.00000  Uiso   1.00
O310   O     0.50001   0.46040   0.31487   0.00000  Uiso   1.00
O311   O     0.50001   0.53960   0.31487   0.00000  Uiso   1.00
O312   O     0.49999   0.46040   0.18513   0.00000  Uiso   1.00
O313   O     0.54497   0.42905   0.38576   0.00000  Uiso   1.00
H314   H     0.55988   0.44401   0.36083   0.00000  Uiso   1.00
O315   O     0.45484   0.57085   0.11429   0.00000  Uiso   1.00
H316   H     0.44001   0.55590   0.13927   0.00000  Uiso   1.00
I317   I     0.45605   0.64220   0.43985   0.00000  Uiso   1.00
I318   I     0.54358   0.35767   0.06017   0.00000  Uiso   1.00
O319   O     0.44974   0.61543   0.04380   0.00000  Uiso   1.00
H320   H     0.42845   0.63042   0.02503   0.00000  Uiso   1.00
O321   O     0.54990   0.38441   0.45621   0.00000  Uiso   1.00
H322   H     0.57116   0.36938   0.47498   0.00000  Uiso   1.00
O323   O     0.37434   0.45533   0.17976   0.00000  Uiso   1.00
H324   H     0.40297   0.46711   0.17694   0.00000  Uiso   1.00
O325   O     0.62175   0.54635   0.31508   0.00000  Uiso   1.00
H326   H     0.64017   0.56281   0.33622   0.00000  Uiso   1.00
O327   O     0.62563   0.45487   0.17944   0.00000  Uiso   1.00
H328   H     0.59674   0.46576   0.17686   0.00000  Uiso   1.00
O329   O     0.37470   0.54413   0.31950   0.00000  Uiso   1.00
H330   H     0.40262   0.53070   0.32337   0.00000  Uiso   1.00
C331   C     0.75416   0.49993   0.24994   0.00000  Uiso   1.00
C332   C     0.91251   0.50009   0.24955   0.00000  Uiso   1.00
C333   C     0.79946   0.57760   0.02147   0.00000  Uiso   1.00
C334   C     0.86691   0.42228   0.47855   0.00000  Uiso   1.00
C335   C     0.68810   0.47697   0.21493   0.00000  Uiso   1.00
C336   C     0.97809   0.52420   0.28265   0.00000  Uiso   1.00
C337   C     0.97853   0.47691   0.21461   0.00000  Uiso   1.00
C338   C     0.68805   0.52304   0.28404   0.00000  Uiso   1.00
C339   C     0.95709   0.50046   0.24861   0.00000  Uiso   1.00
C340   C     0.70956   0.49980   0.24973   0.00000  Uiso   1.00
C341   C     0.80780   0.35808   0.22224   0.00000  Uiso   1.00
C342   C     0.85886   0.64192   0.27776   0.00000  Uiso   1.00
C343   C     0.85887   0.35821   0.27775   0.00000  Uiso   1.00
C344   C     0.80780   0.64179   0.22225   0.00000  Uiso   1.00
C345   C     0.83178   0.50000   0.16438   0.00000  Uiso   1.00
C346   C     0.83487   0.50000   0.33562   0.00000  Uiso   1.00
C347   C     0.85590   0.46306   0.40756   0.00000  Uiso   1.00
C348   C     0.81058   0.53686   0.09246   0.00000  Uiso   1.00
C349   C     0.83733   0.50016   0.38402   0.00000  Uiso   1.00
C350   C     0.82923   0.49981   0.11600   0.00000  Uiso   1.00
C351   C     0.81997   0.53773   0.40658   0.00000  Uiso   1.00
C352   C     0.84655   0.46222   0.09343   0.00000  Uiso   1.00
C353   C     0.81925   0.53902   0.45272   0.00000  Uiso   1.00
C354   C     0.84718   0.46088   0.04729   0.00000  Uiso   1.00
C355   C     0.83429   0.49995   0.47674   0.00000  Uiso   1.00
C356   C     0.83212   0.49995   0.02327   0.00000  Uiso   1.00
C357   C     0.85225   0.46131   0.45417   0.00000  Uiso   1.00
C358   C     0.81417   0.53859   0.04585   0.00000  Uiso   1.00
C359   C     0.80330   0.57842   0.47501   0.00000  Uiso   1.00
C360   C     0.86307   0.42146   0.02500   0.00000  Uiso   1.00
Cu361  Cu    0.83333   0.54689   0.25000   0.00000  Uiso   1.00
Cu362  Cu    0.83333   0.45311   0.25000   0.00000  Uiso   1.00
H363   H     0.80598   0.56541   0.38736   0.00000  Uiso   1.00
H364   H     0.86058   0.43455   0.11263   0.00000  Uiso   1.00
H365   H     0.78735   0.37674   0.20001   0.00000  Uiso   1.00
H366   H     0.87932   0.62327   0.29998   0.00000  Uiso   1.00
H367   H     0.87936   0.37697   0.29993   0.00000  Uiso   1.00
H368   H     0.78731   0.62304   0.20007   0.00000  Uiso   1.00
N369   N     0.83333   0.61736   0.25000   0.00000  Uiso   1.00
N370   N     0.83333   0.38264   0.25000   0.00000  Uiso   1.00
O371   O     0.77321   0.53958   0.24999   0.00000  Uiso   1.00
O372   O     0.89345   0.46042   0.25000   0.00000  Uiso   1.00
O373   O     0.89345   0.53958   0.25000   0.00000  Uiso   1.00
O374   O     0.77321   0.46042   0.24999   0.00000  Uiso   1.00
O375   O     0.83332   0.53960   0.18513   0.00000  Uiso   1.00
O376   O     0.83334   0.46040   0.31487   0.00000  Uiso   1.00
O377   O     0.83334   0.53960   0.31487   0.00000  Uiso   1.00
O378   O     0.83332   0.46040   0.18513   0.00000  Uiso   1.00
O379   O     0.87830   0.42905   0.38576   0.00000  Uiso   1.00
H380   H     0.89321   0.44401   0.36083   0.00000  Uiso   1.00
O381   O     0.78817   0.57085   0.11429   0.00000  Uiso   1.00
H382   H     0.77334   0.55590   0.13927   0.00000  Uiso   1.00
I383   I     0.78938   0.64220   0.43985   0.00000  Uiso   1.00
I384   I     0.87692   0.35767   0.06017   0.00000  Uiso   1.00
O385   O     0.78307   0.61543   0.04380   0.00000  Uiso   1.00
H386   H     0.76179   0.63042   0.02503   0.00000  Uiso   1.00
O387   O     0.88324   0.38441   0.45621   0.00000  Uiso   1.00
H388   H     0.90450   0.36938   0.47498   0.00000  Uiso   1.00
O389   O     0.70767   0.45533   0.17976   0.00000  Uiso   1.00
H390   H     0.73630   0.46711   0.17694   0.00000  Uiso   1.00
O391   O     0.95508   0.54635   0.31508   0.00000  Uiso   1.00
H392   H     0.97350   0.56281   0.33622   0.00000  Uiso   1.00
O393   O     0.95896   0.45487   0.17944   0.00000  Uiso   1.00
H394   H     0.93008   0.46576   0.17686   0.00000  Uiso   1.00
O395   O     0.70804   0.54413   0.31950   0.00000  Uiso   1.00
H396   H     0.73595   0.53070   0.32337   0.00000  Uiso   1.00
C397   C     0.08750   0.83326   0.24994   0.00000  Uiso   1.00
C398   C     0.24584   0.83342   0.24955   0.00000  Uiso   1.00
C399   C     0.13279   0.91093   0.02147   0.00000  Uiso   1.00
C400   C     0.20024   0.75561   0.47855   0.00000  Uiso   1.00
C401   C     0.02143   0.81030   0.21493   0.00000  Uiso   1.00
C402   C     0.31142   0.85753   0.28265   0.00000  Uiso   1.00
C403   C     0.31186   0.81024   0.21461   0.00000  Uiso   1.00
C404   C     0.02138   0.85638   0.28404   0.00000  Uiso   1.00
C405   C     0.29043   0.83379   0.24861   0.00000  Uiso   1.00
C406   C     0.04289   0.83313   0.24973   0.00000  Uiso   1.00
C407   C     0.14114   0.69141   0.22224   0.00000  Uiso   1.00
C408   C     0.19220   0.97526   0.27776   0.00000  Uiso   1.00
C409   C     0.19220   0.69154   0.27775   0.00000  Uiso   1.00
C410   C     0.14113   0.97512   0.22225   0.00000  Uiso   1.00
C411   C     0.16512   0.83333   0.16438   0.00000  Uiso   1.00
C412   C     0.16820   0.83333   0.33562   0.00000  Uiso   1.00
C413   C     0.18923   0.79640   0.40756   0.00000  Uiso   1.00
C414   C     0.14391   0.87019   0.09246   0.00000  Uiso   1.00
C415   C     0.17066   0.83349   0.38402   0.00000  Uiso   1.00
C416   C     0.16256   0.83314   0.11600   0.00000  Uiso   1.00
C417   C     0.15330   0.87106   0.40658   0.00000  Uiso   1.00
C418   C     0.17988   0.79555   0.09343   0.00000  Uiso   1.00
C419   C     0.15258   0.87236   0.45272   0.00000  Uiso   1.00
C420   C     0.18051   0.79422   0.04729   0.00000  Uiso   1.00
C421   C     0.16763   0.83328   0.47674   0.00000  Uiso   1.00
C422   C     0.16545   0.83328   0.02327   0.00000  Uiso   1.00
C423   C     0.18558   0.79464   0.45417   0.00000  Uiso   1.00
C424   C     0.14750   0.87192   0.04585   0.00000  Uiso   1.00
C425   C     0.13664   0.91175   0.47501   0.00000  Uiso   1.00
C426   C     0.19641   0.75479   0.02500   0.00000  Uiso   1.00
Cu427  Cu    0.16667   0.88022   0.25000   0.00000  Uiso   1.00
Cu428  Cu    0.16667   0.78645   0.25000   0.00000  Uiso   1.00
H429   H     0.13931   0.89875   0.38736   0.00000  Uiso   1.00
H430   H     0.19391   0.76789   0.11263   0.00000  Uiso   1.00
H431   H     0.12069   0.71007   0.20001   0.00000  Uiso   1.00
H432   H     0.21265   0.95660   0.29998   0.00000  Uiso   1.00
H433   H     0.21269   0.71030   0.29993   0.00000  Uiso   1.00
H434   H     0.12064   0.95637   0.20007   0.00000  Uiso   1.00
N435   N     0.16667   0.95069   0.25000   0.00000  Uiso   1.00
N436   N     0.16667   0.71598   0.25000   0.00000  Uiso   1.00
O437   O     0.10655   0.87291   0.24999   0.00000  Uiso   1.00
O438   O     0.22679   0.79375   0.25000   0.00000  Uiso   1.00
O439   O     0.22679   0.87291   0.25000   0.00000  Uiso   1.00
O440   O     0.10655   0.79375   0.24999   0.00000  Uiso   1.00
O441   O     0.16666   0.87293   0.18513   0.00000  Uiso   1.00
O442   O     0.16668   0.79373   0.31487   0.00000  Uiso   1.00
O443   O     0.16668   0.87293   0.31487   0.00000  Uiso   1.00
O444   O     0.16666   0.79373   0.18513   0.00000  Uiso   1.00
O445   O     0.21163   0.76239   0.38576   0.00000  Uiso   1.00
H446   H     0.22655   0.77734   0.36083   0.00000  Uiso   1.00
O447   O     0.12151   0.90418   0.11429   0.00000  Uiso   1.00
H448   H     0.10668   0.88923   0.13927   0.00000  Uiso   1.00
I449   I     0.12272   0.97553   0.43985   0.00000  Uiso   1.00
I450   I     0.21025   0.69100   0.06017   0.00000  Uiso   1.00
O451   O     0.11641   0.94876   0.04380   0.00000  Uiso   1.00
H452   H     0.09512   0.96375   0.02503   0.00000  Uiso   1.00
O453   O     0.21657   0.71775   0.45621   0.00000  Uiso   1.00
H454   H     0.23783   0.70271   0.47498   0.00000  Uiso   1.00
O455   O     0.04101   0.78867   0.17976   0.00000  Uiso   1.00
H456   H     0.06964   0.80044   0.17694   0.00000  Uiso   1.00
O457   O     0.28842   0.87968   0.31508   0.00000  Uiso   1.00
H458   H     0.30683   0.89614   0.33622   0.00000  Uiso   1.00
O459   O     0.29229   0.78821   0.17944   0.00000  Uiso   1.00
H460   H     0.26341   0.79910   0.17686   0.00000  Uiso   1.00
O461   O     0.04137   0.87746   0.31950   0.00000  Uiso   1.00
H462   H     0.06929   0.86403   0.32337   0.00000  Uiso   1.00
C463   C     0.42083   0.83326   0.24994   0.00000  Uiso   1.00
C464   C     0.57917   0.83342   0.24955   0.00000  Uiso   1.00
C465   C     0.46613   0.91093   0.02147   0.00000  Uiso   1.00
C466   C     0.53357   0.75561   0.47855   0.00000  Uiso   1.00
C467   C     0.35476   0.81030   0.21493   0.00000  Uiso   1.00
C468   C     0.64476   0.85753   0.28265   0.00000  Uiso   1.00
C469   C     0.64520   0.81024   0.21461   0.00000  Uiso   1.00
C470   C     0.35472   0.85638   0.28404   0.00000  Uiso   1.00
C471   C     0.62376   0.83379   0.24861   0.00000  Uiso   1.00
C472   C     0.37622   0.83313   0.24973   0.00000  Uiso   1.00
C473   C     0.47447   0.69141   0.22224   0.00000  Uiso   1.00
C474   C     0.52553   0.97526   0.27776   0.00000  Uiso   1.00
C475   C     0.52554   0.69154   0.27775   0.00000  Uiso   1.00
C476   C     0.47446   0.97512   0.22225   0.00000  Uiso   1.00
C477   C     0.49845   0.83333   0.16438   0.00000  Uiso   1.00
C478   C     0.50153   0.83333   0.33562   0.00000  Uiso   1.00
C479   C     0.52257   0.79640   0.40756   0.00000  Uiso   1.00
C480   C     0.47724   0.87019   0.09246   0.00000  Uiso   1.00
C481   C     0.50400   0.83349   0.38402   0.00000  Uiso   1.00
C482   C     0.49589   0.83314   0.11600   0.00000  Uiso   1.00
C483   C     0.48664   0.87106   0.40658   0.00000  Uiso   1.00
C484   C     0.51321   0.79555   0.09343   0.00000  Uiso   1.00
C485   C     0.48592   0.87236   0.45272   0.00000  Uiso   1.00
C486   C     0.51385   0.79422   0.04729   0.00000  Uiso   1.00
C487   C     0.50096   0.83328   0.47674   0.00000  Uiso   1.00
C488   C     0.49879   0.83328   0.02327   0.00000  Uiso   1.00
C489   C     0.51891   0.79464   0.45417   0.00000  Uiso   1.00
C490   C     0.48084   0.87192   0.04585   0.00000  Uiso   1.00
C491   C     0.46997   0.91175   0.47501   0.00000  Uiso   1.00
C492   C     0.52974   0.75479   0.02500   0.00000  Uiso   1.00
Cu493  Cu    0.50000   0.88022   0.25000   0.00000  Uiso   1.00
Cu494  Cu    0.50000   0.78645   0.25000   0.00000  Uiso   1.00
H495   H     0.47264   0.89875   0.38736   0.00000  Uiso   1.00
H496   H     0.52724   0.76789   0.11263   0.00000  Uiso   1.00
H497   H     0.45402   0.71007   0.20001   0.00000  Uiso   1.00
H498   H     0.54598   0.95660   0.29998   0.00000  Uiso   1.00
H499   H     0.54602   0.71030   0.29993   0.00000  Uiso   1.00
H500   H     0.45398   0.95637   0.20007   0.00000  Uiso   1.00
N501   N     0.50000   0.95069   0.25000   0.00000  Uiso   1.00
N502   N     0.50000   0.71598   0.25000   0.00000  Uiso   1.00
O503   O     0.43988   0.87291   0.24999   0.00000  Uiso   1.00
O504   O     0.56012   0.79375   0.25000   0.00000  Uiso   1.00
O505   O     0.56012   0.87291   0.25000   0.00000  Uiso   1.00
O506   O     0.43988   0.79375   0.24999   0.00000  Uiso   1.00
O507   O     0.49999   0.87293   0.18513   0.00000  Uiso   1.00
O508   O     0.50001   0.79373   0.31487   0.00000  Uiso   1.00
O509   O     0.50001   0.87293   0.31487   0.00000  Uiso   1.00
O510   O     0.49999   0.79373   0.18513   0.00000  Uiso   1.00
O511   O     0.54497   0.76239   0.38576   0.00000  Uiso   1.00
H512   H     0.55988   0.77734   0.36083   0.00000  Uiso   1.00
O513   O     0.45484   0.90418   0.11429   0.00000  Uiso   1.00
H514   H     0.44001   0.88923   0.13927   0.00000  Uiso   1.00
I515   I     0.45605   0.97553   0.43985   0.00000  Uiso   1.00
I516   I     0.54358   0.69100   0.06017   0.00000  Uiso   1.00
O517   O     0.44974   0.94876   0.04380   0.00000  Uiso   1.00
H518   H     0.42845   0.96375   0.02503   0.00000  Uiso   1.00
O519   O     0.54990   0.71775   0.45621   0.00000  Uiso   1.00
H520   H     0.57116   0.70271   0.47498   0.00000  Uiso   1.00
O521   O     0.37434   0.78867   0.17976   0.00000  Uiso   1.00
H522   H     0.40297   0.80044   0.17694   0.00000  Uiso   1.00
O523   O     0.62175   0.87968   0.31508   0.00000  Uiso   1.00
H524   H     0.64017   0.89614   0.33622   0.00000  Uiso   1.00
O525   O     0.62563   0.78821   0.17944   0.00000  Uiso   1.00
H526   H     0.59674   0.79910   0.17686   0.00000  Uiso   1.00
O527   O     0.37470   0.87746   0.31950   0.00000  Uiso   1.00
H528   H     0.40262   0.86403   0.32337   0.00000  Uiso   1.00
C529   C     0.75416   0.83326   0.24994   0.00000  Uiso   1.00
C530   C     0.91251   0.83342   0.24955   0.00000  Uiso   1.00
C531   C     0.79946   0.91093   0.02147   0.00000  Uiso   1.00
C532   C     0.86691   0.75561   0.47855   0.00000  Uiso   1.00
C533   C     0.68810   0.81030   0.21493   0.00000  Uiso   1.00
C534   C     0.97809   0.85753   0.28265   0.00000  Uiso   1.00
C535   C     0.97853   0.81024   0.21461   0.00000  Uiso   1.00
C536   C     0.68805   0.85638   0.28404   0.00000  Uiso   1.00
C537   C     0.95709   0.83379   0.24861   0.00000  Uiso   1.00
C538   C     0.70956   0.83313   0.24973   0.00000  Uiso   1.00
C539   C     0.80780   0.69141   0.22224   0.00000  Uiso   1.00
C540   C     0.85886   0.97526   0.27776   0.00000  Uiso   1.00
C541   C     0.85887   0.69154   0.27775   0.00000  Uiso   1.00
C542   C     0.80780   0.97512   0.22225   0.00000  Uiso   1.00
C543   C     0.83178   0.83333   0.16438   0.00000  Uiso   1.00
C544   C     0.83487   0.83333   0.33562   0.00000  Uiso   1.00
C545   C     0.85590   0.79640   0.40756   0.00000  Uiso   1.00
C546   C     0.81058   0.87019   0.09246   0.00000  Uiso   1.00
C547   C     0.83733   0.83349   0.38402   0.00000  Uiso   1.00
C548   C     0.82923   0.83314   0.11600   0.00000  Uiso   1.00
C549   C     0.81997   0.87106   0.40658   0.00000  Uiso   1.00
C550   C     0.84655   0.79555   0.09343   0.00000  Uiso   1.00
C551   C     0.81925   0.87236   0.45272   0.00000  Uiso   1.00
C552   C     0.84718   0.79422   0.04729   0.00000  Uiso   1.00
C553   C     0.83429   0.83328   0.47674   0.00000  Uiso   1.00
C554   C     0.83212   0.83328   0.02327   0.00000  Uiso   1.00
C555   C     0.85225   0.79464   0.45417   0.00000  Uiso   1.00
C556   C     0.81417   0.87192   0.04585   0.00000  Uiso   1.00
C557   C     0.80330   0.91175   0.47501   0.00000  Uiso   1.00
C558   C     0.86307   0.75479   0.02500   0.00000  Uiso   1.00
Cu559  Cu    0.83333   0.88022   0.25000   0.00000  Uiso   1.00
Cu560  Cu    0.83333   0.78645   0.25000   0.00000  Uiso   1.00
H561   H     0.80598   0.89875   0.38736   0.00000  Uiso   1.00
H562   H     0.86058   0.76789   0.11263   0.00000  Uiso   1.00
H563   H     0.78735   0.71007   0.20001   0.00000  Uiso   1.00
H564   H     0.87932   0.95660   0.29998   0.00000  Uiso   1.00
H565   H     0.87936   0.71030   0.29993   0.00000  Uiso   1.00
H566   H     0.78731   0.95637   0.20007   0.00000  Uiso   1.00
N567   N     0.83333   0.95069   0.25000   0.00000  Uiso   1.00
N568   N     0.83333   0.71598   0.25000   0.00000  Uiso   1.00
O569   O     0.77321   0.87291   0.24999   0.00000  Uiso   1.00
O570   O     0.89345   0.79375   0.25000   0.00000  Uiso   1.00
O571   O     0.89345   0.87291   0.25000   0.00000  Uiso   1.00
O572   O     0.77321   0.79375   0.24999   0.00000  Uiso   1.00
O573   O     0.83332   0.87293   0.18513   0.00000  Uiso   1.00
O574   O     0.83334   0.79373   0.31487   0.00000  Uiso   1.00
O575   O     0.83334   0.87293   0.31487   0.00000  Uiso   1.00
O576   O     0.83332   0.79373   0.18513   0.00000  Uiso   1.00
O577   O     0.87830   0.76239   0.38576   0.00000  Uiso   1.00
H578   H     0.89321   0.77734   0.36083   0.00000  Uiso   1.00
O579   O     0.78817   0.90418   0.11429   0.00000  Uiso   1.00
H580   H     0.77334   0.88923   0.13927   0.00000  Uiso   1.00
I581   I     0.78938   0.97553   0.43985   0.00000  Uiso   1.00
I582   I     0.87692   0.69100   0.06017   0.00000  Uiso   1.00
O583   O     0.78307   0.94876   0.04380   0.00000  Uiso   1.00
H584   H     0.76179   0.96375   0.02503   0.00000  Uiso   1.00
O585   O     0.88324   0.71775   0.45621   0.00000  Uiso   1.00
H586   H     0.90450   0.70271   0.47498   0.00000  Uiso   1.00
O587   O     0.70767   0.78867   0.17976   0.00000  Uiso   1.00
H588   H     0.73630   0.80044   0.17694   0.00000  Uiso   1.00
O589   O     0.95508   0.87968   0.31508   0.00000  Uiso   1.00
H590   H     0.97350   0.89614   0.33622   0.00000  Uiso   1.00
O591   O     0.95896   0.78821   0.17944   0.00000  Uiso   1.00
H592   H     0.93008   0.79910   0.17686   0.00000  Uiso   1.00
O593   O     0.70804   0.87746   0.31950   0.00000  Uiso   1.00
H594   H     0.73595   0.86403   0.32337   0.00000  Uiso   1.00
C595   C     0.08750   0.16660   0.74994   0.00000  Uiso   1.00
C596   C     0.24584   0.16676   0.74955   0.00000  Uiso   1.00
C597   C     0.13279   0.24426   0.52147   0.00000  Uiso   1.00
C598   C     0.20024   0.08894   0.97855   0.00000  Uiso   1.00
C599   C     0.02143   0.14364   0.71493   0.00000  Uiso   1.00
C600   C     0.31142   0.19086   0.78265   0.00000  Uiso   1.00
C601   C     0.31186   0.14358   0.71461   0.00000  Uiso   1.00
C602   C     0.02138   0.18971   0.78404   0.00000  Uiso   1.00
C603   C     0.29043   0.16712   0.74861   0.00000  Uiso   1.00
C604   C     0.04289   0.16647   0.74973   0.00000  Uiso   1.00
C605   C     0.14114   0.02474   0.72224   0.00000  Uiso   1.00
C606   C     0.19220   0.30859   0.77776   0.00000  Uiso   1.00
C607   C     0.19220   0.02488   0.77775   0.00000  Uiso   1.00
C608   C     0.14113   0.30846   0.72225   0.00000  Uiso   1.00
C609   C     0.16512   0.16667   0.66438   0.00000  Uiso   1.00
C610   C     0.16820   0.16666   0.83562   0.00000  Uiso   1.00
C611   C     0.18923   0.12973   0.90756   0.00000  Uiso   1.00
C612   C     0.14391   0.20353   0.59246   0.00000  Uiso   1.00
C613   C     0.17066   0.16683   0.88402   0.00000  Uiso   1.00
C614   C     0.16256   0.16647   0.61600   0.00000  Uiso   1.00
C615   C     0.15330   0.20440   0.90658   0.00000  Uiso   1.00
C616   C     0.17988   0.12888   0.59343   0.00000  Uiso   1.00
C617   C     0.15258   0.20569   0.95272   0.00000  Uiso   1.00
C618   C     0.18051   0.12755   0.54729   0.00000  Uiso   1.00
C619   C     0.16763   0.16662   0.97674   0.00000  Uiso   1.00
C620   C     0.16545   0.16662   0.52327   0.00000  Uiso   1.00
C621   C     0.18558   0.12797   0.95417   0.00000  Uiso   1.00
C622   C     0.14750   0.20526   0.54585   0.00000  Uiso   1.00
C623   C     0.13664   0.24509   0.97501   0.00000  Uiso   1.00
C624   C     0.19641   0.08813   0.52500   0.00000  Uiso   1.00
Cu625  Cu    0.16667   0.21355   0.75000   0.00000  Uiso   1.00
Cu626  Cu    0.16667   0.11978   0.75000   0.00000  Uiso   1.00
H627   H     0.13931   0.23208   0.88736   0.00000  Uiso   1.00
H628   H     0.19391   0.10122   0.61263   0.00000  Uiso   1.00
H629   H     0.12069   0.04341   0.70001   0.00000  Uiso   1.00
H630   H     0.21265   0.28993   0.79998   0.00000  Uiso   1.00
H631   H     0.21269   0.04363   0.79993   0.00000  Uiso   1.00
H632   H     0.12064   0.28970   0.70007   0.00000  Uiso   1.00
N633   N     0.16667   0.28402   0.75000   0.00000  Uiso   1.00
N634   N     0.16667   0.04931   0.75000   0.00000  Uiso   1.00
O635   O     0.10655   0.20625   0.74999   0.00000  Uiso   1.00
O636   O     0.22679   0.12709   0.75000   0.00000  Uiso   1.00
O637   O     0.22679   0.20625   0.75000   0.00000  Uiso   1.00
O638   O     0.10655   0.12709   0.74999   0.00000  Uiso   1.00
O639   O     0.16666   0.20627   0.68513   0.00000  Uiso   1.00
O640   O     0.16668   0.12707   0.81487   0.00000  Uiso   1.00
O641   O     0.16668   0.20627   0.81487   0.00000  Uiso   1.00
O642   O     0.16666   0.12707   0.68513   0.00000  Uiso   1.00
O643   O     0.21163   0.09572   0.88576   0.00000  Uiso   1.00
H644   H     0.22655   0.11067   0.86083   0.00000  Uiso   1.00
O645   O     0.12151   0.23752   0.61429   0.00000  Uiso   1.00
H646   H     0.10668   0.22256   0.63927   0.00000  Uiso   1.00
I647   I     0.12272   0.30886   0.93985   0.00000  Uiso   1.00
I648   I     0.21025   0.02434   0.56017   0.00000  Uiso   1.00
O649   O     0.11641   0.28209   0.54380   0.00000  Uiso   1.00
H650   H     0.09512   0.29708   0.52503   0.00000  Uiso   1.00
O651   O     0.21657   0.05108   0.95621   0.00000  Uiso   1.00
H652   H     0.23783   0.03604   0.97498   0.00000  Uiso   1.00
O653   O     0.04101   0.12200   0.67976   0.00000  Uiso   1.00
H654   H     0.06964   0.13378   0.67694   0.00000  Uiso   1.00
O655   O     0.28842   0.21302   0.81508   0.00000  Uiso   1.00
H656   H     0.30683   0.22947   0.83622   0.00000  Uiso   1.00
O657   O     0.29229   0.12154   0.67944   0.00000  Uiso   1.00
H658   H     0.26341   0.13243   0.67686   0.00000  Uiso   1.00
O659   O     0.04137   0.21079   0.81950   0.00000  Uiso   1.00
H660   H     0.06929   0.19736   0.82337   0.00000  Uiso   1.00
C661   C     0.42083   0.16660   0.74994   0.00000  Uiso   1.00
C662   C     0.57917   0.16676   0.74955   0.00000  Uiso   1.00
C663   C     0.46613   0.24426   0.52147   0.00000  Uiso   1.00
C664   C     0.53357   0.08894   0.97855   0.00000  Uiso   1.00
C665   C     0.35476   0.14364   0.71493   0.00000  Uiso   1.00
C666   C     0.64476   0.19086   0.78265   0.00000  Uiso   1.00
C667   C     0.64520   0.14358   0.71461   0.00000  Uiso   1.00
C668   C     0.35472   0.18971   0.78404   0.00000  Uiso   1.00
C669   C     0.62376   0.16712   0.74861   0.00000  Uiso   1.00
C670   C     0.37622   0.16647   0.74973   0.00000  Uiso   1.00
C671   C     0.47447   0.02474   0.72224   0.00000  Uiso   1.00
C672   C     0.52553   0.30859   0.77776   0.00000  Uiso   1.00
C673   C     0.52554   0.02488   0.77775   0.00000  Uiso   1.00
C674   C     0.47446   0.30846   0.72225   0.00000  Uiso   1.00
C675   C     0.49845   0.16667   0.66438   0.00000  Uiso   1.00
C676   C     0.50153   0.16666   0.83562   0.00000  Uiso   1.00
C677   C     0.52257   0.12973   0.90756   0.00000  Uiso   1.00
C678   C     0.47724   0.20353   0.59246   0.00000  Uiso   1.00
C679   C     0.50400   0.16683   0.88402   0.00000  Uiso   1.00
C680   C     0.49589   0.16647   0.61600   0.00000  Uiso   1.00
C681   C     0.48664   0.20440   0.90658   0.00000  Uiso   1.00
C682   C     0.51321   0.12888   0.59343   0.00000  Uiso   1.00
C683   C     0.48592   0.20569   0.95272   0.00000  Uiso   1.00
C684   C     0.51385   0.12755   0.54729   0.00000  Uiso   1.00
C685   C     0.50096   0.16662   0.97674   0.00000  Uiso   1.00
C686   C     0.49879   0.16662   0.52327   0.00000  Uiso   1.00
C687   C     0.51891   0.12797   0.95417   0.00000  Uiso   1.00
C688   C     0.48084   0.20526   0.54585   0.00000  Uiso   1.00
C689   C     0.46997   0.24509   0.97501   0.00000  Uiso   1.00
C690   C     0.52974   0.08813   0.52500   0.00000  Uiso   1.00
Cu691  Cu    0.50000   0.21355   0.75000   0.00000  Uiso   1.00
Cu692  Cu    0.50000   0.11978   0.75000   0.00000  Uiso   1.00
H693   H     0.47264   0.23208   0.88736   0.00000  Uiso   1.00
H694   H     0.52724   0.10122   0.61263   0.00000  Uiso   1.00
H695   H     0.45402   0.04341   0.70001   0.00000  Uiso   1.00
H696   H     0.54598   0.28993   0.79998   0.00000  Uiso   1.00
H697   H     0.54602   0.04363   0.79993   0.00000  Uiso   1.00
H698   H     0.45398   0.28970   0.70007   0.00000  Uiso   1.00
N699   N     0.50000   0.28402   0.75000   0.00000  Uiso   1.00
N700   N     0.50000   0.04931   0.75000   0.00000  Uiso   1.00
O701   O     0.43988   0.20625   0.74999   0.00000  Uiso   1.00
O702   O     0.56012   0.12709   0.75000   0.00000  Uiso   1.00
O703   O     0.56012   0.20625   0.75000   0.00000  Uiso   1.00
O704   O     0.43988   0.12709   0.74999   0.00000  Uiso   1.00
O705   O     0.49999   0.20627   0.68513   0.00000  Uiso   1.00
O706   O     0.50001   0.12707   0.81487   0.00000  Uiso   1.00
O707   O     0.50001   0.20627   0.81487   0.00000  Uiso   1.00
O708   O     0.49999   0.12707   0.68513   0.00000  Uiso   1.00
O709   O     0.54497   0.09572   0.88576   0.00000  Uiso   1.00
H710   H     0.55988   0.11067   0.86083   0.00000  Uiso   1.00
O711   O     0.45484   0.23752   0.61429   0.00000  Uiso   1.00
H712   H     0.44001   0.22256   0.63927   0.00000  Uiso   1.00
I713   I     0.45605   0.30886   0.93985   0.00000  Uiso   1.00
I714   I     0.54358   0.02434   0.56017   0.00000  Uiso   1.00
O715   O     0.44974   0.28209   0.54380   0.00000  Uiso   1.00
H716   H     0.42845   0.29708   0.52503   0.00000  Uiso   1.00
O717   O     0.54990   0.05108   0.95621   0.00000  Uiso   1.00
H718   H     0.57116   0.03604   0.97498   0.00000  Uiso   1.00
O719   O     0.37434   0.12200   0.67976   0.00000  Uiso   1.00
H720   H     0.40297   0.13378   0.67694   0.00000  Uiso   1.00
O721   O     0.62175   0.21302   0.81508   0.00000  Uiso   1.00
H722   H     0.64017   0.22947   0.83622   0.00000  Uiso   1.00
O723   O     0.62563   0.12154   0.67944   0.00000  Uiso   1.00
H724   H     0.59674   0.13243   0.67686   0.00000  Uiso   1.00
O725   O     0.37470   0.21079   0.81950   0.00000  Uiso   1.00
H726   H     0.40262   0.19736   0.82337   0.00000  Uiso   1.00
C727   C     0.75416   0.16660   0.74994   0.00000  Uiso   1.00
C728   C     0.91251   0.16676   0.74955   0.00000  Uiso   1.00
C729   C     0.79946   0.24426   0.52147   0.00000  Uiso   1.00
C730   C     0.86691   0.08894   0.97855   0.00000  Uiso   1.00
C731   C     0.68810   0.14364   0.71493   0.00000  Uiso   1.00
C732   C     0.97809   0.19086   0.78265   0.00000  Uiso   1.00
C733   C     0.97853   0.14358   0.71461   0.00000  Uiso   1.00
C734   C     0.68805   0.18971   0.78404   0.00000  Uiso   1.00
C735   C     0.95709   0.16712   0.74861   0.00000  Uiso   1.00
C736   C     0.70956   0.16647   0.74973   0.00000  Uiso   1.00
C737   C     0.80780   0.02474   0.72224   0.00000  Uiso   1.00
C738   C     0.85886   0.30859   0.77776   0.00000  Uiso   1.00
C739   C     0.85887   0.02488   0.77775   0.00000  Uiso   1.00
C740   C     0.80780   0.30846   0.72225   0.00000  Uiso   1.00
C741   C     0.83178   0.16667   0.66438   0.00000  Uiso   1.00
C742   C     0.83487   0.16666   0.83562   0.00000  Uiso   1.00
C743   C     0.85590   0.12973   0.90756   0.00000  Uiso   1.00
C744   C     0.81058   0.20353   0.59246   0.00000  Uiso   1.00
C745   C     0.83733   0.16683   0.88402   0.00000  Uiso   1.00
C746   C     0.82923   0.16647   0.61600   0.00000  Uiso   1.00
C747   C     0.81997   0.20440   0.90658   0.00000  Uiso   1.00
C748   C     0.84655   0.12888   0.59343   0.00000  Uiso   1.00
C749   C     0.81925   0.20569   0.95272   0.00000  Uiso   1.00
C750   C     0.84718   0.12755   0.54729   0.00000  Uiso   1.00
C751   C     0.83429   0.16662   0.97674   0.00000  Uiso   1.00
C752   C     0.83212   0.16662   0.52327   0.00000  Uiso   1.00
C753   C     0.85225   0.12797   0.95417   0.00000  Uiso   1.00
C754   C     0.81417   0.20526   0.54585   0.00000  Uiso   1.00
C755   C     0.80330   0.24509   0.97501   0.00000  Uiso   1.00
C756   C     0.86307   0.08813   0.52500   0.00000  Uiso   1.00
Cu757  Cu    0.83333   0.21355   0.75000   0.00000  Uiso   1.00
Cu758  Cu    0.83333   0.11978   0.75000   0.00000  Uiso   1.00
H759   H     0.80598   0.23208   0.88736   0.00000  Uiso   1.00
H760   H     0.86058   0.10122   0.61263   0.00000  Uiso   1.00
H761   H     0.78735   0.04341   0.70001   0.00000  Uiso   1.00
H762   H     0.87932   0.28993   0.79998   0.00000  Uiso   1.00
H763   H     0.87936   0.04363   0.79993   0.00000  Uiso   1.00
H764   H     0.78731   0.28970   0.70007   0.00000  Uiso   1.00
N765   N     0.83333   0.28402   0.75000   0.00000  Uiso   1.00
N766   N     0.83333   0.04931   0.75000   0.00000  Uiso   1.00
O767   O     0.77321   0.20625   0.74999   0.00000  Uiso   1.00
O768   O     0.89345   0.12709   0.75000   0.00000  Uiso   1.00
O769   O     0.89345   0.20625   0.75000   0.00000  Uiso   1.00
O770   O     0.77321   0.12709   0.74999   0.00000  Uiso   1.00
O771   O     0.83332   0.20627   0.68513   0.00000  Uiso   1.00
O772   O     0.83334   0.12707   0.81487   0.00000  Uiso   1.00
O773   O     0.83334   0.20627   0.81487   0.00000  Uiso   1.00
O774   O     0.83332   0.12707   0.68513   0.00000  Uiso   1.00
O775   O     0.87830   0.09572   0.88576   0.00000  Uiso   1.00
H776   H     0.89321   0.11067   0.86083   0.00000  Uiso   1.00
O777   O     0.78817   0.23752   0.61429   0.00000  Uiso   1.00
H778   H     0.77334   0.22256   0.63927   0.00000  Uiso   1.00
I779   I     0.78938   0.30886   0.93985   0.00000  Uiso   1.00
I780   I     0.87692   0.02434   0.56017   0.00000  Uiso   1.00
O781   O     0.78307   0.28209   0.54380   0.00000  Uiso   1.00
H782   H     0.76179   0.29708   0.52503   0.00000  Uiso   1.00
O783   O     0.88324   0.05108   0.95621   0.00000  Uiso   1.00
H784   H     0.90450   0.03604   0.97498   0.00000  Uiso   1.00
O785   O     0.70767   0.12200   0.67976   0.00000  Uiso   1.00
H786   H     0.73630   0.13378   0.67694   0.00000  Uiso   1.00
O787   O     0.95508   0.21302   0.81508   0.00000  Uiso   1.00
H788   H     0.97350   0.22947   0.83622   0.00000  Uiso   1.00
O789   O     0.95896   0.12154   0.67944   0.00000  Uiso   1.00
H790   H     0.93008   0.13243   0.67686   0.00000  Uiso   1.00
O791   O     0.70804   0.21079   0.81950   0.00000  Uiso   1.00
H792   H     0.73595   0.19736   0.82337   0.00000  Uiso   1.00
C793   C     0.08750   0.49993   0.74994   0.00000  Uiso   1.00
C794   C     0.24584   0.50009   0.74955   0.00000  Uiso   1.00
C795   C     0.13279   0.57760   0.52147   0.00000  Uiso   1.00
C796   C     0.20024   0.42228   0.97855   0.00000  Uiso   1.00
C797   C     0.02143   0.47697   0.71493   0.00000  Uiso   1.00
C798   C     0.31142   0.52420   0.78265   0.00000  Uiso   1.00
C799   C     0.31186   0.47691   0.71461   0.00000  Uiso   1.00
C800   C     0.02138   0.52304   0.78404   0.00000  Uiso   1.00
C801   C     0.29043   0.50046   0.74861   0.00000  Uiso   1.00
C802   C     0.04289   0.49980   0.74973   0.00000  Uiso   1.00
C803   C     0.14114   0.35808   0.72224   0.00000  Uiso   1.00
C804   C     0.19220   0.64192   0.77776   0.00000  Uiso   1.00
C805   C     0.19220   0.35821   0.77775   0.00000  Uiso   1.00
C806   C     0.14113   0.64179   0.72225   0.00000  Uiso   1.00
C807   C     0.16512   0.50000   0.66438   0.00000  Uiso   1.00
C808   C     0.16820   0.50000   0.83562   0.00000  Uiso   1.00
C809   C     0.18923   0.46306   0.90756   0.00000  Uiso   1.00
C810   C     0.14391   0.53686   0.59246   0.00000  Uiso   1.00
C811   C     0.17066   0.50016   0.88402   0.00000  Uiso   1.00
C812   C     0.16256   0.49981   0.61600   0.00000  Uiso   1.00
C813   C     0.15330   0.53773   0.90658   0.00000  Uiso   1.00
C814   C     0.17988   0.46222   0.59343   0.00000  Uiso   1.00
C815   C     0.15258   0.53902   0.95272   0.00000  Uiso   1.00
C816   C     0.18051   0.46088   0.54729   0.00000  Uiso   1.00
C817   C     0.16763   0.49995   0.97674   0.00000  Uiso   1.00
C818   C     0.16545   0.49995   0.52327   0.00000  Uiso   1.00
C819   C     0.18558   0.46131   0.95417   0.00000  Uiso   1.00
C820   C     0.14750   0.53859   0.54585   0.00000  Uiso   1.00
C821   C     0.13664   0.57842   0.97501   0.00000  Uiso   1.00
C822   C     0.19641   0.42146   0.52500   0.00000  Uiso   1.00
Cu823  Cu    0.16667   0.54689   0.75000   0.00000  Uiso   1.00
Cu824  Cu    0.16667   0.45311   0.75000   0.00000  Uiso   1.00
H825   H     0.13931   0.56541   0.88736   0.00000  Uiso   1.00
H826   H     0.19391   0.43455   0.61263   0.00000  Uiso   1.00
H827   H     0.12069   0.37674   0.70001   0.00000  Uiso   1.00
H828   H     0.21265   0.62327   0.79998   0.00000  Uiso   1.00
H829   H     0.21269   0.37697   0.79993   0.00000  Uiso   1.00
H830   H     0.12064   0.62304   0.70007   0.00000  Uiso   1.00
N831   N     0.16667   0.61736   0.75000   0.00000  Uiso   1.00
N832   N     0.16667   0.38264   0.75000   0.00000  Uiso   1.00
O833   O     0.10655   0.53958   0.74999   0.00000  Uiso   1.00
O834   O     0.22679   0.46042   0.75000   0.00000  Uiso   1.00
O835   O     0.22679   0.53958   0.75000   0.00000  Uiso   1.00
O836   O     0.10655   0.46042   0.74999   0.00000  Uiso   1.00
O837   O     0.16666   0.53960   0.68513   0.00000  Uiso   1.00
O838   O     0.16668   0.46040   0.81487   0.00000  Uiso   1.00
O839   O     0.16668   0.53960   0.81487   0.00000  Uiso   1.00
O840   O     0.16666   0.46040   0.68513   0.00000  Uiso   1.00
O841   O     0.21163   0.42905   0.88576   0.00000  Uiso   1.00
H842   H     0.22655   0.44401   0.86083   0.00000  Uiso   1.00
O843   O     0.12151   0.57085   0.61429   0.00000  Uiso   1.00
H844   H     0.10668   0.55590   0.63927   0.00000  Uiso   1.00
I845   I     0.12272   0.64220   0.93985   0.00000  Uiso   1.00
I846   I     0.21025   0.35767   0.56017   0.00000  Uiso   1.00
O847   O     0.11641   0.61543   0.54380   0.00000  Uiso   1.00
H848   H     0.09512   0.63042   0.52503   0.00000  Uiso   1.00
O849   O     0.21657   0.38441   0.95621   0.00000  Uiso   1.00
H850   H     0.23783   0.36938   0.97498   0.00000  Uiso   1.00
O851   O     0.04101   0.45533   0.67976   0.00000  Uiso   1.00
H852   H     0.06964   0.46711   0.67694   0.00000  Uiso   1.00
O853   O     0.28842   0.54635   0.81508   0.00000  Uiso   1.00
H854   H     0.30683   0.56281   0.83622   0.00000  Uiso   1.00
O855   O     0.29229   0.45487   0.67944   0.00000  Uiso   1.00
H856   H     0.26341   0.46576   0.67686   0.00000  Uiso   1.00
O857   O     0.04137   0.54413   0.81950   0.00000  Uiso   1.00
H858   H     0.06929   0.53070   0.82337   0.00000  Uiso   1.00
C859   C     0.42083   0.49993   0.74994   0.00000  Uiso   1.00
C860   C     0.57917   0.50009   0.74955   0.00000  Uiso   1.00
C861   C     0.46613   0.57760   0.52147   0.00000  Uiso   1.00
C862   C     0.53357   0.42228   0.97855   0.00000  Uiso   1.00
C863   C     0.35476   0.47697   0.71493   0.00000  Uiso   1.00
C864   C     0.64476   0.52420   0.78265   0.00000  Uiso   1.00
C865   C     0.64520   0.47691   0.71461   0.00000  Uiso   1.00
C866   C     0.35472   0.52304   0.78404   0.00000  Uiso   1.00
C867   C     0.62376   0.50046   0.74861   0.00000  Uiso   1.00
C868   C     0.37622   0.49980   0.74973   0.00000  Uiso   1.00
C869   C     0.47447   0.35808   0.72224   0.00000  Uiso   1.00
C870   C     0.52553   0.64192   0.77776   0.00000  Uiso   1.00
C871   C     0.52554   0.35821   0.77775   0.00000  Uiso   1.00
C872   C     0.47446   0.64179   0.72225   0.00000  Uiso   1.00
C873   C     0.49845   0.50000   0.66438   0.00000  Uiso   1.00
C874   C     0.50153   0.50000   0.83562   0.00000  Uiso   1.00
C875   C     0.52257   0.46306   0.90756   0.00000  Uiso   1.00
C876   C     0.47724   0.53686   0.59246   0.00000  Uiso   1.00
C877   C     0.50400   0.50016   0.88402   0.00000  Uiso   1.00
C878   C     0.49589   0.49981   0.61600   0.00000  Uiso   1.00
C879   C     0.48664   0.53773   0.90658   0.00000  Uiso   1.00
C880   C     0.51321   0.46222   0.59343   0.00000  Uiso   1.00
C881   C     0.48592   0.53902   0.95272   0.00000  Uiso   1.00
C882   C     0.51385   0.46088   0.54729   0.00000  Uiso   1.00
C883   C     0.50096   0.49995   0.97674   0.00000  Uiso   1.00
C884   C     0.49879   0.49995   0.52327   0.00000  Uiso   1.00
C885   C     0.51891   0.46131   0.95417   0.00000  Uiso   1.00
C886   C     0.48084   0.53859   0.54585   0.00000  Uiso   1.00
C887   C     0.46997   0.57842   0.97501   0.00000  Uiso   1.00
C888   C     0.52974   0.42146   0.52500   0.00000  Uiso   1.00
Cu889  Cu    0.50000   0.54689   0.75000   0.00000  Uiso   1.00
Cu890  Cu    0.50000   0.45311   0.75000   0.00000  Uiso   1.00
H891   H     0.47264   0.56541   0.88736   0.00000  Uiso   1.00
H892   H     0.52724   0.43455   0.61263   0.00000  Uiso   1.00
H893   H     0.45402   0.37674   0.70001   0.00000  Uiso   1.00
H894   H     0.54598   0.62327   0.79998   0.00000  Uiso   1.00
H895   H     0.54602   0.37697   0.79993   0.00000  Uiso   1.00
H896   H     0.45398   0.62304   0.70007   0.00000  Uiso   1.00
N897   N     0.50000   0.61736   0.75000   0.00000  Uiso   1.00
N898   N     0.50000   0.38264   0.75000   0.00000  Uiso   1.00
O899   O     0.43988   0.53958   0.74999   0.00000  Uiso   1.00
O900   O     0.56012   0.46042   0.75000   0.00000  Uiso   1.00
O901   O     0.56012   0.53958   0.75000   0.00000  Uiso   1.00
O902   O     0.43988   0.46042   0.74999   0.00000  Uiso   1.00
O903   O     0.49999   0.53960   0.68513   0.00000  Uiso   1.00
O904   O     0.50001   0.46040   0.81487   0.00000  Uiso   1.00
O905   O     0.50001   0.53960   0.81487   0.00000  Uiso   1.00
O906   O     0.49999   0.46040   0.68513   0.00000  Uiso   1.00
O907   O     0.54497   0.42905   0.88576   0.00000  Uiso   1.00
H908   H     0.55988   0.44401   0.86083   0.00000  Uiso   1.00
O909   O     0.45484   0.57085   0.61429   0.00000  Uiso   1.00
H910   H     0.44001   0.55590   0.63927   0.00000  Uiso   1.00
I911   I     0.45605   0.64220   0.93985   0.00000  Uiso   1.00
I912   I     0.54358   0.35767   0.56017   0.00000  Uiso   1.00
O913   O     0.44974   0.61543   0.54380   0.00000  Uiso   1.00
H914   H     0.42845   0.63042   0.52503   0.00000  Uiso   1.00
O915   O     0.54990   0.38441   0.95621   0.00000  Uiso   1.00
H916   H     0.57116   0.36938   0.97498   0.00000  Uiso   1.00
O917   O     0.37434   0.45533   0.67976   0.00000  Uiso   1.00
H918   H     0.40297   0.46711   0.67694   0.00000  Uiso   1.00
O919   O     0.62175   0.54635   0.81508   0.00000  Uiso   1.00
H920   H     0.64017   0.56281   0.83622   0.00000  Uiso   1.00
O921   O     0.62563   0.45487   0.67944   0.00000  Uiso   1.00
H922   H     0.59674   0.46576   0.67686   0.00000  Uiso   1.00
O923   O     0.37470   0.54413   0.81950   0.00000  Uiso   1.00
H924   H     0.40262   0.53070   0.82337   0.00000  Uiso   1.00
C925   C     0.75416   0.49993   0.74994   0.00000  Uiso   1.00
C926   C     0.91251   0.50009   0.74955   0.00000  Uiso   1.00
C927   C     0.79946   0.57760   0.52147   0.00000  Uiso   1.00
C928   C     0.86691   0.42228   0.97855   0.00000  Uiso   1.00
C929   C     0.68810   0.47697   0.71493   0.00000  Uiso   1.00
C930   C     0.97809   0.52420   0.78265   0.00000  Uiso   1.00
C931   C     0.97853   0.47691   0.71461   0.00000  Uiso   1.00
C932   C     0.68805   0.52304   0.78404   0.00000  Uiso   1.00
C933   C     0.95709   0.50046   0.74861   0.00000  Uiso   1.00
C934   C     0.70956   0.49980   0.74973   0.00000  Uiso   1.00
C935   C     0.80780   0.35808   0.72224   0.00000  Uiso   1.00
C936   C     0.85886   0.64192   0.77776   0.00000  Uiso   1.00
C937   C     0.85887   0.35821   0.77775   0.00000  Uiso   1.00
C938   C     0.80780   0.64179   0.72225   0.00000  Uiso   1.00
C939   C     0.83178   0.50000   0.66438   0.00000  Uiso   1.00
C940   C     0.83487   0.50000   0.83562   0.00000  Uiso   1.00
C941   C     0.85590   0.46306   0.90756   0.00000  Uiso   1.00
C942   C     0.81058   0.53686   0.59246   0.00000  Uiso   1.00
C943   C     0.83733   0.50016   0.88402   0.00000  Uiso   1.00
C944   C     0.82923   0.49981   0.61600   0.00000  Uiso   1.00
C945   C     0.81997   0.53773   0.90658   0.00000  Uiso   1.00
C946   C     0.84655   0.46222   0.59343   0.00000  Uiso   1.00
C947   C     0.81925   0.53902   0.95272   0.00000  Uiso   1.00
C948   C     0.84718   0.46088   0.54729   0.00000  Uiso   1.00
C949   C     0.83429   0.49995   0.97674   0.00000  Uiso   1.00
C950   C     0.83212   0.49995   0.52327   0.00000  Uiso   1.00
C951   C     0.85225   0.46131   0.95417   0.00000  Uiso   1.00
C952   C     0.81417   0.53859   0.54585   0.00000  Uiso   1.00
C953   C     0.80330   0.57842   0.97501   0.00000  Uiso   1.00
C954   C     0.86307   0.42146   0.52500   0.00000  Uiso   1.00
Cu955  Cu    0.83333   0.54689   0.75000   0.00000  Uiso   1.00
Cu956  Cu    0.83333   0.45311   0.75000   0.00000  Uiso   1.00
H957   H     0.80598   0.56541   0.88736   0.00000  Uiso   1.00
H958   H     0.86058   0.43455   0.61263   0.00000  Uiso   1.00
H959   H     0.78735   0.37674   0.70001   0.00000  Uiso   1.00
H960   H     0.87932   0.62327   0.79998   0.00000  Uiso   1.00
H961   H     0.87936   0.37697   0.79993   0.00000  Uiso   1.00
H962   H     0.78731   0.62304   0.70007   0.00000  Uiso   1.00
N963   N     0.83333   0.61736   0.75000   0.00000  Uiso   1.00
N964   N     0.83333   0.38264   0.75000   0.00000  Uiso   1.00
O965   O     0.77321   0.53958   0.74999   0.00000  Uiso   1.00
O966   O     0.89345   0.46042   0.75000   0.00000  Uiso   1.00
O967   O     0.89345   0.53958   0.75000   0.00000  Uiso   1.00
O968   O     0.77321   0.46042   0.74999   0.00000  Uiso   1.00
O969   O     0.83332   0.53960   0.68513   0.00000  Uiso   1.00
O970   O     0.83334   0.46040   0.81487   0.00000  Uiso   1.00
O971   O     0.83334   0.53960   0.81487   0.00000  Uiso   1.00
O972   O     0.83332   0.46040   0.68513   0.00000  Uiso   1.00
O973   O     0.87830   0.42905   0.88576   0.00000  Uiso   1.00
H974   H     0.89321   0.44401   0.86083   0.00000  Uiso   1.00
O975   O     0.78817   0.57085   0.61429   0.00000  Uiso   1.00
H976   H     0.77334   0.55590   0.63927   0.00000  Uiso   1.00
I977   I     0.78938   0.64220   0.93985   0.00000  Uiso   1.00
I978   I     0.87692   0.35767   0.56017   0.00000  Uiso   1.00
O979   O     0.78307   0.61543   0.54380   0.00000  Uiso   1.00
H980   H     0.76179   0.63042   0.52503   0.00000  Uiso   1.00
O981   O     0.88324   0.38441   0.95621   0.00000  Uiso   1.00
H982   H     0.90450   0.36938   0.97498   0.00000  Uiso   1.00
O983   O     0.70767   0.45533   0.67976   0.00000  Uiso   1.00
H984   H     0.73630   0.46711   0.67694   0.00000  Uiso   1.00
O985   O     0.95508   0.54635   0.81508   0.00000  Uiso   1.00
H986   H     0.97350   0.56281   0.83622   0.00000  Uiso   1.00
O987   O     0.95896   0.45487   0.67944   0.00000  Uiso   1.00
H988   H     0.93008   0.46576   0.67686   0.00000  Uiso   1.00
O989   O     0.70804   0.54413   0.81950   0.00000  Uiso   1.00
H990   H     0.73595   0.53070   0.82337   0.00000  Uiso   1.00
C991   C     0.08750   0.83326   0.74994   0.00000  Uiso   1.00
C992   C     0.24584   0.83342   0.74955   0.00000  Uiso   1.00
C993   C     0.13279   0.91093   0.52147   0.00000  Uiso   1.00
C994   C     0.20024   0.75561   0.97855   0.00000  Uiso   1.00
C995   C     0.02143   0.81030   0.71493   0.00000  Uiso   1.00
C996   C     0.31142   0.85753   0.78265   0.00000  Uiso   1.00
C997   C     0.31186   0.81024   0.71461   0.00000  Uiso   1.00
C998   C     0.02138   0.85638   0.78404   0.00000  Uiso   1.00
C999   C     0.29043   0.83379   0.74861   0.00000  Uiso   1.00
C1000  C     0.04289   0.83313   0.74973   0.00000  Uiso   1.00
C1001  C     0.14114   0.69141   0.72224   0.00000  Uiso   1.00
C1002  C     0.19220   0.97526   0.77776   0.00000  Uiso   1.00
C1003  C     0.19220   0.69154   0.77775   0.00000  Uiso   1.00
C1004  C     0.14113   0.97512   0.72225   0.00000  Uiso   1.00
C1005  C     0.16512   0.83333   0.66438   0.00000  Uiso   1.00
C1006  C     0.16820   0.83333   0.83562   0.00000  Uiso   1.00
C1007  C     0.18923   0.79640   0.90756   0.00000  Uiso   1.00
C1008  C     0.14391   0.87019   0.59246   0.00000  Uiso   1.00
C1009  C     0.17066   0.83349   0.88402   0.00000  Uiso   1.00
C1010  C     0.16256   0.83314   0.61600   0.00000  Uiso   1.00
C1011  C     0.15330   0.87106   0.90658   0.00000  Uiso   1.00
C1012  C     0.17988   0.79555   0.59343   0.00000  Uiso   1.00
C1013  C     0.15258   0.87236   0.95272   0.00000  Uiso   1.00
C1014  C     0.18051   0.79422   0.54729   0.00000  Uiso   1.00
C1015  C     0.16763   0.83328   0.97674   0.00000  Uiso   1.00
C1016  C     0.16545   0.83328   0.52327   0.00000  Uiso   1.00
C1017  C     0.18558   0.79464   0.95417   0.00000  Uiso   1.00
C1018  C     0.14750   0.87192   0.54585   0.00000  Uiso   1.00
C1019  C     0.13664   0.91175   0.97501   0.00000  Uiso   1.00
C1020  C     0.19641   0.75479   0.52500   0.00000  Uiso   1.00
Cu1021 Cu    0.16667   0.88022   0.75000   0.00000  Uiso   1.00
Cu1022 Cu    0.16667   0.78645   0.75000   0.00000  Uiso   1.00
H1023  H     0.13931   0.89875   0.88736   0.00000  Uiso   1.00
H1024  H     0.19391   0.76789   0.61263   0.00000  Uiso   1.00
H1025  H     0.12069   0.71007   0.70001   0.00000  Uiso   1.00
H1026  H     0.21265   0.95660   0.79998   0.00000  Uiso   1.00
H1027  H     0.21269   0.71030   0.79993   0.00000  Uiso   1.00
H1028  H     0.12064   0.95637   0.70007   0.00000  Uiso   1.00
N1029  N     0.16667   0.95069   0.75000   0.00000  Uiso   1.00
N1030  N     0.16667   0.71598   0.75000   0.00000  Uiso   1.00
O1031  O     0.10655   0.87291   0.74999   0.00000  Uiso   1.00
O1032  O     0.22679   0.79375   0.75000   0.00000  Uiso   1.00
O1033  O     0.22679   0.87291   0.75000   0.00000  Uiso   1.00
O1034  O     0.10655   0.79375   0.74999   0.00000  Uiso   1.00
O1035  O     0.16666   0.87293   0.68513   0.00000  Uiso   1.00
O1036  O     0.16668   0.79373   0.81487   0.00000  Uiso   1.00
O1037  O     0.16668   0.87293   0.81487   0.00000  Uiso   1.00
O1038  O     0.16666   0.79373   0.68513   0.00000  Uiso   1.00
O1039  O     0.21163   0.76239   0.88576   0.00000  Uiso   1.00
H1040  H     0.22655   0.77734   0.86083   0.00000  Uiso   1.00
O1041  O     0.12151   0.90418   0.61429   0.00000  Uiso   1.00
H1042  H     0.10668   0.88923   0.63927   0.00000  Uiso   1.00
I1043  I     0.12272   0.97553   0.93985   0.00000  Uiso   1.00
I1044  I     0.21025   0.69100   0.56017   0.00000  Uiso   1.00
O1045  O     0.11641   0.94876   0.54380   0.00000  Uiso   1.00
H1046  H     0.09512   0.96375   0.52503   0.00000  Uiso   1.00
O1047  O     0.21657   0.71775   0.95621   0.00000  Uiso   1.00
H1048  H     0.23783   0.70271   0.97498   0.00000  Uiso   1.00
O1049  O     0.04101   0.78867   0.67976   0.00000  Uiso   1.00
H1050  H     0.06964   0.80044   0.67694   0.00000  Uiso   1.00
O1051  O     0.28842   0.87968   0.81508   0.00000  Uiso   1.00
H1052  H     0.30683   0.89614   0.83622   0.00000  Uiso   1.00
O1053  O     0.29229   0.78821   0.67944   0.00000  Uiso   1.00
H1054  H     0.26341   0.79910   0.67686   0.00000  Uiso   1.00
O1055  O     0.04137   0.87746   0.81950   0.00000  Uiso   1.00
H1056  H     0.06929   0.86403   0.82337   0.00000  Uiso   1.00
C1057  C     0.42083   0.83326   0.74994   0.00000  Uiso   1.00
C1058  C     0.57917   0.83342   0.74955   0.00000  Uiso   1.00
C1059  C     0.46613   0.91093   0.52147   0.00000  Uiso   1.00
C1060  C     0.53357   0.75561   0.97855   0.00000  Uiso   1.00
C1061  C     0.35476   0.81030   0.71493   0.00000  Uiso   1.00
C1062  C     0.64476   0.85753   0.78265   0.00000  Uiso   1.00
C1063  C     0.64520   0.81024   0.71461   0.00000  Uiso   1.00
C1064  C     0.35472   0.85638   0.78404   0.00000  Uiso   1.00
C1065  C     0.62376   0.83379   0.74861   0.00000  Uiso   1.00
C1066  C     0.37622   0.83313   0.74973   0.00000  Uiso   1.00
C1067  C     0.47447   0.69141   0.72224   0.00000  Uiso   1.00
C1068  C     0.52553   0.97526   0.77776   0.00000  Uiso   1.00
C1069  C     0.52554   0.69154   0.77775   0.00000  Uiso   1.00
C1070  C     0.47446   0.97512   0.72225   0.00000  Uiso   1.00
C1071  C     0.49845   0.83333   0.66438   0.00000  Uiso   1.00
C1072  C     0.50153   0.83333   0.83562   0.00000  Uiso   1.00
C1073  C     0.52257   0.79640   0.90756   0.00000  Uiso   1.00
C1074  C     0.47724   0.87019   0.59246   0.00000  Uiso   1.00
C1075  C     0.50400   0.83349   0.88402   0.00000  Uiso   1.00
C1076  C     0.49589   0.83314   0.61600   0.00000  Uiso   1.00
C1077  C     0.48664   0.87106   0.90658   0.00000  Uiso   1.00
C1078  C     0.51321   0.79555   0.59343   0.00000  Uiso   1.00
C1079  C     0.48592   0.87236   0.95272   0.00000  Uiso   1.00
C1080  C     0.51385   0.79422   0.54729   0.00000  Uiso   1.00
C1081  C     0.50096   0.83328   0.97674   0.00000  Uiso   1.00
C1082  C     0.49879   0.83328   0.52327   0.00000  Uiso   1.00
C1083  C     0.51891   0.79464   0.95417   0.00000  Uiso   1.00
C1084  C     0.48084   0.87192   0.54585   0.00000  Uiso   1.00
C1085  C     0.46997   0.91175   0.97501   0.00000  Uiso   1.00
C1086  C     0.52974   0.75479   0.52500   0.00000  Uiso   1.00
Cu1087 Cu    0.50000   0.88022   0.75000   0.00000  Uiso   1.00
Cu1088 Cu    0.50000   0.78645   0.75000   0.00000  Uiso   1.00
H1089  H     0.47264   0.89875   0.88736   0.00000  Uiso   1.00
H1090  H     0.52724   0.76789   0.61263   0.00000  Uiso   1.00
H1091  H     0.45402   0.71007   0.70001   0.00000  Uiso   1.00
H1092  H     0.54598   0.95660   0.79998   0.00000  Uiso   1.00
H1093  H     0.54602   0.71030   0.79993   0.00000  Uiso   1.00
H1094  H     0.45398   0.95637   0.70007   0.00000  Uiso   1.00
N1095  N     0.50000   0.95069   0.75000   0.00000  Uiso   1.00
N1096  N     0.50000   0.71598   0.75000   0.00000  Uiso   1.00
O1097  O     0.43988   0.87291   0.74999   0.00000  Uiso   1.00
O1098  O     0.56012   0.79375   0.75000   0.00000  Uiso   1.00
O1099  O     0.56012   0.87291   0.75000   0.00000  Uiso   1.00
O1100  O     0.43988   0.79375   0.74999   0.00000  Uiso   1.00
O1101  O     0.49999   0.87293   0.68513   0.00000  Uiso   1.00
O1102  O     0.50001   0.79373   0.81487   0.00000  Uiso   1.00
O1103  O     0.50001   0.87293   0.81487   0.00000  Uiso   1.00
O1104  O     0.49999   0.79373   0.68513   0.00000  Uiso   1.00
O1105  O     0.54497   0.76239   0.88576   0.00000  Uiso   1.00
H1106  H     0.55988   0.77734   0.86083   0.00000  Uiso   1.00
O1107  O     0.45484   0.90418   0.61429   0.00000  Uiso   1.00
H1108  H     0.44001   0.88923   0.63927   0.00000  Uiso   1.00
I1109  I     0.45605   0.97553   0.93985   0.00000  Uiso   1.00
I1110  I     0.54358   0.69100   0.56017   0.00000  Uiso   1.00
O1111  O     0.44974   0.94876   0.54380   0.00000  Uiso   1.00
H1112  H     0.42845   0.96375   0.52503   0.00000  Uiso   1.00
O1113  O     0.54990   0.71775   0.95621   0.00000  Uiso   1.00
H1114  H     0.57116   0.70271   0.97498   0.00000  Uiso   1.00
O1115  O     0.37434   0.78867   0.67976   0.00000  Uiso   1.00
H1116  H     0.40297   0.80044   0.67694   0.00000  Uiso   1.00
O1117  O     0.62175   0.87968   0.81508   0.00000  Uiso   1.00
H1118  H     0.64017   0.89614   0.83622   0.00000  Uiso   1.00
O1119  O     0.62563   0.78821   0.67944   0.00000  Uiso   1.00
H1120  H     0.59674   0.79910   0.67686   0.00000  Uiso   1.00
O1121  O     0.37470   0.87746   0.81950   0.00000  Uiso   1.00
H1122  H     0.40262   0.86403   0.82337   0.00000  Uiso   1.00
C1123  C     0.75416   0.83326   0.74994   0.00000  Uiso   1.00
C1124  C     0.91251   0.83342   0.74955   0.00000  Uiso   1.00
C1125  C     0.79946   0.91093   0.52147   0.00000  Uiso   1.00
C1126  C     0.86691   0.75561   0.97855   0.00000  Uiso   1.00
C1127  C     0.68810   0.81030   0.71493   0.00000  Uiso   1.00
C1128  C     0.97809   0.85753   0.78265   0.00000  Uiso   1.00
C1129  C     0.97853   0.81024   0.71461   0.00000  Uiso   1.00
C1130  C     0.68805   0.85638   0.78404   0.00000  Uiso   1.00
C1131  C     0.95709   0.83379   0.74861   0.00000  Uiso   1.00
C1132  C     0.70956   0.83313   0.74973   0.00000  Uiso   1.00
C1133  C     0.80780   0.69141   0.72224   0.00000  Uiso   1.00
C1134  C     0.85886   0.97526   0.77776   0.00000  Uiso   1.00
C1135  C     0.85887   0.69154   0.77775   0.00000  Uiso   1.00
C1136  C     0.80780   0.97512   0.72225   0.00000  Uiso   1.00
C1137  C     0.83178   0.83333   0.66438   0.00000  Uiso   1.00
C1138  C     0.83487   0.83333   0.83562   0.00000  Uiso   1.00
C1139  C     0.85590   0.79640   0.90756   0.00000  Uiso   1.00
C1140  C     0.81058   0.87019   0.59246   0.00000  Uiso   1.00
C1141  C     0.83733   0.83349   0.88402   0.00000  Uiso   1.00
C1142  C     0.82923   0.83314   0.61600   0.00000  Uiso   1.00
C1143  C     0.81997   0.87106   0.90658   0.00000  Uiso   1.00
C1144  C     0.84655   0.79555   0.59343   0.00000  Uiso   1.00
C1145  C     0.81925   0.87236   0.95272   0.00000  Uiso   1.00
C1146  C     0.84718   0.79422   0.54729   0.00000  Uiso   1.00
C1147  C     0.83429   0.83328   0.97674   0.00000  Uiso   1.00
C1148  C     0.83212   0.83328   0.52327   0.00000  Uiso   1.00
C1149  C     0.85225   0.79464   0.95417   0.00000  Uiso   1.00
C1150  C     0.81417   0.87192   0.54585   0.00000  Uiso   1.00
C1151  C     0.80330   0.91175   0.97501   0.00000  Uiso   1.00
C1152  C     0.86307   0.75479   0.52500   0.00000  Uiso   1.00
Cu1153 Cu    0.83333   0.88022   0.75000   0.00000  Uiso   1.00
Cu1154 Cu    0.83333   0.78645   0.75000   0.00000  Uiso   1.00
H1155  H     0.80598   0.89875   0.88736   0.00000  Uiso   1.00
H1156  H     0.86058   0.76789   0.61263   0.00000  Uiso   1.00
H1157  H     0.78735   0.71007   0.70001   0.00000  Uiso   1.00
H1158  H     0.87932   0.95660   0.79998   0.00000  Uiso   1.00
H1159  H     0.87936   0.71030   0.79993   0.00000  Uiso   1.00
H1160  H     0.78731   0.95637   0.70007   0.00000  Uiso   1.00
N1161  N     0.83333   0.95069   0.75000   0.00000  Uiso   1.00
N1162  N     0.83333   0.71598   0.75000   0.00000  Uiso   1.00
O1163  O     0.77321   0.87291   0.74999   0.00000  Uiso   1.00
O1164  O     0.89345   0.79375   0.75000   0.00000  Uiso   1.00
O1165  O     0.89345   0.87291   0.75000   0.00000  Uiso   1.00
O1166  O     0.77321   0.79375   0.74999   0.00000  Uiso   1.00
O1167  O     0.83332   0.87293   0.68513   0.00000  Uiso   1.00
O1168  O     0.83334   0.79373   0.81487   0.00000  Uiso   1.00
O1169  O     0.83334   0.87293   0.81487   0.00000  Uiso   1.00
O1170  O     0.83332   0.79373   0.68513   0.00000  Uiso   1.00
O1171  O     0.87830   0.76239   0.88576   0.00000  Uiso   1.00
H1172  H     0.89321   0.77734   0.86083   0.00000  Uiso   1.00
O1173  O     0.78817   0.90418   0.61429   0.00000  Uiso   1.00
H1174  H     0.77334   0.88923   0.63927   0.00000  Uiso   1.00
I1175  I     0.78938   0.97553   0.93985   0.00000  Uiso   1.00
I1176  I     0.87692   0.69100   0.56017   0.00000  Uiso   1.00
O1177  O     0.78307   0.94876   0.54380   0.00000  Uiso   1.00
H1178  H     0.76179   0.96375   0.52503   0.00000  Uiso   1.00
O1179  O     0.88324   0.71775   0.95621   0.00000  Uiso   1.00
H1180  H     0.90450   0.70271   0.97498   0.00000  Uiso   1.00
O1181  O     0.70767   0.78867   0.67976   0.00000  Uiso   1.00
H1182  H     0.73630   0.80044   0.67694   0.00000  Uiso   1.00
O1183  O     0.95508   0.87968   0.81508   0.00000  Uiso   1.00
H1184  H     0.97350   0.89614   0.83622   0.00000  Uiso   1.00
O1185  O     0.95896   0.78821   0.67944   0.00000  Uiso   1.00
H1186  H     0.93008   0.79910   0.67686   0.00000  Uiso   1.00
O1187  O     0.70804   0.87746   0.81950   0.00000  Uiso   1.00
H1188  H     0.73595   0.86403   0.82337   0.00000  Uiso   1.00
loop_
_geom_bond_atom_site_label_1
_geom_bond_atom_site_label_2
_geom_bond_distance
_geom_bond_site_symmetry_2
_ccdc_geom_bond_type
C1     O44     1.287   .     A
C1     O41     1.287   .     A
C1     C10     1.444   .     S
C2     O43     1.287   .     A
C2     O42     1.288   .     A
C2     C9      1.443   .     S
C3     C28     1.417   .     A
C3     O55     1.381   .     S
C3     C623    1.408   1_554 S
C4     O57     1.381   .     S
C4     C27     1.417   .     A
C4     C624    1.408   .     S
C5     O59     1.385   .     S
C5     C10     1.415   .     A
C5     C139    1.388   1_455 S
C6     C9      1.403   .     A
C6     O61     1.386   .     S
C6     C74     1.402   .     S
C7     O63     1.385   .     S
C7     C9      1.412   .     A
C7     C71     1.388   .     S
C8     O65     1.385   .     S
C8     C10     1.416   .     A
C8     C138    1.402   1_455 S
C11    N40     1.367   .     A
C11    H35     1.082   .     S
C11    C410    1.416   1_545 S
C12    N39     1.367   .     A
C12    H36     1.082   .     S
C12    C211    1.416   .     S
C13    H37     1.081   .     S
C13    N40     1.367   .     A
C13    C408    1.416   1_545 S
C14    H38     1.081   .     S
C14    N39     1.367   .     A
C14    C209    1.416   .     S
C15    O48     1.293   .     A
C15    O45     1.293   .     A
C15    C20     1.463   .     S
C16    C19     1.463   .     S
C16    O47     1.293   .     A
C16    O46     1.293   .     A
C17    C19     1.410   .     A
C17    O49     1.382   .     S
C17    C27     1.413   .     A
C18    O51     1.382   .     S
C18    C20     1.410   .     A
C18    C28     1.413   .     A
C19    C21     1.392   .     A
C20    C22     1.392   .     A
C21    C23     1.394   .     A
C21    H33     1.080   .     S
C22    H34     1.080   .     S
C22    C24     1.394   .     A
C23    C25     1.416   .     A
C23    C29     1.411   .     A
C24    C26     1.416   .     A
C24    C30     1.411   .     A
C25    C27     1.423   .     A
C25    C620    1.407   .     S
C26    C28     1.423   .     A
C26    C619    1.407   1_554 S
C29    I53     2.155   .     S
C29    C597    1.408   .     S
C30    I54     2.155   .     S
C30    C598    1.408   1_554 S
Cu31   Cu32    2.677   .     S
Cu31   O47     1.969   .     S
Cu31   O43     1.957   .     S
Cu31   O45     1.969   .     S
Cu31   O41     1.956   .     S
Cu31   N39     2.011   .     S
Cu32   O46     1.969   .     S
Cu32   O44     1.957   .     S
Cu32   O48     1.969   .     S
Cu32   N40     2.011   .     S
Cu32   O42     1.956   .     S
O49    H50     0.991   .     S
O51    H52     0.991   .     S
O55    H56     0.989   .     S
O57    H58     0.989   .     S
O59    H60     0.989   .     S
O61    H62     0.989   .     S
O63    H64     0.989   .     S
O65    H66     0.989   .     S
C67    O110    1.287   .     A
C67    O107    1.287   .     A
C67    C76     1.444   .     S
C68    O109    1.287   .     A
C68    O108    1.288   .     A
C68    C75     1.443   .     S
C69    C94     1.417   .     A
C69    O121    1.381   .     S
C69    C689    1.408   1_554 S
C70    O123    1.381   .     S
C70    C93     1.417   .     A
C70    C690    1.408   .     S
C71    O125    1.385   .     S
C71    C76     1.415   .     A
C72    C75     1.403   .     A
C72    O127    1.386   .     S
C72    C140    1.402   .     S
C73    O129    1.385   .     S
C73    C75     1.412   .     A
C73    C137    1.388   .     S
C74    O131    1.385   .     S
C74    C76     1.416   .     A
C77    N106    1.367   .     A
C77    H101    1.082   .     S
C77    C476    1.416   1_545 S
C78    N105    1.367   .     A
C78    H102    1.082   .     S
C78    C277    1.416   .     S
C79    H103    1.081   .     S
C79    N106    1.367   .     A
C79    C474    1.416   1_545 S
C80    H104    1.081   .     S
C80    N105    1.367   .     A
C80    C275    1.416   .     S
C81    O114    1.293   .     A
C81    O111    1.293   .     A
C81    C86     1.463   .     S
C82    C85     1.463   .     S
C82    O113    1.293   .     A
C82    O112    1.293   .     A
C83    C85     1.410   .     A
C83    O115    1.382   .     S
C83    C93     1.413   .     A
C84    O117    1.382   .     S
C84    C86     1.410   .     A
C84    C94     1.413   .     A
C85    C87     1.392   .     A
C86    C88     1.392   .     A
C87    C89     1.394   .     A
C87    H99     1.080   .     S
C88    H100    1.080   .     S
C88    C90     1.394   .     A
C89    C91     1.416   .     A
C89    C95     1.411   .     A
C90    C92     1.416   .     A
C90    C96     1.411   .     A
C91    C93     1.423   .     A
C91    C686    1.407   .     S
C92    C94     1.423   .     A
C92    C685    1.407   1_554 S
C95    I119    2.155   .     S
C95    C663    1.408   .     S
C96    I120    2.155   .     S
C96    C664    1.408   1_554 S
Cu97   Cu98    2.677   .     S
Cu97   O113    1.969   .     S
Cu97   O109    1.957   .     S
Cu97   O111    1.969   .     S
Cu97   O107    1.956   .     S
Cu97   N105    2.011   .     S
Cu98   O112    1.969   .     S
Cu98   O110    1.957   .     S
Cu98   O114    1.969   .     S
Cu98   N106    2.011   .     S
Cu98   O108    1.956   .     S
O115   H116    0.991   .     S
O117   H118    0.991   .     S
O121   H122    0.989   .     S
O123   H124    0.989   .     S
O125   H126    0.989   .     S
O127   H128    0.989   .     S
O129   H130    0.989   .     S
O131   H132    0.989   .     S
C133   O176    1.287   .     A
C133   O173    1.287   .     A
C133   C142    1.444   .     S
C134   O175    1.287   .     A
C134   O174    1.288   .     A
C134   C141    1.443   .     S
C135   C160    1.417   .     A
C135   O187    1.381   .     S
C135   C755    1.408   1_554 S
C136   O189    1.381   .     S
C136   C159    1.417   .     A
C136   C756    1.408   .     S
C137   O191    1.385   .     S
C137   C142    1.415   .     A
C138   C141    1.403   .     A
C138   O193    1.386   .     S
C138   C8      1.402   1_655 S
C139   O195    1.385   .     S
C139   C141    1.412   .     A
C139   C5      1.388   1_655 S
C140   O197    1.385   .     S
C140   C142    1.416   .     A
C143   N172    1.367   .     A
C143   H167    1.082   .     S
C143   C542    1.416   1_545 S
C144   N171    1.367   .     A
C144   H168    1.082   .     S
C144   C343    1.416   .     S
C145   H169    1.081   .     S
C145   N172    1.367   .     A
C145   C540    1.416   1_545 S
C146   H170    1.081   .     S
C146   N171    1.367   .     A
C146   C341    1.416   .     S
C147   O180    1.293   .     A
C147   O177    1.293   .     A
C147   C152    1.463   .     S
C148   C151    1.463   .     S
C148   O179    1.293   .     A
C148   O178    1.293   .     A
C149   C151    1.410   .     A
C149   O181    1.382   .     S
C149   C159    1.413   .     A
C150   O183    1.382   .     S
C150   C152    1.410   .     A
C150   C160    1.413   .     A
C151   C153    1.392   .     A
C152   C154    1.392   .     A
C153   C155    1.394   .     A
C153   H165    1.080   .     S
C154   H166    1.080   .     S
C154   C156    1.394   .     A
C155   C157    1.416   .     A
C155   C161    1.411   .     A
C156   C158    1.416   .     A
C156   C162    1.411   .     A
C157   C159    1.423   .     A
C157   C752    1.407   .     S
C158   C160    1.423   .     A
C158   C751    1.407   1_554 S
C161   I185    2.155   .     S
C161   C729    1.408   .     S
C162   I186    2.155   .     S
C162   C730    1.408   1_554 S
Cu163  Cu164   2.677   .     S
Cu163  O179    1.969   .     S
Cu163  O175    1.957   .     S
Cu163  O177    1.969   .     S
Cu163  O173    1.956   .     S
Cu163  N171    2.011   .     S
Cu164  O178    1.969   .     S
Cu164  O176    1.957   .     S
Cu164  O180    1.969   .     S
Cu164  N172    2.011   .     S
Cu164  O174    1.956   .     S
O181   H182    0.991   .     S
O183   H184    0.991   .     S
O187   H188    0.989   .     S
O189   H190    0.989   .     S
O191   H192    0.989   .     S
O193   H194    0.989   .     S
O195   H196    0.989   .     S
O197   H198    0.989   .     S
C199   O242    1.287   .     A
C199   O239    1.287   .     A
C199   C208    1.444   .     S
C200   O241    1.287   .     A
C200   O240    1.288   .     A
C200   C207    1.443   .     S
C201   C226    1.417   .     A
C201   O253    1.381   .     S
C201   C821    1.408   1_554 S
C202   O255    1.381   .     S
C202   C225    1.417   .     A
C202   C822    1.408   .     S
C203   O257    1.385   .     S
C203   C208    1.415   .     A
C203   C337    1.388   1_455 S
C204   C207    1.403   .     A
C204   O259    1.386   .     S
C204   C272    1.402   .     S
C205   O261    1.385   .     S
C205   C207    1.412   .     A
C205   C269    1.388   .     S
C206   O263    1.385   .     S
C206   C208    1.416   .     A
C206   C336    1.402   1_455 S
C209   N238    1.367   .     A
C209   H233    1.082   .     S
C210   N237    1.367   .     A
C210   H234    1.082   .     S
C210   C409    1.416   .     S
C211   H235    1.081   .     S
C211   N238    1.367   .     A
C212   H236    1.081   .     S
C212   N237    1.367   .     A
C212   C407    1.416   .     S
C213   O246    1.293   .     A
C213   O243    1.293   .     A
C213   C218    1.463   .     S
C214   C217    1.463   .     S
C214   O245    1.293   .     A
C214   O244    1.293   .     A
C215   C217    1.410   .     A
C215   O247    1.382   .     S
C215   C225    1.413   .     A
C216   O249    1.382   .     S
C216   C218    1.410   .     A
C216   C226    1.413   .     A
C217   C219    1.392   .     A
C218   C220    1.392   .     A
C219   C221    1.394   .     A
C219   H231    1.080   .     S
C220   H232    1.080   .     S
C220   C222    1.394   .     A
C221   C223    1.416   .     A
C221   C227    1.411   .     A
C222   C224    1.416   .     A
C222   C228    1.411   .     A
C223   C225    1.423   .     A
C223   C818    1.407   .     S
C224   C226    1.423   .     A
C224   C817    1.407   1_554 S
C227   I251    2.155   .     S
C227   C795    1.408   .     S
C228   I252    2.155   .     S
C228   C796    1.408   1_554 S
Cu229  Cu230   2.677   .     S
Cu229  O245    1.969   .     S
Cu229  O241    1.957   .     S
Cu229  O243    1.969   .     S
Cu229  O239    1.956   .     S
Cu229  N237    2.011   .     S
Cu230  O244    1.969   .     S
Cu230  O242    1.957   .     S
Cu230  O246    1.969   .     S
Cu230  N238    2.011   .     S
Cu230  O240    1.956   .     S
O247   H248    0.991   .     S
O249   H250    0.991   .     S
O253   H254    0.989   .     S
O255   H256    0.989   .     S
O257   H258    0.989   .     S
O259   H260    0.989   .     S
O261   H262    0.989   .     S
O263   H264    0.989   .     S
C265   O308    1.287   .     A
C265   O305    1.287   .     A
C265   C274    1.444   .     S
C266   O307    1.287   .     A
C266   O306    1.288   .     A
C266   C273    1.443   .     S
C267   C292    1.417   .     A
C267   O319    1.381   .     S
C267   C887    1.408   1_554 S
C268   O321    1.381   .     S
C268   C291    1.417   .     A
C268   C888    1.408   .     S
C269   O323    1.385   .     S
C269   C274    1.415   .     A
C270   C273    1.403   .     A
C270   O325    1.386   .     S
C270   C338    1.402   .     S
C271   O327    1.385   .     S
C271   C273    1.412   .     A
C271   C335    1.388   .     S
C272   O329    1.385   .     S
C272   C274    1.416   .     A
C275   N304    1.367   .     A
C275   H299    1.082   .     S
C276   N303    1.367   .     A
C276   H300    1.082   .     S
C276   C475    1.416   .     S
C277   H301    1.081   .     S
C277   N304    1.367   .     A
C278   H302    1.081   .     S
C278   N303    1.367   .     A
C278   C473    1.416   .     S
C279   O312    1.293   .     A
C279   O309    1.293   .     A
C279   C284    1.463   .     S
C280   C283    1.463   .     S
C280   O311    1.293   .     A
C280   O310    1.293   .     A
C281   C283    1.410   .     A
C281   O313    1.382   .     S
C281   C291    1.413   .     A
C282   O315    1.382   .     S
C282   C284    1.410   .     A
C282   C292    1.413   .     A
C283   C285    1.392   .     A
C284   C286    1.392   .     A
C285   C287    1.394   .     A
C285   H297    1.080   .     S
C286   H298    1.080   .     S
C286   C288    1.394   .     A
C287   C289    1.416   .     A
C287   C293    1.411   .     A
C288   C290    1.416   .     A
C288   C294    1.411   .     A
C289   C291    1.423   .     A
C289   C884    1.407   .     S
C290   C292    1.423   .     A
C290   C883    1.407   1_554 S
C293   I317    2.155   .     S
C293   C861    1.408   .     S
C294   I318    2.155   .     S
C294   C862    1.408   1_554 S
Cu295  Cu296   2.677   .     S
Cu295  O311    1.969   .     S
Cu295  O307    1.957   .     S
Cu295  O309    1.969   .     S
Cu295  O305    1.956   .     S
Cu295  N303    2.011   .     S
Cu296  O310    1.969   .     S
Cu296  O308    1.957   .     S
Cu296  O312    1.969   .     S
Cu296  N304    2.011   .     S
Cu296  O306    1.956   .     S
O313   H314    0.991   .     S
O315   H316    0.991   .     S
O319   H320    0.989   .     S
O321   H322    0.989   .     S
O323   H324    0.989   .     S
O325   H326    0.989   .     S
O327   H328    0.989   .     S
O329   H330    0.989   .     S
C331   O374    1.287   .     A
C331   O371    1.287   .     A
C331   C340    1.444   .     S
C332   O373    1.287   .     A
C332   O372    1.288   .     A
C332   C339    1.443   .     S
C333   C358    1.417   .     A
C333   O385    1.381   .     S
C333   C953    1.408   1_554 S
C334   O387    1.381   .     S
C334   C357    1.417   .     A
C334   C954    1.408   .     S
C335   O389    1.385   .     S
C335   C340    1.415   .     A
C336   C339    1.403   .     A
C336   O391    1.386   .     S
C336   C206    1.402   1_655 S
C337   O393    1.385   .     S
C337   C339    1.412   .     A
C337   C203    1.388   1_655 S
C338   O395    1.385   .     S
C338   C340    1.416   .     A
C341   N370    1.367   .     A
C341   H365    1.082   .     S
C342   N369    1.367   .     A
C342   H366    1.082   .     S
C342   C541    1.416   .     S
C343   H367    1.081   .     S
C343   N370    1.367   .     A
C344   H368    1.081   .     S
C344   N369    1.367   .     A
C344   C539    1.416   .     S
C345   O378    1.293   .     A
C345   O375    1.293   .     A
C345   C350    1.463   .     S
C346   C349    1.463   .     S
C346   O377    1.293   .     A
C346   O376    1.293   .     A
C347   C349    1.410   .     A
C347   O379    1.382   .     S
C347   C357    1.413   .     A
C348   O381    1.382   .     S
C348   C350    1.410   .     A
C348   C358    1.413   .     A
C349   C351    1.392   .     A
C350   C352    1.392   .     A
C351   C353    1.394   .     A
C351   H363    1.080   .     S
C352   H364    1.080   .     S
C352   C354    1.394   .     A
C353   C355    1.416   .     A
C353   C359    1.411   .     A
C354   C356    1.416   .     A
C354   C360    1.411   .     A
C355   C357    1.423   .     A
C355   C950    1.407   .     S
C356   C358    1.423   .     A
C356   C949    1.407   1_554 S
C359   I383    2.155   .     S
C359   C927    1.408   .     S
C360   I384    2.155   .     S
C360   C928    1.408   1_554 S
Cu361  Cu362   2.677   .     S
Cu361  O377    1.969   .     S
Cu361  O373    1.957   .     S
Cu361  O375    1.969   .     S
Cu361  O371    1.956   .     S
Cu361  N369    2.011   .     S
Cu362  O376    1.969   .     S
Cu362  O374    1.957   .     S
Cu362  O378    1.969   .     S
Cu362  N370    2.011   .     S
Cu362  O372    1.956   .     S
O379   H380    0.991   .     S
O381   H382    0.991   .     S
O385   H386    0.989   .     S
O387   H388    0.989   .     S
O389   H390    0.989   .     S
O391   H392    0.989   .     S
O393   H394    0.989   .     S
O395   H396    0.989   .     S
C397   O440    1.287   .     A
C397   O437    1.287   .     A
C397   C406    1.444   .     S
C398   O439    1.287   .     A
C398   O438    1.288   .     A
C398   C405    1.443   .     S
C399   C424    1.417   .     A
C399   O451    1.381   .     S
C399   C1019   1.408   1_554 S
C400   O453    1.381   .     S
C400   C423    1.417   .     A
C400   C1020   1.408   .     S
C401   O455    1.385   .     S
C401   C406    1.415   .     A
C401   C535    1.388   1_455 S
C402   C405    1.403   .     A
C402   O457    1.386   .     S
C402   C470    1.402   .     S
C403   O459    1.385   .     S
C403   C405    1.412   .     A
C403   C467    1.388   .     S
C404   O461    1.385   .     S
C404   C406    1.416   .     A
C404   C534    1.402   1_455 S
C407   N436    1.367   .     A
C407   H431    1.082   .     S
C408   N435    1.367   .     A
C408   H432    1.082   .     S
C408   C13     1.416   1_565 S
C409   H433    1.081   .     S
C409   N436    1.367   .     A
C410   H434    1.081   .     S
C410   N435    1.367   .     A
C410   C11     1.416   1_565 S
C411   O444    1.293   .     A
C411   O441    1.293   .     A
C411   C416    1.463   .     S
C412   C415    1.463   .     S
C412   O443    1.293   .     A
C412   O442    1.293   .     A
C413   C415    1.410   .     A
C413   O445    1.382   .     S
C413   C423    1.413   .     A
C414   O447    1.382   .     S
C414   C416    1.410   .     A
C414   C424    1.413   .     A
C415   C417    1.392   .     A
C416   C418    1.392   .     A
C417   C419    1.394   .     A
C417   H429    1.080   .     S
C418   H430    1.080   .     S
C418   C420    1.394   .     A
C419   C421    1.416   .     A
C419   C425    1.411   .     A
C420   C422    1.416   .     A
C420   C426    1.411   .     A
C421   C423    1.423   .     A
C421   C1016   1.407   .     S
C422   C424    1.423   .     A
C422   C1015   1.407   1_554 S
C425   I449    2.155   .     S
C425   C993    1.408   .     S
C426   I450    2.155   .     S
C426   C994    1.408   1_554 S
Cu427  Cu428   2.677   .     S
Cu427  O443    1.969   .     S
Cu427  O439    1.957   .     S
Cu427  O441    1.969   .     S
Cu427  O437    1.956   .     S
Cu427  N435    2.011   .     S
Cu428  O442    1.969   .     S
Cu428  O440    1.957   .     S
Cu428  O444    1.969   .     S
Cu428  N436    2.011   .     S
Cu428  O438    1.956   .     S
O445   H446    0.991   .     S
O447   H448    0.991   .     S
O451   H452    0.989   .     S
O453   H454    0.989   .     S
O455   H456    0.989   .     S
O457   H458    0.989   .     S
O459   H460    0.989   .     S
O461   H462    0.989   .     S
C463   O506    1.287   .     A
C463   O503    1.287   .     A
C463   C472    1.444   .     S
C464   O505    1.287   .     A
C464   O504    1.288   .     A
C464   C471    1.443   .     S
C465   C490    1.417   .     A
C465   O517    1.381   .     S
C465   C1085   1.408   1_554 S
C466   O519    1.381   .     S
C466   C489    1.417   .     A
C466   C1086   1.408   .     S
C467   O521    1.385   .     S
C467   C472    1.415   .     A
C468   C471    1.403   .     A
C468   O523    1.386   .     S
C468   C536    1.402   .     S
C469   O525    1.385   .     S
C469   C471    1.412   .     A
C469   C533    1.388   .     S
C470   O527    1.385   .     S
C470   C472    1.416   .     A
C473   N502    1.367   .     A
C473   H497    1.082   .     S
C474   N501    1.367   .     A
C474   H498    1.082   .     S
C474   C79     1.416   1_565 S
C475   H499    1.081   .     S
C475   N502    1.367   .     A
C476   H500    1.081   .     S
C476   N501    1.367   .     A
C476   C77     1.416   1_565 S
C477   O510    1.293   .     A
C477   O507    1.293   .     A
C477   C482    1.463   .     S
C478   C481    1.463   .     S
C478   O509    1.293   .     A
C478   O508    1.293   .     A
C479   C481    1.410   .     A
C479   O511    1.382   .     S
C479   C489    1.413   .     A
C480   O513    1.382   .     S
C480   C482    1.410   .     A
C480   C490    1.413   .     A
C481   C483    1.392   .     A
C482   C484    1.392   .     A
C483   C485    1.394   .     A
C483   H495    1.080   .     S
C484   H496    1.080   .     S
C484   C486    1.394   .     A
C485   C487    1.416   .     A
C485   C491    1.411   .     A
C486   C488    1.416   .     A
C486   C492    1.411   .     A
C487   C489    1.423   .     A
C487   C1082   1.407   .     S
C488   C490    1.423   .     A
C488   C1081   1.407   1_554 S
C491   I515    2.155   .     S
C491   C1059   1.408   .     S
C492   I516    2.155   .     S
C492   C1060   1.408   1_554 S
Cu493  Cu494   2.677   .     S
Cu493  O509    1.969   .     S
Cu493  O505    1.957   .     S
Cu493  O507    1.969   .     S
Cu493  O503    1.956   .     S
Cu493  N501    2.011   .     S
Cu494  O508    1.969   .     S
Cu494  O506    1.957   .     S
Cu494  O510    1.969   .     S
Cu494  N502    2.011   .     S
Cu494  O504    1.956   .     S
O511   H512    0.991   .     S
O513   H514    0.991   .     S
O517   H518    0.989   .     S
O519   H520    0.989   .     S
O521   H522    0.989   .     S
O523   H524    0.989   .     S
O525   H526    0.989   .     S
O527   H528    0.989   .     S
C529   O572    1.287   .     A
C529   O569    1.287   .     A
C529   C538    1.444   .     S
C530   O571    1.287   .     A
C530   O570    1.288   .     A
C530   C537    1.443   .     S
C531   C556    1.417   .     A
C531   O583    1.381   .     S
C531   C1151   1.408   1_554 S
C532   O585    1.381   .     S
C532   C555    1.417   .     A
C532   C1152   1.408   .     S
C533   O587    1.385   .     S
C533   C538    1.415   .     A
C534   C537    1.403   .     A
C534   O589    1.386   .     S
C534   C404    1.402   1_655 S
C535   O591    1.385   .     S
C535   C537    1.412   .     A
C535   C401    1.388   1_655 S
C536   O593    1.385   .     S
C536   C538    1.416   .     A
C539   N568    1.367   .     A
C539   H563    1.082   .     S
C540   N567    1.367   .     A
C540   H564    1.082   .     S
C540   C145    1.416   1_565 S
C541   H565    1.081   .     S
C541   N568    1.367   .     A
C542   H566    1.081   .     S
C542   N567    1.367   .     A
C542   C143    1.416   1_565 S
C543   O576    1.293   .     A
C543   O573    1.293   .     A
C543   C548    1.463   .     S
C544   C547    1.463   .     S
C544   O575    1.293   .     A
C544   O574    1.293   .     A
C545   C547    1.410   .     A
C545   O577    1.382   .     S
C545   C555    1.413   .     A
C546   O579    1.382   .     S
C546   C548    1.410   .     A
C546   C556    1.413   .     A
C547   C549    1.392   .     A
C548   C550    1.392   .     A
C549   C551    1.394   .     A
C549   H561    1.080   .     S
C550   H562    1.080   .     S
C550   C552    1.394   .     A
C551   C553    1.416   .     A
C551   C557    1.411   .     A
C552   C554    1.416   .     A
C552   C558    1.411   .     A
C553   C555    1.423   .     A
C553   C1148   1.407   .     S
C554   C556    1.423   .     A
C554   C1147   1.407   1_554 S
C557   I581    2.155   .     S
C557   C1125   1.408   .     S
C558   I582    2.155   .     S
C558   C1126   1.408   1_554 S
Cu559  Cu560   2.677   .     S
Cu559  O575    1.969   .     S
Cu559  O571    1.957   .     S
Cu559  O573    1.969   .     S
Cu559  O569    1.956   .     S
Cu559  N567    2.011   .     S
Cu560  O574    1.969   .     S
Cu560  O572    1.957   .     S
Cu560  O576    1.969   .     S
Cu560  N568    2.011   .     S
Cu560  O570    1.956   .     S
O577   H578    0.991   .     S
O579   H580    0.991   .     S
O583   H584    0.989   .     S
O585   H586    0.989   .     S
O587   H588    0.989   .     S
O589   H590    0.989   .     S
O591   H592    0.989   .     S
O593   H594    0.989   .     S
C595   O638    1.287   .     A
C595   O635    1.287   .     A
C595   C604    1.444   .     S
C596   O637    1.287   .     A
C596   O636    1.288   .     A
C596   C603    1.443   .     S
C597   C622    1.417   .     A
C597   O649    1.381   .     S
C598   O651    1.381   .     S
C598   C621    1.417   .     A
C598   C30     1.408   1_556 S
C599   O653    1.385   .     S
C599   C604    1.415   .     A
C599   C733    1.388   1_455 S
C600   C603    1.403   .     A
C600   O655    1.386   .     S
C600   C668    1.402   .     S
C601   O657    1.385   .     S
C601   C603    1.412   .     A
C601   C665    1.388   .     S
C602   O659    1.385   .     S
C602   C604    1.416   .     A
C602   C732    1.402   1_455 S
C605   N634    1.367   .     A
C605   H629    1.082   .     S
C605   C1004   1.416   1_545 S
C606   N633    1.367   .     A
C606   H630    1.082   .     S
C606   C805    1.416   .     S
C607   H631    1.081   .     S
C607   N634    1.367   .     A
C607   C1002   1.416   1_545 S
C608   H632    1.081   .     S
C608   N633    1.367   .     A
C608   C803    1.416   .     S
C609   O642    1.293   .     A
C609   O639    1.293   .     A
C609   C614    1.463   .     S
C610   C613    1.463   .     S
C610   O641    1.293   .     A
C610   O640    1.293   .     A
C611   C613    1.410   .     A
C611   O643    1.382   .     S
C611   C621    1.413   .     A
C612   O645    1.382   .     S
C612   C614    1.410   .     A
C612   C622    1.413   .     A
C613   C615    1.392   .     A
C614   C616    1.392   .     A
C615   C617    1.394   .     A
C615   H627    1.080   .     S
C616   H628    1.080   .     S
C616   C618    1.394   .     A
C617   C619    1.416   .     A
C617   C623    1.411   .     A
C618   C620    1.416   .     A
C618   C624    1.411   .     A
C619   C621    1.423   .     A
C619   C26     1.407   1_556 S
C620   C622    1.423   .     A
C623   I647    2.155   .     S
C623   C3      1.408   1_556 S
C624   I648    2.155   .     S
Cu625  Cu626   2.677   .     S
Cu625  O641    1.969   .     S
Cu625  O637    1.957   .     S
Cu625  O639    1.969   .     S
Cu625  O635    1.956   .     S
Cu625  N633    2.011   .     S
Cu626  O640    1.969   .     S
Cu626  O638    1.957   .     S
Cu626  O642    1.969   .     S
Cu626  N634    2.011   .     S
Cu626  O636    1.956   .     S
O643   H644    0.991   .     S
O645   H646    0.991   .     S
O649   H650    0.989   .     S
O651   H652    0.989   .     S
O653   H654    0.989   .     S
O655   H656    0.989   .     S
O657   H658    0.989   .     S
O659   H660    0.989   .     S
C661   O704    1.287   .     A
C661   O701    1.287   .     A
C661   C670    1.444   .     S
C662   O703    1.287   .     A
C662   O702    1.288   .     A
C662   C669    1.443   .     S
C663   C688    1.417   .     A
C663   O715    1.381   .     S
C664   O717    1.381   .     S
C664   C687    1.417   .     A
C664   C96     1.408   1_556 S
C665   O719    1.385   .     S
C665   C670    1.415   .     A
C666   C669    1.403   .     A
C666   O721    1.386   .     S
C666   C734    1.402   .     S
C667   O723    1.385   .     S
C667   C669    1.412   .     A
C667   C731    1.388   .     S
C668   O725    1.385   .     S
C668   C670    1.416   .     A
C671   N700    1.367   .     A
C671   H695    1.082   .     S
C671   C1070   1.416   1_545 S
C672   N699    1.367   .     A
C672   H696    1.082   .     S
C672   C871    1.416   .     S
C673   H697    1.081   .     S
C673   N700    1.367   .     A
C673   C1068   1.416   1_545 S
C674   H698    1.081   .     S
C674   N699    1.367   .     A
C674   C869    1.416   .     S
C675   O708    1.293   .     A
C675   O705    1.293   .     A
C675   C680    1.463   .     S
C676   C679    1.463   .     S
C676   O707    1.293   .     A
C676   O706    1.293   .     A
C677   C679    1.410   .     A
C677   O709    1.382   .     S
C677   C687    1.413   .     A
C678   O711    1.382   .     S
C678   C680    1.410   .     A
C678   C688    1.413   .     A
C679   C681    1.392   .     A
C680   C682    1.392   .     A
C681   C683    1.394   .     A
C681   H693    1.080   .     S
C682   H694    1.080   .     S
C682   C684    1.394   .     A
C683   C685    1.416   .     A
C683   C689    1.411   .     A
C684   C686    1.416   .     A
C684   C690    1.411   .     A
C685   C687    1.423   .     A
C685   C92     1.407   1_556 S
C686   C688    1.423   .     A
C689   I713    2.155   .     S
C689   C69     1.408   1_556 S
C690   I714    2.155   .     S
Cu691  Cu692   2.677   .     S
Cu691  O707    1.969   .     S
Cu691  O703    1.957   .     S
Cu691  O705    1.969   .     S
Cu691  O701    1.956   .     S
Cu691  N699    2.011   .     S
Cu692  O706    1.969   .     S
Cu692  O704    1.957   .     S
Cu692  O708    1.969   .     S
Cu692  N700    2.011   .     S
Cu692  O702    1.956   .     S
O709   H710    0.991   .     S
O711   H712    0.991   .     S
O715   H716    0.989   .     S
O717   H718    0.989   .     S
O719   H720    0.989   .     S
O721   H722    0.989   .     S
O723   H724    0.989   .     S
O725   H726    0.989   .     S
C727   O770    1.287   .     A
C727   O767    1.287   .     A
C727   C736    1.444   .     S
C728   O769    1.287   .     A
C728   O768    1.288   .     A
C728   C735    1.443   .     S
C729   C754    1.417   .     A
C729   O781    1.381   .     S
C730   O783    1.381   .     S
C730   C753    1.417   .     A
C730   C162    1.408   1_556 S
C731   O785    1.385   .     S
C731   C736    1.415   .     A
C732   C735    1.403   .     A
C732   O787    1.386   .     S
C732   C602    1.402   1_655 S
C733   O789    1.385   .     S
C733   C735    1.412   .     A
C733   C599    1.388   1_655 S
C734   O791    1.385   .     S
C734   C736    1.416   .     A
C737   N766    1.367   .     A
C737   H761    1.082   .     S
C737   C1136   1.416   1_545 S
C738   N765    1.367   .     A
C738   H762    1.082   .     S
C738   C937    1.416   .     S
C739   H763    1.081   .     S
C739   N766    1.367   .     A
C739   C1134   1.416   1_545 S
C740   H764    1.081   .     S
C740   N765    1.367   .     A
C740   C935    1.416   .     S
C741   O774    1.293   .     A
C741   O771    1.293   .     A
C741   C746    1.463   .     S
C742   C745    1.463   .     S
C742   O773    1.293   .     A
C742   O772    1.293   .     A
C743   C745    1.410   .     A
C743   O775    1.382   .     S
C743   C753    1.413   .     A
C744   O777    1.382   .     S
C744   C746    1.410   .     A
C744   C754    1.413   .     A
C745   C747    1.392   .     A
C746   C748    1.392   .     A
C747   C749    1.394   .     A
C747   H759    1.080   .     S
C748   H760    1.080   .     S
C748   C750    1.394   .     A
C749   C751    1.416   .     A
C749   C755    1.411   .     A
C750   C752    1.416   .     A
C750   C756    1.411   .     A
C751   C753    1.423   .     A
C751   C158    1.407   1_556 S
C752   C754    1.423   .     A
C755   I779    2.155   .     S
C755   C135    1.408   1_556 S
C756   I780    2.155   .     S
Cu757  Cu758   2.677   .     S
Cu757  O773    1.969   .     S
Cu757  O769    1.957   .     S
Cu757  O771    1.969   .     S
Cu757  O767    1.956   .     S
Cu757  N765    2.011   .     S
Cu758  O772    1.969   .     S
Cu758  O770    1.957   .     S
Cu758  O774    1.969   .     S
Cu758  N766    2.011   .     S
Cu758  O768    1.956   .     S
O775   H776    0.991   .     S
O777   H778    0.991   .     S
O781   H782    0.989   .     S
O783   H784    0.989   .     S
O785   H786    0.989   .     S
O787   H788    0.989   .     S
O789   H790    0.989   .     S
O791   H792    0.989   .     S
C793   O836    1.287   .     A
C793   O833    1.287   .     A
C793   C802    1.444   .     S
C794   O835    1.287   .     A
C794   O834    1.288   .     A
C794   C801    1.443   .     S
C795   C820    1.417   .     A
C795   O847    1.381   .     S
C796   O849    1.381   .     S
C796   C819    1.417   .     A
C796   C228    1.408   1_556 S
C797   O851    1.385   .     S
C797   C802    1.415   .     A
C797   C931    1.388   1_455 S
C798   C801    1.403   .     A
C798   O853    1.386   .     S
C798   C866    1.402   .     S
C799   O855    1.385   .     S
C799   C801    1.412   .     A
C799   C863    1.388   .     S
C800   O857    1.385   .     S
C800   C802    1.416   .     A
C800   C930    1.402   1_455 S
C803   N832    1.367   .     A
C803   H827    1.082   .     S
C804   N831    1.367   .     A
C804   H828    1.082   .     S
C804   C1003   1.416   .     S
C805   H829    1.081   .     S
C805   N832    1.367   .     A
C806   H830    1.081   .     S
C806   N831    1.367   .     A
C806   C1001   1.416   .     S
C807   O840    1.293   .     A
C807   O837    1.293   .     A
C807   C812    1.463   .     S
C808   C811    1.463   .     S
C808   O839    1.293   .     A
C808   O838    1.293   .     A
C809   C811    1.410   .     A
C809   O841    1.382   .     S
C809   C819    1.413   .     A
C810   O843    1.382   .     S
C810   C812    1.410   .     A
C810   C820    1.413   .     A
C811   C813    1.392   .     A
C812   C814    1.392   .     A
C813   C815    1.394   .     A
C813   H825    1.080   .     S
C814   H826    1.080   .     S
C814   C816    1.394   .     A
C815   C817    1.416   .     A
C815   C821    1.411   .     A
C816   C818    1.416   .     A
C816   C822    1.411   .     A
C817   C819    1.423   .     A
C817   C224    1.407   1_556 S
C818   C820    1.423   .     A
C821   I845    2.155   .     S
C821   C201    1.408   1_556 S
C822   I846    2.155   .     S
Cu823  Cu824   2.677   .     S
Cu823  O839    1.969   .     S
Cu823  O835    1.957   .     S
Cu823  O837    1.969   .     S
Cu823  O833    1.956   .     S
Cu823  N831    2.011   .     S
Cu824  O838    1.969   .     S
Cu824  O836    1.957   .     S
Cu824  O840    1.969   .     S
Cu824  N832    2.011   .     S
Cu824  O834    1.956   .     S
O841   H842    0.991   .     S
O843   H844    0.991   .     S
O847   H848    0.989   .     S
O849   H850    0.989   .     S
O851   H852    0.989   .     S
O853   H854    0.989   .     S
O855   H856    0.989   .     S
O857   H858    0.989   .     S
C859   O902    1.287   .     A
C859   O899    1.287   .     A
C859   C868    1.444   .     S
C860   O901    1.287   .     A
C860   O900    1.288   .     A
C860   C867    1.443   .     S
C861   C886    1.417   .     A
C861   O913    1.381   .     S
C862   O915    1.381   .     S
C862   C885    1.417   .     A
C862   C294    1.408   1_556 S
C863   O917    1.385   .     S
C863   C868    1.415   .     A
C864   C867    1.403   .     A
C864   O919    1.386   .     S
C864   C932    1.402   .     S
C865   O921    1.385   .     S
C865   C867    1.412   .     A
C865   C929    1.388   .     S
C866   O923    1.385   .     S
C866   C868    1.416   .     A
C869   N898    1.367   .     A
C869   H893    1.082   .     S
C870   N897    1.367   .     A
C870   H894    1.082   .     S
C870   C1069   1.416   .     S
C871   H895    1.081   .     S
C871   N898    1.367   .     A
C872   H896    1.081   .     S
C872   N897    1.367   .     A
C872   C1067   1.416   .     S
C873   O906    1.293   .     A
C873   O903    1.293   .     A
C873   C878    1.463   .     S
C874   C877    1.463   .     S
C874   O905    1.293   .     A
C874   O904    1.293   .     A
C875   C877    1.410   .     A
C875   O907    1.382   .     S
C875   C885    1.413   .     A
C876   O909    1.382   .     S
C876   C878    1.410   .     A
C876   C886    1.413   .     A
C877   C879    1.392   .     A
C878   C880    1.392   .     A
C879   C881    1.394   .     A
C879   H891    1.080   .     S
C880   H892    1.080   .     S
C880   C882    1.394   .     A
C881   C883    1.416   .     A
C881   C887    1.411   .     A
C882   C884    1.416   .     A
C882   C888    1.411   .     A
C883   C885    1.423   .     A
C883   C290    1.407   1_556 S
C884   C886    1.423   .     A
C887   I911    2.155   .     S
C887   C267    1.408   1_556 S
C888   I912    2.155   .     S
Cu889  Cu890   2.677   .     S
Cu889  O905    1.969   .     S
Cu889  O901    1.957   .     S
Cu889  O903    1.969   .     S
Cu889  O899    1.956   .     S
Cu889  N897    2.011   .     S
Cu890  O904    1.969   .     S
Cu890  O902    1.957   .     S
Cu890  O906    1.969   .     S
Cu890  N898    2.011   .     S
Cu890  O900    1.956   .     S
O907   H908    0.991   .     S
O909   H910    0.991   .     S
O913   H914    0.989   .     S
O915   H916    0.989   .     S
O917   H918    0.989   .     S
O919   H920    0.989   .     S
O921   H922    0.989   .     S
O923   H924    0.989   .     S
C925   O968    1.287   .     A
C925   O965    1.287   .     A
C925   C934    1.444   .     S
C926   O967    1.287   .     A
C926   O966    1.288   .     A
C926   C933    1.443   .     S
C927   C952    1.417   .     A
C927   O979    1.381   .     S
C928   O981    1.381   .     S
C928   C951    1.417   .     A
C928   C360    1.408   1_556 S
C929   O983    1.385   .     S
C929   C934    1.415   .     A
C930   C933    1.403   .     A
C930   O985    1.386   .     S
C930   C800    1.402   1_655 S
C931   O987    1.385   .     S
C931   C933    1.412   .     A
C931   C797    1.388   1_655 S
C932   O989    1.385   .     S
C932   C934    1.416   .     A
C935   N964    1.367   .     A
C935   H959    1.082   .     S
C936   N963    1.367   .     A
C936   H960    1.082   .     S
C936   C1135   1.416   .     S
C937   H961    1.081   .     S
C937   N964    1.367   .     A
C938   H962    1.081   .     S
C938   N963    1.367   .     A
C938   C1133   1.416   .     S
C939   O972    1.293   .     A
C939   O969    1.293   .     A
C939   C944    1.463   .     S
C940   C943    1.463   .     S
C940   O971    1.293   .     A
C940   O970    1.293   .     A
C941   C943    1.410   .     A
C941   O973    1.382   .     S
C941   C951    1.413   .     A
C942   O975    1.382   .     S
C942   C944    1.410   .     A
C942   C952    1.413   .     A
C943   C945    1.392   .     A
C944   C946    1.392   .     A
C945   C947    1.394   .     A
C945   H957    1.080   .     S
C946   H958    1.080   .     S
C946   C948    1.394   .     A
C947   C949    1.416   .     A
C947   C953    1.411   .     A
C948   C950    1.416   .     A
C948   C954    1.411   .     A
C949   C951    1.423   .     A
C949   C356    1.407   1_556 S
C950   C952    1.423   .     A
C953   I977    2.155   .     S
C953   C333    1.408   1_556 S
C954   I978    2.155   .     S
Cu955  Cu956   2.677   .     S
Cu955  O971    1.969   .     S
Cu955  O967    1.957   .     S
Cu955  O969    1.969   .     S
Cu955  O965    1.956   .     S
Cu955  N963    2.011   .     S
Cu956  O970    1.969   .     S
Cu956  O968    1.957   .     S
Cu956  O972    1.969   .     S
Cu956  N964    2.011   .     S
Cu956  O966    1.956   .     S
O973   H974    0.991   .     S
O975   H976    0.991   .     S
O979   H980    0.989   .     S
O981   H982    0.989   .     S
O983   H984    0.989   .     S
O985   H986    0.989   .     S
O987   H988    0.989   .     S
O989   H990    0.989   .     S
C991   O1034   1.287   .     A
C991   O1031   1.287   .     A
C991   C1000   1.444   .     S
C992   O1033   1.287   .     A
C992   O1032   1.288   .     A
C992   C999    1.443   .     S
C993   C1018   1.417   .     A
C993   O1045   1.381   .     S
C994   O1047   1.381   .     S
C994   C1017   1.417   .     A
C994   C426    1.408   1_556 S
C995   O1049   1.385   .     S
C995   C1000   1.415   .     A
C995   C1129   1.388   1_455 S
C996   C999    1.403   .     A
C996   O1051   1.386   .     S
C996   C1064   1.402   .     S
C997   O1053   1.385   .     S
C997   C999    1.412   .     A
C997   C1061   1.388   .     S
C998   O1055   1.385   .     S
C998   C1000   1.416   .     A
C998   C1128   1.402   1_455 S
C1001  N1030   1.367   .     A
C1001  H1025   1.082   .     S
C1002  N1029   1.367   .     A
C1002  H1026   1.082   .     S
C1002  C607    1.416   1_565 S
C1003  H1027   1.081   .     S
C1003  N1030   1.367   .     A
C1004  H1028   1.081   .     S
C1004  N1029   1.367   .     A
C1004  C605    1.416   1_565 S
C1005  O1038   1.293   .     A
C1005  O1035   1.293   .     A
C1005  C1010   1.463   .     S
C1006  C1009   1.463   .     S
C1006  O1037   1.293   .     A
C1006  O1036   1.293   .     A
C1007  C1009   1.410   .     A
C1007  O1039   1.382   .     S
C1007  C1017   1.413   .     A
C1008  O1041   1.382   .     S
C1008  C1010   1.410   .     A
C1008  C1018   1.413   .     A
C1009  C1011   1.392   .     A
C1010  C1012   1.392   .     A
C1011  C1013   1.394   .     A
C1011  H1023   1.080   .     S
C1012  H1024   1.080   .     S
C1012  C1014   1.394   .     A
C1013  C1015   1.416   .     A
C1013  C1019   1.411   .     A
C1014  C1016   1.416   .     A
C1014  C1020   1.411   .     A
C1015  C1017   1.423   .     A
C1015  C422    1.407   1_556 S
C1016  C1018   1.423   .     A
C1019  I1043   2.155   .     S
C1019  C399    1.408   1_556 S
C1020  I1044   2.155   .     S
Cu1021 Cu1022  2.677   .     S
Cu1021 O1037   1.969   .     S
Cu1021 O1033   1.957   .     S
Cu1021 O1035   1.969   .     S
Cu1021 O1031   1.956   .     S
Cu1021 N1029   2.011   .     S
Cu1022 O1036   1.969   .     S
Cu1022 O1034   1.957   .     S
Cu1022 O1038   1.969   .     S
Cu1022 N1030   2.011   .     S
Cu1022 O1032   1.956   .     S
O1039  H1040   0.991   .     S
O1041  H1042   0.991   .     S
O1045  H1046   0.989   .     S
O1047  H1048   0.989   .     S
O1049  H1050   0.989   .     S
O1051  H1052   0.989   .     S
O1053  H1054   0.989   .     S
O1055  H1056   0.989   .     S
C1057  O1100   1.287   .     A
C1057  O1097   1.287   .     A
C1057  C1066   1.444   .     S
C1058  O1099   1.287   .     A
C1058  O1098   1.288   .     A
C1058  C1065   1.443   .     S
C1059  C1084   1.417   .     A
C1059  O1111   1.381   .     S
C1060  O1113   1.381   .     S
C1060  C1083   1.417   .     A
C1060  C492    1.408   1_556 S
C1061  O1115   1.385   .     S
C1061  C1066   1.415   .     A
C1062  C1065   1.403   .     A
C1062  O1117   1.386   .     S
C1062  C1130   1.402   .     S
C1063  O1119   1.385   .     S
C1063  C1065   1.412   .     A
C1063  C1127   1.388   .     S
C1064  O1121   1.385   .     S
C1064  C1066   1.416   .     A
C1067  N1096   1.367   .     A
C1067  H1091   1.082   .     S
C1068  N1095   1.367   .     A
C1068  H1092   1.082   .     S
C1068  C673    1.416   1_565 S
C1069  H1093   1.081   .     S
C1069  N1096   1.367   .     A
C1070  H1094   1.081   .     S
C1070  N1095   1.367   .     A
C1070  C671    1.416   1_565 S
C1071  O1104   1.293   .     A
C1071  O1101   1.293   .     A
C1071  C1076   1.463   .     S
C1072  C1075   1.463   .     S
C1072  O1103   1.293   .     A
C1072  O1102   1.293   .     A
C1073  C1075   1.410   .     A
C1073  O1105   1.382   .     S
C1073  C1083   1.413   .     A
C1074  O1107   1.382   .     S
C1074  C1076   1.410   .     A
C1074  C1084   1.413   .     A
C1075  C1077   1.392   .     A
C1076  C1078   1.392   .     A
C1077  C1079   1.394   .     A
C1077  H1089   1.080   .     S
C1078  H1090   1.080   .     S
C1078  C1080   1.394   .     A
C1079  C1081   1.416   .     A
C1079  C1085   1.411   .     A
C1080  C1082   1.416   .     A
C1080  C1086   1.411   .     A
C1081  C1083   1.423   .     A
C1081  C488    1.407   1_556 S
C1082  C1084   1.423   .     A
C1085  I1109   2.155   .     S
C1085  C465    1.408   1_556 S
C1086  I1110   2.155   .     S
Cu1087 Cu1088  2.677   .     S
Cu1087 O1103   1.969   .     S
Cu1087 O1099   1.957   .     S
Cu1087 O1101   1.969   .     S
Cu1087 O1097   1.956   .     S
Cu1087 N1095   2.011   .     S
Cu1088 O1102   1.969   .     S
Cu1088 O1100   1.957   .     S
Cu1088 O1104   1.969   .     S
Cu1088 N1096   2.011   .     S
Cu1088 O1098   1.956   .     S
O1105  H1106   0.991   .     S
O1107  H1108   0.991   .     S
O1111  H1112   0.989   .     S
O1113  H1114   0.989   .     S
O1115  H1116   0.989   .     S
O1117  H1118   0.989   .     S
O1119  H1120   0.989   .     S
O1121  H1122   0.989   .     S
C1123  O1166   1.287   .     A
C1123  O1163   1.287   .     A
C1123  C1132   1.444   .     S
C1124  O1165   1.287   .     A
C1124  O1164   1.288   .     A
C1124  C1131   1.443   .     S
C1125  C1150   1.417   .     A
C1125  O1177   1.381   .     S
C1126  O1179   1.381   .     S
C1126  C1149   1.417   .     A
C1126  C558    1.408   1_556 S
C1127  O1181   1.385   .     S
C1127  C1132   1.415   .     A
C1128  C1131   1.403   .     A
C1128  O1183   1.386   .     S
C1128  C998    1.402   1_655 S
C1129  O1185   1.385   .     S
C1129  C1131   1.412   .     A
C1129  C995    1.388   1_655 S
C1130  O1187   1.385   .     S
C1130  C1132   1.416   .     A
C1133  N1162   1.367   .     A
C1133  H1157   1.082   .     S
C1134  N1161   1.367   .     A
C1134  H1158   1.082   .     S
C1134  C739    1.416   1_565 S
C1135  H1159   1.081   .     S
C1135  N1162   1.367   .     A
C1136  H1160   1.081   .     S
C1136  N1161   1.367   .     A
C1136  C737    1.416   1_565 S
C1137  O1170   1.293   .     A
C1137  O1167   1.293   .     A
C1137  C1142   1.463   .     S
C1138  C1141   1.463   .     S
C1138  O1169   1.293   .     A
C1138  O1168   1.293   .     A
C1139  C1141   1.410   .     A
C1139  O1171   1.382   .     S
C1139  C1149   1.413   .     A
C1140  O1173   1.382   .     S
C1140  C1142   1.410   .     A
C1140  C1150   1.413   .     A
C1141  C1143   1.392   .     A
C1142  C1144   1.392   .     A
C1143  C1145   1.394   .     A
C1143  H1155   1.080   .     S
C1144  H1156   1.080   .     S
C1144  C1146   1.394   .     A
C1145  C1147   1.416   .     A
C1145  C1151   1.411   .     A
C1146  C1148   1.416   .     A
C1146  C1152   1.411   .     A
C1147  C1149   1.423   .     A
C1147  C554    1.407   1_556 S
C1148  C1150   1.423   .     A
C1151  I1175   2.155   .     S
C1151  C531    1.408   1_556 S
C1152  I1176   2.155   .     S
Cu1153 Cu1154  2.677   .     S
Cu1153 O1169   1.969   .     S
Cu1153 O1165   1.957   .     S
Cu1153 O1167   1.969   .     S
Cu1153 O1163   1.956   .     S
Cu1153 N1161   2.011   .     S
Cu1154 O1168   1.969   .     S
Cu1154 O1166   1.957   .     S
Cu1154 O1170   1.969   .     S
Cu1154 N1162   2.011   .     S
Cu1154 O1164   1.956   .     S
O1171  H1172   0.991   .     S
O1173  H1174   0.991   .     S
O1177  H1178   0.989   .     S
O1179  H1180   0.989   .     S
O1181  H1182   0.989   .     S
O1183  H1184   0.989   .     S
O1185  H1186   0.989   .     S
O1187  H1188   0.989   .     S
