data_str_m2_o10_o17_pcu_sym.14
_audit_creation_date              2020-01-03
_audit_creation_method            'Materials Studio'
_symmetry_space_group_name_H-M    'P1'
_symmetry_Int_Tables_number       1
_symmetry_cell_setting            triclinic
loop_
_symmetry_equiv_pos_as_xyz
  x,y,z
_cell_length_a                    29.9727
_cell_length_b                    26.4507
_cell_length_c                    22.6038
_cell_angle_alpha                 102.1152
_cell_angle_beta                  94.6398
_cell_angle_gamma                 94.3647
loop_
_atom_site_label
_atom_site_type_symbol
_atom_site_fract_x
_atom_site_fract_y
_atom_site_fract_z
_atom_site_U_iso_or_equiv
_atom_site_adp_type
_atom_site_occupancy
Br1    Br    0.39083   0.26428   0.25273   0.00000  Uiso   1.00
Br2    Br    0.11921   0.06641   0.08204   0.00000  Uiso   1.00
Br3    Br    0.36264   0.06040   0.10294   0.00000  Uiso   1.00
Br4    Br    0.12880   0.25004   0.26693   0.00000  Uiso   1.00
Br5    Br    0.19185   0.10301   0.30135   0.00000  Uiso   1.00
Br6    Br    0.30852   0.22999   0.03176   0.00000  Uiso   1.00
C7     C     0.24853   0.06699   0.15172   0.00000  Uiso   1.00
C8     C     0.08785   0.12207   0.12413   0.00000  Uiso   1.00
C9     C     0.38388   0.16798   0.16338   0.00000  Uiso   1.00
C10    C     0.11495   0.16313   0.16486   0.00000  Uiso   1.00
C11    C     0.40054   0.12553   0.12664   0.00000  Uiso   1.00
C12    C     0.09585   0.20642   0.19571   0.00000  Uiso   1.00
C13    C     0.44628   0.12810   0.11689   0.00000  Uiso   1.00
C14    C     0.05068   0.21253   0.18095   0.00000  Uiso   1.00
C15    C     0.47553   0.17067   0.14841   0.00000  Uiso   1.00
C16    C     0.02233   0.16886   0.14809   0.00000  Uiso   1.00
C17    C     0.45791   0.21575   0.17888   0.00000  Uiso   1.00
C18    C     0.25201   0.26642   0.18168   0.00000  Uiso   1.00
C19    C     0.04023   0.12323   0.11700   0.00000  Uiso   1.00
C20    C     0.46321   0.09113   0.07333   0.00000  Uiso   1.00
C21    C     0.03282   0.26135   0.19454   0.00000  Uiso   1.00
C22    C     0.00915   0.08387   0.07772   0.00000  Uiso   1.00
C23    C     0.48581   0.26271   0.19101   0.00000  Uiso   1.00
C24    C     0.24318   0.01157   0.14441   0.00000  Uiso   1.00
C25    C     0.25826   0.32191   0.18917   0.00000  Uiso   1.00
C26    C     0.16424   0.16519   0.16671   0.00000  Uiso   1.00
C27    C     0.33549   0.16745   0.16620   0.00000  Uiso   1.00
C28    C     0.41237   0.21293   0.19044   0.00000  Uiso   1.00
Cu29   Cu    0.25501   0.17246   0.22813   0.00000  Uiso   1.00
Cu30   Cu    0.24500   0.16087   0.10521   0.00000  Uiso   1.00
I31    I     0.42617   0.07231   0.31930   0.00000  Uiso   1.00
I32    I     0.07475   0.33254   0.20112   0.00000  Uiso   1.00
I33    I     0.02116   0.00868   0.02694   0.00000  Uiso   1.00
I34    I     0.45739   0.33046   0.17383   0.00000  Uiso   1.00
I35    I     0.20453   0.30663   0.06109   0.00000  Uiso   1.00
I36    I     0.29793   0.02689   0.27229   0.00000  Uiso   1.00
N37    N     0.23745   0.15214   0.01284   0.00000  Uiso   1.00
N38    N     0.26256   0.18119   0.32049   0.00000  Uiso   1.00
O39    O     0.25326   0.09538   0.20659   0.00000  Uiso   1.00
O40    O     0.24675   0.23796   0.12674   0.00000  Uiso   1.00
O41    O     0.24480   0.08559   0.10279   0.00000  Uiso   1.00
O42    O     0.25520   0.24774   0.23055   0.00000  Uiso   1.00
O43    O     0.18936   0.17155   0.21857   0.00000  Uiso   1.00
O44    O     0.31065   0.16179   0.11476   0.00000  Uiso   1.00
O45    O     0.18090   0.16176   0.11477   0.00000  Uiso   1.00
O46    O     0.31910   0.17157   0.21857   0.00000  Uiso   1.00
Br47   Br    0.89083   0.26428   0.25273   0.00000  Uiso   1.00
Br48   Br    0.61921   0.06641   0.08204   0.00000  Uiso   1.00
Br49   Br    0.86264   0.06040   0.10294   0.00000  Uiso   1.00
Br50   Br    0.62880   0.25004   0.26693   0.00000  Uiso   1.00
Br51   Br    0.69185   0.10301   0.30135   0.00000  Uiso   1.00
Br52   Br    0.80852   0.22999   0.03176   0.00000  Uiso   1.00
C53    C     0.74853   0.06699   0.15172   0.00000  Uiso   1.00
C54    C     0.58785   0.12207   0.12413   0.00000  Uiso   1.00
C55    C     0.88388   0.16798   0.16338   0.00000  Uiso   1.00
C56    C     0.61495   0.16313   0.16486   0.00000  Uiso   1.00
C57    C     0.90054   0.12553   0.12664   0.00000  Uiso   1.00
C58    C     0.59585   0.20642   0.19571   0.00000  Uiso   1.00
C59    C     0.94628   0.12810   0.11689   0.00000  Uiso   1.00
C60    C     0.55068   0.21253   0.18095   0.00000  Uiso   1.00
C61    C     0.97553   0.17067   0.14841   0.00000  Uiso   1.00
C62    C     0.52233   0.16886   0.14809   0.00000  Uiso   1.00
C63    C     0.95791   0.21575   0.17888   0.00000  Uiso   1.00
C64    C     0.75201   0.26642   0.18168   0.00000  Uiso   1.00
C65    C     0.54023   0.12323   0.11700   0.00000  Uiso   1.00
C66    C     0.96321   0.09113   0.07333   0.00000  Uiso   1.00
C67    C     0.53282   0.26135   0.19454   0.00000  Uiso   1.00
C68    C     0.50915   0.08387   0.07772   0.00000  Uiso   1.00
C69    C     0.98581   0.26271   0.19101   0.00000  Uiso   1.00
C70    C     0.74318   0.01157   0.14441   0.00000  Uiso   1.00
C71    C     0.75826   0.32191   0.18917   0.00000  Uiso   1.00
C72    C     0.66424   0.16519   0.16671   0.00000  Uiso   1.00
C73    C     0.83549   0.16745   0.16620   0.00000  Uiso   1.00
C74    C     0.91237   0.21293   0.19044   0.00000  Uiso   1.00
Cu75   Cu    0.75501   0.17246   0.22813   0.00000  Uiso   1.00
Cu76   Cu    0.74500   0.16087   0.10521   0.00000  Uiso   1.00
I77    I     0.92617   0.07231   0.31930   0.00000  Uiso   1.00
I78    I     0.57475   0.33254   0.20112   0.00000  Uiso   1.00
I79    I     0.52116   0.00868   0.02694   0.00000  Uiso   1.00
I80    I     0.95739   0.33046   0.17383   0.00000  Uiso   1.00
I81    I     0.70453   0.30663   0.06109   0.00000  Uiso   1.00
I82    I     0.79793   0.02689   0.27229   0.00000  Uiso   1.00
N83    N     0.73745   0.15214   0.01284   0.00000  Uiso   1.00
N84    N     0.76256   0.18119   0.32049   0.00000  Uiso   1.00
O85    O     0.75326   0.09538   0.20659   0.00000  Uiso   1.00
O86    O     0.74675   0.23796   0.12674   0.00000  Uiso   1.00
O87    O     0.74480   0.08559   0.10279   0.00000  Uiso   1.00
O88    O     0.75520   0.24774   0.23055   0.00000  Uiso   1.00
O89    O     0.68936   0.17155   0.21857   0.00000  Uiso   1.00
O90    O     0.81065   0.16179   0.11476   0.00000  Uiso   1.00
O91    O     0.68090   0.16176   0.11477   0.00000  Uiso   1.00
O92    O     0.81910   0.17157   0.21857   0.00000  Uiso   1.00
Br93   Br    0.39083   0.59761   0.25273   0.00000  Uiso   1.00
Br94   Br    0.11921   0.39974   0.08204   0.00000  Uiso   1.00
Br95   Br    0.36264   0.39373   0.10294   0.00000  Uiso   1.00
Br96   Br    0.12880   0.58337   0.26693   0.00000  Uiso   1.00
Br97   Br    0.19185   0.43634   0.30135   0.00000  Uiso   1.00
Br98   Br    0.30852   0.56332   0.03176   0.00000  Uiso   1.00
C99    C     0.24853   0.40032   0.15172   0.00000  Uiso   1.00
C100   C     0.08785   0.45540   0.12413   0.00000  Uiso   1.00
C101   C     0.38388   0.50131   0.16338   0.00000  Uiso   1.00
C102   C     0.11495   0.49647   0.16486   0.00000  Uiso   1.00
C103   C     0.40054   0.45886   0.12664   0.00000  Uiso   1.00
C104   C     0.09585   0.53975   0.19571   0.00000  Uiso   1.00
C105   C     0.44628   0.46144   0.11689   0.00000  Uiso   1.00
C106   C     0.05068   0.54586   0.18095   0.00000  Uiso   1.00
C107   C     0.47553   0.50400   0.14841   0.00000  Uiso   1.00
C108   C     0.02233   0.50219   0.14809   0.00000  Uiso   1.00
C109   C     0.45791   0.54908   0.17888   0.00000  Uiso   1.00
C110   C     0.25201   0.59975   0.18168   0.00000  Uiso   1.00
C111   C     0.04023   0.45656   0.11700   0.00000  Uiso   1.00
C112   C     0.46321   0.42447   0.07333   0.00000  Uiso   1.00
C113   C     0.03282   0.59469   0.19454   0.00000  Uiso   1.00
C114   C     0.00915   0.41721   0.07772   0.00000  Uiso   1.00
C115   C     0.48581   0.59604   0.19101   0.00000  Uiso   1.00
C116   C     0.24318   0.34491   0.14441   0.00000  Uiso   1.00
C117   C     0.25826   0.65525   0.18917   0.00000  Uiso   1.00
C118   C     0.16424   0.49852   0.16671   0.00000  Uiso   1.00
C119   C     0.33549   0.50078   0.16620   0.00000  Uiso   1.00
C120   C     0.41237   0.54626   0.19044   0.00000  Uiso   1.00
Cu121  Cu    0.25501   0.50579   0.22813   0.00000  Uiso   1.00
Cu122  Cu    0.24500   0.49421   0.10521   0.00000  Uiso   1.00
I123   I     0.42617   0.40564   0.31930   0.00000  Uiso   1.00
I124   I     0.07475   0.66587   0.20112   0.00000  Uiso   1.00
I125   I     0.02116   0.34201   0.02694   0.00000  Uiso   1.00
I126   I     0.45739   0.66379   0.17383   0.00000  Uiso   1.00
I127   I     0.20453   0.63996   0.06109   0.00000  Uiso   1.00
I128   I     0.29793   0.36022   0.27229   0.00000  Uiso   1.00
N129   N     0.23745   0.48547   0.01284   0.00000  Uiso   1.00
N130   N     0.26256   0.51453   0.32049   0.00000  Uiso   1.00
O131   O     0.25326   0.42871   0.20659   0.00000  Uiso   1.00
O132   O     0.24675   0.57129   0.12674   0.00000  Uiso   1.00
O133   O     0.24480   0.41892   0.10279   0.00000  Uiso   1.00
O134   O     0.25520   0.58108   0.23055   0.00000  Uiso   1.00
O135   O     0.18936   0.50488   0.21857   0.00000  Uiso   1.00
O136   O     0.31065   0.49512   0.11476   0.00000  Uiso   1.00
O137   O     0.18090   0.49510   0.11477   0.00000  Uiso   1.00
O138   O     0.31910   0.50490   0.21857   0.00000  Uiso   1.00
Br139  Br    0.89083   0.59761   0.25273   0.00000  Uiso   1.00
Br140  Br    0.61921   0.39974   0.08204   0.00000  Uiso   1.00
Br141  Br    0.86264   0.39373   0.10294   0.00000  Uiso   1.00
Br142  Br    0.62880   0.58337   0.26693   0.00000  Uiso   1.00
Br143  Br    0.69185   0.43634   0.30135   0.00000  Uiso   1.00
Br144  Br    0.80852   0.56332   0.03176   0.00000  Uiso   1.00
C145   C     0.74853   0.40032   0.15172   0.00000  Uiso   1.00
C146   C     0.58785   0.45540   0.12413   0.00000  Uiso   1.00
C147   C     0.88388   0.50131   0.16338   0.00000  Uiso   1.00
C148   C     0.61495   0.49647   0.16486   0.00000  Uiso   1.00
C149   C     0.90054   0.45886   0.12664   0.00000  Uiso   1.00
C150   C     0.59585   0.53975   0.19571   0.00000  Uiso   1.00
C151   C     0.94628   0.46144   0.11689   0.00000  Uiso   1.00
C152   C     0.55068   0.54586   0.18095   0.00000  Uiso   1.00
C153   C     0.97553   0.50400   0.14841   0.00000  Uiso   1.00
C154   C     0.52233   0.50219   0.14809   0.00000  Uiso   1.00
C155   C     0.95791   0.54908   0.17888   0.00000  Uiso   1.00
C156   C     0.75201   0.59975   0.18168   0.00000  Uiso   1.00
C157   C     0.54023   0.45656   0.11700   0.00000  Uiso   1.00
C158   C     0.96321   0.42447   0.07333   0.00000  Uiso   1.00
C159   C     0.53282   0.59469   0.19454   0.00000  Uiso   1.00
C160   C     0.50915   0.41721   0.07772   0.00000  Uiso   1.00
C161   C     0.98581   0.59604   0.19101   0.00000  Uiso   1.00
C162   C     0.74318   0.34491   0.14441   0.00000  Uiso   1.00
C163   C     0.75826   0.65525   0.18917   0.00000  Uiso   1.00
C164   C     0.66424   0.49852   0.16671   0.00000  Uiso   1.00
C165   C     0.83549   0.50078   0.16620   0.00000  Uiso   1.00
C166   C     0.91237   0.54626   0.19044   0.00000  Uiso   1.00
Cu167  Cu    0.75501   0.50579   0.22813   0.00000  Uiso   1.00
Cu168  Cu    0.74500   0.49421   0.10521   0.00000  Uiso   1.00
I169   I     0.92617   0.40564   0.31930   0.00000  Uiso   1.00
I170   I     0.57475   0.66587   0.20112   0.00000  Uiso   1.00
I171   I     0.52116   0.34201   0.02694   0.00000  Uiso   1.00
I172   I     0.95739   0.66379   0.17383   0.00000  Uiso   1.00
I173   I     0.70453   0.63996   0.06109   0.00000  Uiso   1.00
I174   I     0.79793   0.36022   0.27229   0.00000  Uiso   1.00
N175   N     0.73745   0.48547   0.01284   0.00000  Uiso   1.00
N176   N     0.76256   0.51453   0.32049   0.00000  Uiso   1.00
O177   O     0.75326   0.42871   0.20659   0.00000  Uiso   1.00
O178   O     0.74675   0.57129   0.12674   0.00000  Uiso   1.00
O179   O     0.74480   0.41892   0.10279   0.00000  Uiso   1.00
O180   O     0.75520   0.58108   0.23055   0.00000  Uiso   1.00
O181   O     0.68936   0.50488   0.21857   0.00000  Uiso   1.00
O182   O     0.81065   0.49512   0.11476   0.00000  Uiso   1.00
O183   O     0.68090   0.49510   0.11477   0.00000  Uiso   1.00
O184   O     0.81910   0.50490   0.21857   0.00000  Uiso   1.00
Br185  Br    0.39083   0.93095   0.25273   0.00000  Uiso   1.00
Br186  Br    0.11921   0.73307   0.08204   0.00000  Uiso   1.00
Br187  Br    0.36264   0.72707   0.10294   0.00000  Uiso   1.00
Br188  Br    0.12880   0.91671   0.26693   0.00000  Uiso   1.00
Br189  Br    0.19185   0.76967   0.30135   0.00000  Uiso   1.00
Br190  Br    0.30852   0.89666   0.03176   0.00000  Uiso   1.00
C191   C     0.24853   0.73365   0.15172   0.00000  Uiso   1.00
C192   C     0.08785   0.78873   0.12413   0.00000  Uiso   1.00
C193   C     0.38388   0.83465   0.16338   0.00000  Uiso   1.00
C194   C     0.11495   0.82980   0.16486   0.00000  Uiso   1.00
C195   C     0.40054   0.79219   0.12664   0.00000  Uiso   1.00
C196   C     0.09585   0.87309   0.19571   0.00000  Uiso   1.00
C197   C     0.44628   0.79477   0.11689   0.00000  Uiso   1.00
C198   C     0.05068   0.87920   0.18095   0.00000  Uiso   1.00
C199   C     0.47553   0.83733   0.14841   0.00000  Uiso   1.00
C200   C     0.02233   0.83552   0.14809   0.00000  Uiso   1.00
C201   C     0.45791   0.88241   0.17888   0.00000  Uiso   1.00
C202   C     0.25201   0.93308   0.18168   0.00000  Uiso   1.00
C203   C     0.04023   0.78990   0.11700   0.00000  Uiso   1.00
C204   C     0.46321   0.75780   0.07333   0.00000  Uiso   1.00
C205   C     0.03282   0.92802   0.19454   0.00000  Uiso   1.00
C206   C     0.00915   0.75054   0.07772   0.00000  Uiso   1.00
C207   C     0.48581   0.92937   0.19101   0.00000  Uiso   1.00
C208   C     0.24318   0.67824   0.14441   0.00000  Uiso   1.00
C209   C     0.25826   0.98858   0.18917   0.00000  Uiso   1.00
C210   C     0.16424   0.83186   0.16671   0.00000  Uiso   1.00
C211   C     0.33549   0.83412   0.16620   0.00000  Uiso   1.00
C212   C     0.41237   0.87959   0.19044   0.00000  Uiso   1.00
Cu213  Cu    0.25501   0.83913   0.22813   0.00000  Uiso   1.00
Cu214  Cu    0.24500   0.82754   0.10521   0.00000  Uiso   1.00
I215   I     0.42617   0.73898   0.31930   0.00000  Uiso   1.00
I216   I     0.07475   0.99921   0.20112   0.00000  Uiso   1.00
I217   I     0.02116   0.67535   0.02694   0.00000  Uiso   1.00
I218   I     0.45739   0.99713   0.17383   0.00000  Uiso   1.00
I219   I     0.20453   0.97330   0.06109   0.00000  Uiso   1.00
I220   I     0.29793   0.69355   0.27229   0.00000  Uiso   1.00
N221   N     0.23745   0.81881   0.01284   0.00000  Uiso   1.00
N222   N     0.26256   0.84786   0.32049   0.00000  Uiso   1.00
O223   O     0.25326   0.76204   0.20659   0.00000  Uiso   1.00
O224   O     0.24675   0.90462   0.12674   0.00000  Uiso   1.00
O225   O     0.24480   0.75226   0.10279   0.00000  Uiso   1.00
O226   O     0.25520   0.91441   0.23055   0.00000  Uiso   1.00
O227   O     0.18936   0.83821   0.21857   0.00000  Uiso   1.00
O228   O     0.31065   0.82845   0.11476   0.00000  Uiso   1.00
O229   O     0.18090   0.82843   0.11477   0.00000  Uiso   1.00
O230   O     0.31910   0.83824   0.21857   0.00000  Uiso   1.00
Br231  Br    0.89083   0.93095   0.25273   0.00000  Uiso   1.00
Br232  Br    0.61921   0.73307   0.08204   0.00000  Uiso   1.00
Br233  Br    0.86264   0.72707   0.10294   0.00000  Uiso   1.00
Br234  Br    0.62880   0.91671   0.26693   0.00000  Uiso   1.00
Br235  Br    0.69185   0.76967   0.30135   0.00000  Uiso   1.00
Br236  Br    0.80852   0.89666   0.03176   0.00000  Uiso   1.00
C237   C     0.74853   0.73365   0.15172   0.00000  Uiso   1.00
C238   C     0.58785   0.78873   0.12413   0.00000  Uiso   1.00
C239   C     0.88388   0.83465   0.16338   0.00000  Uiso   1.00
C240   C     0.61495   0.82980   0.16486   0.00000  Uiso   1.00
C241   C     0.90054   0.79219   0.12664   0.00000  Uiso   1.00
C242   C     0.59585   0.87309   0.19571   0.00000  Uiso   1.00
C243   C     0.94628   0.79477   0.11689   0.00000  Uiso   1.00
C244   C     0.55068   0.87920   0.18095   0.00000  Uiso   1.00
C245   C     0.97553   0.83733   0.14841   0.00000  Uiso   1.00
C246   C     0.52233   0.83552   0.14809   0.00000  Uiso   1.00
C247   C     0.95791   0.88241   0.17888   0.00000  Uiso   1.00
C248   C     0.75201   0.93308   0.18168   0.00000  Uiso   1.00
C249   C     0.54023   0.78990   0.11700   0.00000  Uiso   1.00
C250   C     0.96321   0.75780   0.07333   0.00000  Uiso   1.00
C251   C     0.53282   0.92802   0.19454   0.00000  Uiso   1.00
C252   C     0.50915   0.75054   0.07772   0.00000  Uiso   1.00
C253   C     0.98581   0.92937   0.19101   0.00000  Uiso   1.00
C254   C     0.74318   0.67824   0.14441   0.00000  Uiso   1.00
C255   C     0.75826   0.98858   0.18917   0.00000  Uiso   1.00
C256   C     0.66424   0.83186   0.16671   0.00000  Uiso   1.00
C257   C     0.83549   0.83412   0.16620   0.00000  Uiso   1.00
C258   C     0.91237   0.87959   0.19044   0.00000  Uiso   1.00
Cu259  Cu    0.75501   0.83913   0.22813   0.00000  Uiso   1.00
Cu260  Cu    0.74500   0.82754   0.10521   0.00000  Uiso   1.00
I261   I     0.92617   0.73898   0.31930   0.00000  Uiso   1.00
I262   I     0.57475   0.99921   0.20112   0.00000  Uiso   1.00
I263   I     0.52116   0.67535   0.02694   0.00000  Uiso   1.00
I264   I     0.95739   0.99713   0.17383   0.00000  Uiso   1.00
I265   I     0.70453   0.97330   0.06109   0.00000  Uiso   1.00
I266   I     0.79793   0.69355   0.27229   0.00000  Uiso   1.00
N267   N     0.73745   0.81881   0.01284   0.00000  Uiso   1.00
N268   N     0.76256   0.84786   0.32049   0.00000  Uiso   1.00
O269   O     0.75326   0.76204   0.20659   0.00000  Uiso   1.00
O270   O     0.74675   0.90462   0.12674   0.00000  Uiso   1.00
O271   O     0.74480   0.75226   0.10279   0.00000  Uiso   1.00
O272   O     0.75520   0.91441   0.23055   0.00000  Uiso   1.00
O273   O     0.68936   0.83821   0.21857   0.00000  Uiso   1.00
O274   O     0.81065   0.82845   0.11476   0.00000  Uiso   1.00
O275   O     0.68090   0.82843   0.11477   0.00000  Uiso   1.00
O276   O     0.81910   0.83824   0.21857   0.00000  Uiso   1.00
Br277  Br    0.39083   0.26428   0.58606   0.00000  Uiso   1.00
Br278  Br    0.11921   0.06641   0.41538   0.00000  Uiso   1.00
Br279  Br    0.36264   0.06040   0.43627   0.00000  Uiso   1.00
Br280  Br    0.12880   0.25004   0.60027   0.00000  Uiso   1.00
Br281  Br    0.19185   0.10301   0.63468   0.00000  Uiso   1.00
Br282  Br    0.30852   0.22999   0.36509   0.00000  Uiso   1.00
C283   C     0.24853   0.06699   0.48505   0.00000  Uiso   1.00
C284   C     0.08785   0.12207   0.45746   0.00000  Uiso   1.00
C285   C     0.38388   0.16798   0.49671   0.00000  Uiso   1.00
C286   C     0.11495   0.16313   0.49819   0.00000  Uiso   1.00
C287   C     0.40054   0.12553   0.45997   0.00000  Uiso   1.00
C288   C     0.09585   0.20642   0.52904   0.00000  Uiso   1.00
C289   C     0.44628   0.12810   0.45022   0.00000  Uiso   1.00
C290   C     0.05068   0.21253   0.51428   0.00000  Uiso   1.00
C291   C     0.47553   0.17067   0.48174   0.00000  Uiso   1.00
C292   C     0.02233   0.16886   0.48142   0.00000  Uiso   1.00
C293   C     0.45791   0.21575   0.51221   0.00000  Uiso   1.00
C294   C     0.25201   0.26642   0.51502   0.00000  Uiso   1.00
C295   C     0.04023   0.12323   0.45033   0.00000  Uiso   1.00
C296   C     0.46321   0.09113   0.40666   0.00000  Uiso   1.00
C297   C     0.03282   0.26135   0.52788   0.00000  Uiso   1.00
C298   C     0.00915   0.08387   0.41105   0.00000  Uiso   1.00
C299   C     0.48581   0.26271   0.52435   0.00000  Uiso   1.00
C300   C     0.24318   0.01157   0.47774   0.00000  Uiso   1.00
C301   C     0.25826   0.32191   0.52250   0.00000  Uiso   1.00
C302   C     0.16424   0.16519   0.50004   0.00000  Uiso   1.00
C303   C     0.33549   0.16745   0.49954   0.00000  Uiso   1.00
C304   C     0.41237   0.21293   0.52377   0.00000  Uiso   1.00
Cu305  Cu    0.25501   0.17246   0.56146   0.00000  Uiso   1.00
Cu306  Cu    0.24500   0.16087   0.43854   0.00000  Uiso   1.00
I307   I     0.42617   0.07231   0.65263   0.00000  Uiso   1.00
I308   I     0.07475   0.33254   0.53445   0.00000  Uiso   1.00
I309   I     0.02116   0.00868   0.36027   0.00000  Uiso   1.00
I310   I     0.45739   0.33046   0.50717   0.00000  Uiso   1.00
I311   I     0.20453   0.30663   0.39442   0.00000  Uiso   1.00
I312   I     0.29793   0.02689   0.60563   0.00000  Uiso   1.00
N313   N     0.23745   0.15214   0.34617   0.00000  Uiso   1.00
N314   N     0.26256   0.18119   0.65383   0.00000  Uiso   1.00
O315   O     0.25326   0.09538   0.53992   0.00000  Uiso   1.00
O316   O     0.24675   0.23796   0.46008   0.00000  Uiso   1.00
O317   O     0.24480   0.08559   0.43612   0.00000  Uiso   1.00
O318   O     0.25520   0.24774   0.56388   0.00000  Uiso   1.00
O319   O     0.18936   0.17155   0.55191   0.00000  Uiso   1.00
O320   O     0.31065   0.16179   0.44809   0.00000  Uiso   1.00
O321   O     0.18090   0.16176   0.44810   0.00000  Uiso   1.00
O322   O     0.31910   0.17157   0.55190   0.00000  Uiso   1.00
Br323  Br    0.89083   0.26428   0.58606   0.00000  Uiso   1.00
Br324  Br    0.61921   0.06641   0.41538   0.00000  Uiso   1.00
Br325  Br    0.86264   0.06040   0.43627   0.00000  Uiso   1.00
Br326  Br    0.62880   0.25004   0.60027   0.00000  Uiso   1.00
Br327  Br    0.69185   0.10301   0.63468   0.00000  Uiso   1.00
Br328  Br    0.80852   0.22999   0.36509   0.00000  Uiso   1.00
C329   C     0.74853   0.06699   0.48505   0.00000  Uiso   1.00
C330   C     0.58785   0.12207   0.45746   0.00000  Uiso   1.00
C331   C     0.88388   0.16798   0.49671   0.00000  Uiso   1.00
C332   C     0.61495   0.16313   0.49819   0.00000  Uiso   1.00
C333   C     0.90054   0.12553   0.45997   0.00000  Uiso   1.00
C334   C     0.59585   0.20642   0.52904   0.00000  Uiso   1.00
C335   C     0.94628   0.12810   0.45022   0.00000  Uiso   1.00
C336   C     0.55068   0.21253   0.51428   0.00000  Uiso   1.00
C337   C     0.97553   0.17067   0.48174   0.00000  Uiso   1.00
C338   C     0.52233   0.16886   0.48142   0.00000  Uiso   1.00
C339   C     0.95791   0.21575   0.51221   0.00000  Uiso   1.00
C340   C     0.75201   0.26642   0.51502   0.00000  Uiso   1.00
C341   C     0.54023   0.12323   0.45033   0.00000  Uiso   1.00
C342   C     0.96321   0.09113   0.40666   0.00000  Uiso   1.00
C343   C     0.53282   0.26135   0.52788   0.00000  Uiso   1.00
C344   C     0.50915   0.08387   0.41105   0.00000  Uiso   1.00
C345   C     0.98581   0.26271   0.52435   0.00000  Uiso   1.00
C346   C     0.74318   0.01157   0.47774   0.00000  Uiso   1.00
C347   C     0.75826   0.32191   0.52250   0.00000  Uiso   1.00
C348   C     0.66424   0.16519   0.50004   0.00000  Uiso   1.00
C349   C     0.83549   0.16745   0.49954   0.00000  Uiso   1.00
C350   C     0.91237   0.21293   0.52377   0.00000  Uiso   1.00
Cu351  Cu    0.75501   0.17246   0.56146   0.00000  Uiso   1.00
Cu352  Cu    0.74500   0.16087   0.43854   0.00000  Uiso   1.00
I353   I     0.92617   0.07231   0.65263   0.00000  Uiso   1.00
I354   I     0.57475   0.33254   0.53445   0.00000  Uiso   1.00
I355   I     0.52116   0.00868   0.36027   0.00000  Uiso   1.00
I356   I     0.95739   0.33046   0.50717   0.00000  Uiso   1.00
I357   I     0.70453   0.30663   0.39442   0.00000  Uiso   1.00
I358   I     0.79793   0.02689   0.60563   0.00000  Uiso   1.00
N359   N     0.73745   0.15214   0.34617   0.00000  Uiso   1.00
N360   N     0.76256   0.18119   0.65383   0.00000  Uiso   1.00
O361   O     0.75326   0.09538   0.53992   0.00000  Uiso   1.00
O362   O     0.74675   0.23796   0.46008   0.00000  Uiso   1.00
O363   O     0.74480   0.08559   0.43612   0.00000  Uiso   1.00
O364   O     0.75520   0.24774   0.56388   0.00000  Uiso   1.00
O365   O     0.68936   0.17155   0.55191   0.00000  Uiso   1.00
O366   O     0.81065   0.16179   0.44809   0.00000  Uiso   1.00
O367   O     0.68090   0.16176   0.44810   0.00000  Uiso   1.00
O368   O     0.81910   0.17157   0.55190   0.00000  Uiso   1.00
Br369  Br    0.39083   0.59761   0.58606   0.00000  Uiso   1.00
Br370  Br    0.11921   0.39974   0.41538   0.00000  Uiso   1.00
Br371  Br    0.36264   0.39373   0.43627   0.00000  Uiso   1.00
Br372  Br    0.12880   0.58337   0.60027   0.00000  Uiso   1.00
Br373  Br    0.19185   0.43634   0.63468   0.00000  Uiso   1.00
Br374  Br    0.30852   0.56332   0.36509   0.00000  Uiso   1.00
C375   C     0.24853   0.40032   0.48505   0.00000  Uiso   1.00
C376   C     0.08785   0.45540   0.45746   0.00000  Uiso   1.00
C377   C     0.38388   0.50131   0.49671   0.00000  Uiso   1.00
C378   C     0.11495   0.49647   0.49819   0.00000  Uiso   1.00
C379   C     0.40054   0.45886   0.45997   0.00000  Uiso   1.00
C380   C     0.09585   0.53975   0.52904   0.00000  Uiso   1.00
C381   C     0.44628   0.46144   0.45022   0.00000  Uiso   1.00
C382   C     0.05068   0.54586   0.51428   0.00000  Uiso   1.00
C383   C     0.47553   0.50400   0.48174   0.00000  Uiso   1.00
C384   C     0.02233   0.50219   0.48142   0.00000  Uiso   1.00
C385   C     0.45791   0.54908   0.51221   0.00000  Uiso   1.00
C386   C     0.25201   0.59975   0.51502   0.00000  Uiso   1.00
C387   C     0.04023   0.45656   0.45033   0.00000  Uiso   1.00
C388   C     0.46321   0.42447   0.40666   0.00000  Uiso   1.00
C389   C     0.03282   0.59469   0.52788   0.00000  Uiso   1.00
C390   C     0.00915   0.41721   0.41105   0.00000  Uiso   1.00
C391   C     0.48581   0.59604   0.52435   0.00000  Uiso   1.00
C392   C     0.24318   0.34491   0.47774   0.00000  Uiso   1.00
C393   C     0.25826   0.65525   0.52250   0.00000  Uiso   1.00
C394   C     0.16424   0.49852   0.50004   0.00000  Uiso   1.00
C395   C     0.33549   0.50078   0.49954   0.00000  Uiso   1.00
C396   C     0.41237   0.54626   0.52377   0.00000  Uiso   1.00
Cu397  Cu    0.25501   0.50579   0.56146   0.00000  Uiso   1.00
Cu398  Cu    0.24500   0.49421   0.43854   0.00000  Uiso   1.00
I399   I     0.42617   0.40564   0.65263   0.00000  Uiso   1.00
I400   I     0.07475   0.66587   0.53445   0.00000  Uiso   1.00
I401   I     0.02116   0.34201   0.36027   0.00000  Uiso   1.00
I402   I     0.45739   0.66379   0.50717   0.00000  Uiso   1.00
I403   I     0.20453   0.63996   0.39442   0.00000  Uiso   1.00
I404   I     0.29793   0.36022   0.60563   0.00000  Uiso   1.00
N405   N     0.23745   0.48547   0.34617   0.00000  Uiso   1.00
N406   N     0.26256   0.51453   0.65383   0.00000  Uiso   1.00
O407   O     0.25326   0.42871   0.53992   0.00000  Uiso   1.00
O408   O     0.24675   0.57129   0.46008   0.00000  Uiso   1.00
O409   O     0.24480   0.41892   0.43612   0.00000  Uiso   1.00
O410   O     0.25520   0.58108   0.56388   0.00000  Uiso   1.00
O411   O     0.18936   0.50488   0.55191   0.00000  Uiso   1.00
O412   O     0.31065   0.49512   0.44809   0.00000  Uiso   1.00
O413   O     0.18090   0.49510   0.44810   0.00000  Uiso   1.00
O414   O     0.31910   0.50490   0.55190   0.00000  Uiso   1.00
Br415  Br    0.89083   0.59761   0.58606   0.00000  Uiso   1.00
Br416  Br    0.61921   0.39974   0.41538   0.00000  Uiso   1.00
Br417  Br    0.86264   0.39373   0.43627   0.00000  Uiso   1.00
Br418  Br    0.62880   0.58337   0.60027   0.00000  Uiso   1.00
Br419  Br    0.69185   0.43634   0.63468   0.00000  Uiso   1.00
Br420  Br    0.80852   0.56332   0.36509   0.00000  Uiso   1.00
C421   C     0.74853   0.40032   0.48505   0.00000  Uiso   1.00
C422   C     0.58785   0.45540   0.45746   0.00000  Uiso   1.00
C423   C     0.88388   0.50131   0.49671   0.00000  Uiso   1.00
C424   C     0.61495   0.49647   0.49819   0.00000  Uiso   1.00
C425   C     0.90054   0.45886   0.45997   0.00000  Uiso   1.00
C426   C     0.59585   0.53975   0.52904   0.00000  Uiso   1.00
C427   C     0.94628   0.46144   0.45022   0.00000  Uiso   1.00
C428   C     0.55068   0.54586   0.51428   0.00000  Uiso   1.00
C429   C     0.97553   0.50400   0.48174   0.00000  Uiso   1.00
C430   C     0.52233   0.50219   0.48142   0.00000  Uiso   1.00
C431   C     0.95791   0.54908   0.51221   0.00000  Uiso   1.00
C432   C     0.75201   0.59975   0.51502   0.00000  Uiso   1.00
C433   C     0.54023   0.45656   0.45033   0.00000  Uiso   1.00
C434   C     0.96321   0.42447   0.40666   0.00000  Uiso   1.00
C435   C     0.53282   0.59469   0.52788   0.00000  Uiso   1.00
C436   C     0.50915   0.41721   0.41105   0.00000  Uiso   1.00
C437   C     0.98581   0.59604   0.52435   0.00000  Uiso   1.00
C438   C     0.74318   0.34491   0.47774   0.00000  Uiso   1.00
C439   C     0.75826   0.65525   0.52250   0.00000  Uiso   1.00
C440   C     0.66424   0.49852   0.50004   0.00000  Uiso   1.00
C441   C     0.83549   0.50078   0.49954   0.00000  Uiso   1.00
C442   C     0.91237   0.54626   0.52377   0.00000  Uiso   1.00
Cu443  Cu    0.75501   0.50579   0.56146   0.00000  Uiso   1.00
Cu444  Cu    0.74500   0.49421   0.43854   0.00000  Uiso   1.00
I445   I     0.92617   0.40564   0.65263   0.00000  Uiso   1.00
I446   I     0.57475   0.66587   0.53445   0.00000  Uiso   1.00
I447   I     0.52116   0.34201   0.36027   0.00000  Uiso   1.00
I448   I     0.95739   0.66379   0.50717   0.00000  Uiso   1.00
I449   I     0.70453   0.63996   0.39442   0.00000  Uiso   1.00
I450   I     0.79793   0.36022   0.60563   0.00000  Uiso   1.00
N451   N     0.73745   0.48547   0.34617   0.00000  Uiso   1.00
N452   N     0.76256   0.51453   0.65383   0.00000  Uiso   1.00
O453   O     0.75326   0.42871   0.53992   0.00000  Uiso   1.00
O454   O     0.74675   0.57129   0.46008   0.00000  Uiso   1.00
O455   O     0.74480   0.41892   0.43612   0.00000  Uiso   1.00
O456   O     0.75520   0.58108   0.56388   0.00000  Uiso   1.00
O457   O     0.68936   0.50488   0.55191   0.00000  Uiso   1.00
O458   O     0.81065   0.49512   0.44809   0.00000  Uiso   1.00
O459   O     0.68090   0.49510   0.44810   0.00000  Uiso   1.00
O460   O     0.81910   0.50490   0.55190   0.00000  Uiso   1.00
Br461  Br    0.39083   0.93095   0.58606   0.00000  Uiso   1.00
Br462  Br    0.11921   0.73307   0.41538   0.00000  Uiso   1.00
Br463  Br    0.36264   0.72707   0.43627   0.00000  Uiso   1.00
Br464  Br    0.12880   0.91671   0.60027   0.00000  Uiso   1.00
Br465  Br    0.19185   0.76967   0.63468   0.00000  Uiso   1.00
Br466  Br    0.30852   0.89666   0.36509   0.00000  Uiso   1.00
C467   C     0.24853   0.73365   0.48505   0.00000  Uiso   1.00
C468   C     0.08785   0.78873   0.45746   0.00000  Uiso   1.00
C469   C     0.38388   0.83465   0.49671   0.00000  Uiso   1.00
C470   C     0.11495   0.82980   0.49819   0.00000  Uiso   1.00
C471   C     0.40054   0.79219   0.45997   0.00000  Uiso   1.00
C472   C     0.09585   0.87309   0.52904   0.00000  Uiso   1.00
C473   C     0.44628   0.79477   0.45022   0.00000  Uiso   1.00
C474   C     0.05068   0.87920   0.51428   0.00000  Uiso   1.00
C475   C     0.47553   0.83733   0.48174   0.00000  Uiso   1.00
C476   C     0.02233   0.83552   0.48142   0.00000  Uiso   1.00
C477   C     0.45791   0.88241   0.51221   0.00000  Uiso   1.00
C478   C     0.25201   0.93308   0.51502   0.00000  Uiso   1.00
C479   C     0.04023   0.78990   0.45033   0.00000  Uiso   1.00
C480   C     0.46321   0.75780   0.40666   0.00000  Uiso   1.00
C481   C     0.03282   0.92802   0.52788   0.00000  Uiso   1.00
C482   C     0.00915   0.75054   0.41105   0.00000  Uiso   1.00
C483   C     0.48581   0.92937   0.52435   0.00000  Uiso   1.00
C484   C     0.24318   0.67824   0.47774   0.00000  Uiso   1.00
C485   C     0.25826   0.98858   0.52250   0.00000  Uiso   1.00
C486   C     0.16424   0.83186   0.50004   0.00000  Uiso   1.00
C487   C     0.33549   0.83412   0.49954   0.00000  Uiso   1.00
C488   C     0.41237   0.87959   0.52377   0.00000  Uiso   1.00
Cu489  Cu    0.25501   0.83913   0.56146   0.00000  Uiso   1.00
Cu490  Cu    0.24500   0.82754   0.43854   0.00000  Uiso   1.00
I491   I     0.42617   0.73898   0.65263   0.00000  Uiso   1.00
I492   I     0.07475   0.99921   0.53445   0.00000  Uiso   1.00
I493   I     0.02116   0.67535   0.36027   0.00000  Uiso   1.00
I494   I     0.45739   0.99713   0.50717   0.00000  Uiso   1.00
I495   I     0.20453   0.97330   0.39442   0.00000  Uiso   1.00
I496   I     0.29793   0.69355   0.60563   0.00000  Uiso   1.00
N497   N     0.23745   0.81881   0.34617   0.00000  Uiso   1.00
N498   N     0.26256   0.84786   0.65383   0.00000  Uiso   1.00
O499   O     0.25326   0.76204   0.53992   0.00000  Uiso   1.00
O500   O     0.24675   0.90462   0.46008   0.00000  Uiso   1.00
O501   O     0.24480   0.75226   0.43612   0.00000  Uiso   1.00
O502   O     0.25520   0.91441   0.56388   0.00000  Uiso   1.00
O503   O     0.18936   0.83821   0.55191   0.00000  Uiso   1.00
O504   O     0.31065   0.82845   0.44809   0.00000  Uiso   1.00
O505   O     0.18090   0.82843   0.44810   0.00000  Uiso   1.00
O506   O     0.31910   0.83824   0.55190   0.00000  Uiso   1.00
Br507  Br    0.89083   0.93095   0.58606   0.00000  Uiso   1.00
Br508  Br    0.61921   0.73307   0.41538   0.00000  Uiso   1.00
Br509  Br    0.86264   0.72707   0.43627   0.00000  Uiso   1.00
Br510  Br    0.62880   0.91671   0.60027   0.00000  Uiso   1.00
Br511  Br    0.69185   0.76967   0.63468   0.00000  Uiso   1.00
Br512  Br    0.80852   0.89666   0.36509   0.00000  Uiso   1.00
C513   C     0.74853   0.73365   0.48505   0.00000  Uiso   1.00
C514   C     0.58785   0.78873   0.45746   0.00000  Uiso   1.00
C515   C     0.88388   0.83465   0.49671   0.00000  Uiso   1.00
C516   C     0.61495   0.82980   0.49819   0.00000  Uiso   1.00
C517   C     0.90054   0.79219   0.45997   0.00000  Uiso   1.00
C518   C     0.59585   0.87309   0.52904   0.00000  Uiso   1.00
C519   C     0.94628   0.79477   0.45022   0.00000  Uiso   1.00
C520   C     0.55068   0.87920   0.51428   0.00000  Uiso   1.00
C521   C     0.97553   0.83733   0.48174   0.00000  Uiso   1.00
C522   C     0.52233   0.83552   0.48142   0.00000  Uiso   1.00
C523   C     0.95791   0.88241   0.51221   0.00000  Uiso   1.00
C524   C     0.75201   0.93308   0.51502   0.00000  Uiso   1.00
C525   C     0.54023   0.78990   0.45033   0.00000  Uiso   1.00
C526   C     0.96321   0.75780   0.40666   0.00000  Uiso   1.00
C527   C     0.53282   0.92802   0.52788   0.00000  Uiso   1.00
C528   C     0.50915   0.75054   0.41105   0.00000  Uiso   1.00
C529   C     0.98581   0.92937   0.52435   0.00000  Uiso   1.00
C530   C     0.74318   0.67824   0.47774   0.00000  Uiso   1.00
C531   C     0.75826   0.98858   0.52250   0.00000  Uiso   1.00
C532   C     0.66424   0.83186   0.50004   0.00000  Uiso   1.00
C533   C     0.83549   0.83412   0.49954   0.00000  Uiso   1.00
C534   C     0.91237   0.87959   0.52377   0.00000  Uiso   1.00
Cu535  Cu    0.75501   0.83913   0.56146   0.00000  Uiso   1.00
Cu536  Cu    0.74500   0.82754   0.43854   0.00000  Uiso   1.00
I537   I     0.92617   0.73898   0.65263   0.00000  Uiso   1.00
I538   I     0.57475   0.99921   0.53445   0.00000  Uiso   1.00
I539   I     0.52116   0.67535   0.36027   0.00000  Uiso   1.00
I540   I     0.95739   0.99713   0.50717   0.00000  Uiso   1.00
I541   I     0.70453   0.97330   0.39442   0.00000  Uiso   1.00
I542   I     0.79793   0.69355   0.60563   0.00000  Uiso   1.00
N543   N     0.73745   0.81881   0.34617   0.00000  Uiso   1.00
N544   N     0.76256   0.84786   0.65383   0.00000  Uiso   1.00
O545   O     0.75326   0.76204   0.53992   0.00000  Uiso   1.00
O546   O     0.74675   0.90462   0.46008   0.00000  Uiso   1.00
O547   O     0.74480   0.75226   0.43612   0.00000  Uiso   1.00
O548   O     0.75520   0.91441   0.56388   0.00000  Uiso   1.00
O549   O     0.68936   0.83821   0.55191   0.00000  Uiso   1.00
O550   O     0.81065   0.82845   0.44809   0.00000  Uiso   1.00
O551   O     0.68090   0.82843   0.44810   0.00000  Uiso   1.00
O552   O     0.81910   0.83824   0.55190   0.00000  Uiso   1.00
Br553  Br    0.39083   0.26428   0.91940   0.00000  Uiso   1.00
Br554  Br    0.11921   0.06641   0.74871   0.00000  Uiso   1.00
Br555  Br    0.36264   0.06040   0.76961   0.00000  Uiso   1.00
Br556  Br    0.12880   0.25004   0.93360   0.00000  Uiso   1.00
Br557  Br    0.19185   0.10301   0.96802   0.00000  Uiso   1.00
Br558  Br    0.30852   0.22999   0.69843   0.00000  Uiso   1.00
C559   C     0.24853   0.06699   0.81839   0.00000  Uiso   1.00
C560   C     0.08785   0.12207   0.79080   0.00000  Uiso   1.00
C561   C     0.38388   0.16798   0.83005   0.00000  Uiso   1.00
C562   C     0.11495   0.16313   0.83153   0.00000  Uiso   1.00
C563   C     0.40054   0.12553   0.79330   0.00000  Uiso   1.00
C564   C     0.09585   0.20642   0.86238   0.00000  Uiso   1.00
C565   C     0.44628   0.12810   0.78355   0.00000  Uiso   1.00
C566   C     0.05068   0.21253   0.84762   0.00000  Uiso   1.00
C567   C     0.47553   0.17067   0.81508   0.00000  Uiso   1.00
C568   C     0.02233   0.16886   0.81475   0.00000  Uiso   1.00
C569   C     0.45791   0.21575   0.84555   0.00000  Uiso   1.00
C570   C     0.25201   0.26642   0.84835   0.00000  Uiso   1.00
C571   C     0.04023   0.12323   0.78367   0.00000  Uiso   1.00
C572   C     0.46321   0.09113   0.73999   0.00000  Uiso   1.00
C573   C     0.03282   0.26135   0.86121   0.00000  Uiso   1.00
C574   C     0.00915   0.08387   0.74439   0.00000  Uiso   1.00
C575   C     0.48581   0.26271   0.85768   0.00000  Uiso   1.00
C576   C     0.24318   0.01157   0.81107   0.00000  Uiso   1.00
C577   C     0.25826   0.32191   0.85583   0.00000  Uiso   1.00
C578   C     0.16424   0.16519   0.83337   0.00000  Uiso   1.00
C579   C     0.33549   0.16745   0.83287   0.00000  Uiso   1.00
C580   C     0.41237   0.21293   0.85711   0.00000  Uiso   1.00
Cu581  Cu    0.25501   0.17246   0.89479   0.00000  Uiso   1.00
Cu582  Cu    0.24500   0.16087   0.77187   0.00000  Uiso   1.00
I583   I     0.42617   0.07231   0.98597   0.00000  Uiso   1.00
I584   I     0.07475   0.33254   0.86779   0.00000  Uiso   1.00
I585   I     0.02116   0.00868   0.69360   0.00000  Uiso   1.00
I586   I     0.45739   0.33046   0.84050   0.00000  Uiso   1.00
I587   I     0.20453   0.30663   0.72775   0.00000  Uiso   1.00
I588   I     0.29793   0.02689   0.93896   0.00000  Uiso   1.00
N589   N     0.23745   0.15214   0.67951   0.00000  Uiso   1.00
N590   N     0.26256   0.18119   0.98716   0.00000  Uiso   1.00
O591   O     0.25326   0.09538   0.87326   0.00000  Uiso   1.00
O592   O     0.24675   0.23796   0.79341   0.00000  Uiso   1.00
O593   O     0.24480   0.08559   0.76945   0.00000  Uiso   1.00
O594   O     0.25520   0.24774   0.89721   0.00000  Uiso   1.00
O595   O     0.18936   0.17155   0.88524   0.00000  Uiso   1.00
O596   O     0.31065   0.16179   0.78143   0.00000  Uiso   1.00
O597   O     0.18090   0.16176   0.78143   0.00000  Uiso   1.00
O598   O     0.31910   0.17157   0.88523   0.00000  Uiso   1.00
Br599  Br    0.89083   0.26428   0.91940   0.00000  Uiso   1.00
Br600  Br    0.61921   0.06641   0.74871   0.00000  Uiso   1.00
Br601  Br    0.86264   0.06040   0.76961   0.00000  Uiso   1.00
Br602  Br    0.62880   0.25004   0.93360   0.00000  Uiso   1.00
Br603  Br    0.69185   0.10301   0.96802   0.00000  Uiso   1.00
Br604  Br    0.80852   0.22999   0.69843   0.00000  Uiso   1.00
C605   C     0.74853   0.06699   0.81839   0.00000  Uiso   1.00
C606   C     0.58785   0.12207   0.79080   0.00000  Uiso   1.00
C607   C     0.88388   0.16798   0.83005   0.00000  Uiso   1.00
C608   C     0.61495   0.16313   0.83153   0.00000  Uiso   1.00
C609   C     0.90054   0.12553   0.79330   0.00000  Uiso   1.00
C610   C     0.59585   0.20642   0.86238   0.00000  Uiso   1.00
C611   C     0.94628   0.12810   0.78355   0.00000  Uiso   1.00
C612   C     0.55068   0.21253   0.84762   0.00000  Uiso   1.00
C613   C     0.97553   0.17067   0.81508   0.00000  Uiso   1.00
C614   C     0.52233   0.16886   0.81475   0.00000  Uiso   1.00
C615   C     0.95791   0.21575   0.84555   0.00000  Uiso   1.00
C616   C     0.75201   0.26642   0.84835   0.00000  Uiso   1.00
C617   C     0.54023   0.12323   0.78367   0.00000  Uiso   1.00
C618   C     0.96321   0.09113   0.73999   0.00000  Uiso   1.00
C619   C     0.53282   0.26135   0.86121   0.00000  Uiso   1.00
C620   C     0.50915   0.08387   0.74439   0.00000  Uiso   1.00
C621   C     0.98581   0.26271   0.85768   0.00000  Uiso   1.00
C622   C     0.74318   0.01157   0.81107   0.00000  Uiso   1.00
C623   C     0.75826   0.32191   0.85583   0.00000  Uiso   1.00
C624   C     0.66424   0.16519   0.83337   0.00000  Uiso   1.00
C625   C     0.83549   0.16745   0.83287   0.00000  Uiso   1.00
C626   C     0.91237   0.21293   0.85711   0.00000  Uiso   1.00
Cu627  Cu    0.75501   0.17246   0.89479   0.00000  Uiso   1.00
Cu628  Cu    0.74500   0.16087   0.77187   0.00000  Uiso   1.00
I629   I     0.92617   0.07231   0.98597   0.00000  Uiso   1.00
I630   I     0.57475   0.33254   0.86779   0.00000  Uiso   1.00
I631   I     0.52116   0.00868   0.69360   0.00000  Uiso   1.00
I632   I     0.95739   0.33046   0.84050   0.00000  Uiso   1.00
I633   I     0.70453   0.30663   0.72775   0.00000  Uiso   1.00
I634   I     0.79793   0.02689   0.93896   0.00000  Uiso   1.00
N635   N     0.73745   0.15214   0.67951   0.00000  Uiso   1.00
N636   N     0.76256   0.18119   0.98716   0.00000  Uiso   1.00
O637   O     0.75326   0.09538   0.87326   0.00000  Uiso   1.00
O638   O     0.74675   0.23796   0.79341   0.00000  Uiso   1.00
O639   O     0.74480   0.08559   0.76945   0.00000  Uiso   1.00
O640   O     0.75520   0.24774   0.89721   0.00000  Uiso   1.00
O641   O     0.68936   0.17155   0.88524   0.00000  Uiso   1.00
O642   O     0.81065   0.16179   0.78143   0.00000  Uiso   1.00
O643   O     0.68090   0.16176   0.78143   0.00000  Uiso   1.00
O644   O     0.81910   0.17157   0.88523   0.00000  Uiso   1.00
Br645  Br    0.39083   0.59761   0.91940   0.00000  Uiso   1.00
Br646  Br    0.11921   0.39974   0.74871   0.00000  Uiso   1.00
Br647  Br    0.36264   0.39373   0.76961   0.00000  Uiso   1.00
Br648  Br    0.12880   0.58337   0.93360   0.00000  Uiso   1.00
Br649  Br    0.19185   0.43634   0.96802   0.00000  Uiso   1.00
Br650  Br    0.30852   0.56332   0.69843   0.00000  Uiso   1.00
C651   C     0.24853   0.40032   0.81839   0.00000  Uiso   1.00
C652   C     0.08785   0.45540   0.79080   0.00000  Uiso   1.00
C653   C     0.38388   0.50131   0.83005   0.00000  Uiso   1.00
C654   C     0.11495   0.49647   0.83153   0.00000  Uiso   1.00
C655   C     0.40054   0.45886   0.79330   0.00000  Uiso   1.00
C656   C     0.09585   0.53975   0.86238   0.00000  Uiso   1.00
C657   C     0.44628   0.46144   0.78355   0.00000  Uiso   1.00
C658   C     0.05068   0.54586   0.84762   0.00000  Uiso   1.00
C659   C     0.47553   0.50400   0.81508   0.00000  Uiso   1.00
C660   C     0.02233   0.50219   0.81475   0.00000  Uiso   1.00
C661   C     0.45791   0.54908   0.84555   0.00000  Uiso   1.00
C662   C     0.25201   0.59975   0.84835   0.00000  Uiso   1.00
C663   C     0.04023   0.45656   0.78367   0.00000  Uiso   1.00
C664   C     0.46321   0.42447   0.73999   0.00000  Uiso   1.00
C665   C     0.03282   0.59469   0.86121   0.00000  Uiso   1.00
C666   C     0.00915   0.41721   0.74439   0.00000  Uiso   1.00
C667   C     0.48581   0.59604   0.85768   0.00000  Uiso   1.00
C668   C     0.24318   0.34491   0.81107   0.00000  Uiso   1.00
C669   C     0.25826   0.65525   0.85583   0.00000  Uiso   1.00
C670   C     0.16424   0.49852   0.83337   0.00000  Uiso   1.00
C671   C     0.33549   0.50078   0.83287   0.00000  Uiso   1.00
C672   C     0.41237   0.54626   0.85711   0.00000  Uiso   1.00
Cu673  Cu    0.25501   0.50579   0.89479   0.00000  Uiso   1.00
Cu674  Cu    0.24500   0.49421   0.77187   0.00000  Uiso   1.00
I675   I     0.42617   0.40564   0.98597   0.00000  Uiso   1.00
I676   I     0.07475   0.66587   0.86779   0.00000  Uiso   1.00
I677   I     0.02116   0.34201   0.69360   0.00000  Uiso   1.00
I678   I     0.45739   0.66379   0.84050   0.00000  Uiso   1.00
I679   I     0.20453   0.63996   0.72775   0.00000  Uiso   1.00
I680   I     0.29793   0.36022   0.93896   0.00000  Uiso   1.00
N681   N     0.23745   0.48547   0.67951   0.00000  Uiso   1.00
N682   N     0.26256   0.51453   0.98716   0.00000  Uiso   1.00
O683   O     0.25326   0.42871   0.87326   0.00000  Uiso   1.00
O684   O     0.24675   0.57129   0.79341   0.00000  Uiso   1.00
O685   O     0.24480   0.41892   0.76945   0.00000  Uiso   1.00
O686   O     0.25520   0.58108   0.89721   0.00000  Uiso   1.00
O687   O     0.18936   0.50488   0.88524   0.00000  Uiso   1.00
O688   O     0.31065   0.49512   0.78143   0.00000  Uiso   1.00
O689   O     0.18090   0.49510   0.78143   0.00000  Uiso   1.00
O690   O     0.31910   0.50490   0.88523   0.00000  Uiso   1.00
Br691  Br    0.89083   0.59761   0.91940   0.00000  Uiso   1.00
Br692  Br    0.61921   0.39974   0.74871   0.00000  Uiso   1.00
Br693  Br    0.86264   0.39373   0.76961   0.00000  Uiso   1.00
Br694  Br    0.62880   0.58337   0.93360   0.00000  Uiso   1.00
Br695  Br    0.69185   0.43634   0.96802   0.00000  Uiso   1.00
Br696  Br    0.80852   0.56332   0.69843   0.00000  Uiso   1.00
C697   C     0.74853   0.40032   0.81839   0.00000  Uiso   1.00
C698   C     0.58785   0.45540   0.79080   0.00000  Uiso   1.00
C699   C     0.88388   0.50131   0.83005   0.00000  Uiso   1.00
C700   C     0.61495   0.49647   0.83153   0.00000  Uiso   1.00
C701   C     0.90054   0.45886   0.79330   0.00000  Uiso   1.00
C702   C     0.59585   0.53975   0.86238   0.00000  Uiso   1.00
C703   C     0.94628   0.46144   0.78355   0.00000  Uiso   1.00
C704   C     0.55068   0.54586   0.84762   0.00000  Uiso   1.00
C705   C     0.97553   0.50400   0.81508   0.00000  Uiso   1.00
C706   C     0.52233   0.50219   0.81475   0.00000  Uiso   1.00
C707   C     0.95791   0.54908   0.84555   0.00000  Uiso   1.00
C708   C     0.75201   0.59975   0.84835   0.00000  Uiso   1.00
C709   C     0.54023   0.45656   0.78367   0.00000  Uiso   1.00
C710   C     0.96321   0.42447   0.73999   0.00000  Uiso   1.00
C711   C     0.53282   0.59469   0.86121   0.00000  Uiso   1.00
C712   C     0.50915   0.41721   0.74439   0.00000  Uiso   1.00
C713   C     0.98581   0.59604   0.85768   0.00000  Uiso   1.00
C714   C     0.74318   0.34491   0.81107   0.00000  Uiso   1.00
C715   C     0.75826   0.65525   0.85583   0.00000  Uiso   1.00
C716   C     0.66424   0.49852   0.83337   0.00000  Uiso   1.00
C717   C     0.83549   0.50078   0.83287   0.00000  Uiso   1.00
C718   C     0.91237   0.54626   0.85711   0.00000  Uiso   1.00
Cu719  Cu    0.75501   0.50579   0.89479   0.00000  Uiso   1.00
Cu720  Cu    0.74500   0.49421   0.77187   0.00000  Uiso   1.00
I721   I     0.92617   0.40564   0.98597   0.00000  Uiso   1.00
I722   I     0.57475   0.66587   0.86779   0.00000  Uiso   1.00
I723   I     0.52116   0.34201   0.69360   0.00000  Uiso   1.00
I724   I     0.95739   0.66379   0.84050   0.00000  Uiso   1.00
I725   I     0.70453   0.63996   0.72775   0.00000  Uiso   1.00
I726   I     0.79793   0.36022   0.93896   0.00000  Uiso   1.00
N727   N     0.73745   0.48547   0.67951   0.00000  Uiso   1.00
N728   N     0.76256   0.51453   0.98716   0.00000  Uiso   1.00
O729   O     0.75326   0.42871   0.87326   0.00000  Uiso   1.00
O730   O     0.74675   0.57129   0.79341   0.00000  Uiso   1.00
O731   O     0.74480   0.41892   0.76945   0.00000  Uiso   1.00
O732   O     0.75520   0.58108   0.89721   0.00000  Uiso   1.00
O733   O     0.68936   0.50488   0.88524   0.00000  Uiso   1.00
O734   O     0.81065   0.49512   0.78143   0.00000  Uiso   1.00
O735   O     0.68090   0.49510   0.78143   0.00000  Uiso   1.00
O736   O     0.81910   0.50490   0.88523   0.00000  Uiso   1.00
Br737  Br    0.39083   0.93095   0.91940   0.00000  Uiso   1.00
Br738  Br    0.11921   0.73307   0.74871   0.00000  Uiso   1.00
Br739  Br    0.36264   0.72707   0.76961   0.00000  Uiso   1.00
Br740  Br    0.12880   0.91671   0.93360   0.00000  Uiso   1.00
Br741  Br    0.19185   0.76967   0.96802   0.00000  Uiso   1.00
Br742  Br    0.30852   0.89666   0.69843   0.00000  Uiso   1.00
C743   C     0.24853   0.73365   0.81839   0.00000  Uiso   1.00
C744   C     0.08785   0.78873   0.79080   0.00000  Uiso   1.00
C745   C     0.38388   0.83465   0.83005   0.00000  Uiso   1.00
C746   C     0.11495   0.82980   0.83153   0.00000  Uiso   1.00
C747   C     0.40054   0.79219   0.79330   0.00000  Uiso   1.00
C748   C     0.09585   0.87309   0.86238   0.00000  Uiso   1.00
C749   C     0.44628   0.79477   0.78355   0.00000  Uiso   1.00
C750   C     0.05068   0.87920   0.84762   0.00000  Uiso   1.00
C751   C     0.47553   0.83733   0.81508   0.00000  Uiso   1.00
C752   C     0.02233   0.83552   0.81475   0.00000  Uiso   1.00
C753   C     0.45791   0.88241   0.84555   0.00000  Uiso   1.00
C754   C     0.25201   0.93308   0.84835   0.00000  Uiso   1.00
C755   C     0.04023   0.78990   0.78367   0.00000  Uiso   1.00
C756   C     0.46321   0.75780   0.73999   0.00000  Uiso   1.00
C757   C     0.03282   0.92802   0.86121   0.00000  Uiso   1.00
C758   C     0.00915   0.75054   0.74439   0.00000  Uiso   1.00
C759   C     0.48581   0.92937   0.85768   0.00000  Uiso   1.00
C760   C     0.24318   0.67824   0.81107   0.00000  Uiso   1.00
C761   C     0.25826   0.98858   0.85583   0.00000  Uiso   1.00
C762   C     0.16424   0.83186   0.83337   0.00000  Uiso   1.00
C763   C     0.33549   0.83412   0.83287   0.00000  Uiso   1.00
C764   C     0.41237   0.87959   0.85711   0.00000  Uiso   1.00
Cu765  Cu    0.25501   0.83913   0.89479   0.00000  Uiso   1.00
Cu766  Cu    0.24500   0.82754   0.77187   0.00000  Uiso   1.00
I767   I     0.42617   0.73898   0.98597   0.00000  Uiso   1.00
I768   I     0.07475   0.99921   0.86779   0.00000  Uiso   1.00
I769   I     0.02116   0.67535   0.69360   0.00000  Uiso   1.00
I770   I     0.45739   0.99713   0.84050   0.00000  Uiso   1.00
I771   I     0.20453   0.97330   0.72775   0.00000  Uiso   1.00
I772   I     0.29793   0.69355   0.93896   0.00000  Uiso   1.00
N773   N     0.23745   0.81881   0.67951   0.00000  Uiso   1.00
N774   N     0.26256   0.84786   0.98716   0.00000  Uiso   1.00
O775   O     0.25326   0.76204   0.87326   0.00000  Uiso   1.00
O776   O     0.24675   0.90462   0.79341   0.00000  Uiso   1.00
O777   O     0.24480   0.75226   0.76945   0.00000  Uiso   1.00
O778   O     0.25520   0.91441   0.89721   0.00000  Uiso   1.00
O779   O     0.18936   0.83821   0.88524   0.00000  Uiso   1.00
O780   O     0.31065   0.82845   0.78143   0.00000  Uiso   1.00
O781   O     0.18090   0.82843   0.78143   0.00000  Uiso   1.00
O782   O     0.31910   0.83824   0.88523   0.00000  Uiso   1.00
Br783  Br    0.89083   0.93095   0.91940   0.00000  Uiso   1.00
Br784  Br    0.61921   0.73307   0.74871   0.00000  Uiso   1.00
Br785  Br    0.86264   0.72707   0.76961   0.00000  Uiso   1.00
Br786  Br    0.62880   0.91671   0.93360   0.00000  Uiso   1.00
Br787  Br    0.69185   0.76967   0.96802   0.00000  Uiso   1.00
Br788  Br    0.80852   0.89666   0.69843   0.00000  Uiso   1.00
C789   C     0.74853   0.73365   0.81839   0.00000  Uiso   1.00
C790   C     0.58785   0.78873   0.79080   0.00000  Uiso   1.00
C791   C     0.88388   0.83465   0.83005   0.00000  Uiso   1.00
C792   C     0.61495   0.82980   0.83153   0.00000  Uiso   1.00
C793   C     0.90054   0.79219   0.79330   0.00000  Uiso   1.00
C794   C     0.59585   0.87309   0.86238   0.00000  Uiso   1.00
C795   C     0.94628   0.79477   0.78355   0.00000  Uiso   1.00
C796   C     0.55068   0.87920   0.84762   0.00000  Uiso   1.00
C797   C     0.97553   0.83733   0.81508   0.00000  Uiso   1.00
C798   C     0.52233   0.83552   0.81475   0.00000  Uiso   1.00
C799   C     0.95791   0.88241   0.84555   0.00000  Uiso   1.00
C800   C     0.75201   0.93308   0.84835   0.00000  Uiso   1.00
C801   C     0.54023   0.78990   0.78367   0.00000  Uiso   1.00
C802   C     0.96321   0.75780   0.73999   0.00000  Uiso   1.00
C803   C     0.53282   0.92802   0.86121   0.00000  Uiso   1.00
C804   C     0.50915   0.75054   0.74439   0.00000  Uiso   1.00
C805   C     0.98581   0.92937   0.85768   0.00000  Uiso   1.00
C806   C     0.74318   0.67824   0.81107   0.00000  Uiso   1.00
C807   C     0.75826   0.98858   0.85583   0.00000  Uiso   1.00
C808   C     0.66424   0.83186   0.83337   0.00000  Uiso   1.00
C809   C     0.83549   0.83412   0.83287   0.00000  Uiso   1.00
C810   C     0.91237   0.87959   0.85711   0.00000  Uiso   1.00
Cu811  Cu    0.75501   0.83913   0.89479   0.00000  Uiso   1.00
Cu812  Cu    0.74500   0.82754   0.77187   0.00000  Uiso   1.00
I813   I     0.92617   0.73898   0.98597   0.00000  Uiso   1.00
I814   I     0.57475   0.99921   0.86779   0.00000  Uiso   1.00
I815   I     0.52116   0.67535   0.69360   0.00000  Uiso   1.00
I816   I     0.95739   0.99713   0.84050   0.00000  Uiso   1.00
I817   I     0.70453   0.97330   0.72775   0.00000  Uiso   1.00
I818   I     0.79793   0.69355   0.93896   0.00000  Uiso   1.00
N819   N     0.73745   0.81881   0.67951   0.00000  Uiso   1.00
N820   N     0.76256   0.84786   0.98716   0.00000  Uiso   1.00
O821   O     0.75326   0.76204   0.87326   0.00000  Uiso   1.00
O822   O     0.74675   0.90462   0.79341   0.00000  Uiso   1.00
O823   O     0.74480   0.75226   0.76945   0.00000  Uiso   1.00
O824   O     0.75520   0.91441   0.89721   0.00000  Uiso   1.00
O825   O     0.68936   0.83821   0.88524   0.00000  Uiso   1.00
O826   O     0.81065   0.82845   0.78143   0.00000  Uiso   1.00
O827   O     0.68090   0.82843   0.78143   0.00000  Uiso   1.00
O828   O     0.81910   0.83824   0.88523   0.00000  Uiso   1.00
loop_
_geom_bond_atom_site_label_1
_geom_bond_atom_site_label_2
_geom_bond_distance
_geom_bond_site_symmetry_2
_ccdc_geom_bond_type
Br1    C28     1.929   .     S
Br2    C8      1.930   .     S
Br3    C11     1.939   .     S
Br4    C12     1.920   .     S
Br5    N313    1.880   .     S
Br6    N590    1.881   1_554 S
C7     O41     1.302   .     A
C7     C24     1.435   .     S
C7     O39     1.299   .     A
C8     C19     1.427   .     A
C8     C10     1.419   .     A
C9     C11     1.400   .     A
C9     C27     1.456   .     S
C9     C28     1.404   .     A
C10    C26     1.471   .     S
C10    C12     1.398   .     A
C11    C13     1.405   .     A
C12    C14     1.398   .     A
C13    C15     1.399   .     A
C13    C20     1.391   .     A
C14    C16     1.413   .     A
C14    C21     1.419   .     A
C15    C17     1.409   .     A
C15    C62     1.408   .     S
C16    C19     1.429   .     A
C16    C61     1.408   1_455 S
C17    C23     1.407   .     A
C17    C28     1.410   .     A
C18    C25     1.438   .     S
C18    O40     1.301   .     A
C18    O42     1.301   .     A
C19    C22     1.439   .     A
C20    C68     1.403   .     S
C20    I583    2.128   1_554 S
C21    I32     2.154   .     S
C21    C69     1.409   1_455 S
C22    I33     2.150   .     S
C22    C66     1.403   1_455 S
C23    I34     2.135   .     S
C23    C67     1.409   .     S
C24    C209    1.351   1_545 S
C24    I219    2.141   1_545 S
C25    C116    1.351   .     S
C25    I128    2.151   .     S
C26    O45     1.301   .     A
C26    O43     1.313   .     A
C27    O46     1.305   .     A
C27    O44     1.303   .     A
Cu29   N38     2.044   .     S
Cu29   O42     1.980   .     S
Cu29   O46     1.952   .     S
Cu29   O39     1.990   .     S
Cu29   O43     1.960   .     S
Cu29   Cu30    2.720   .     S
Cu30   O41     1.980   .     S
Cu30   O45     1.952   .     S
Cu30   O44     1.960   .     S
Cu30   O40     1.990   .     S
Cu30   N37     2.044   .     S
I31    C296    2.128   .     S
I35    C116    2.141   .     S
I36    C209    2.151   1_545 S
N37    Br557   1.880   1_554 S
N37    N590    1.290   1_554 S
N38    Br282   1.881   .     S
N38    N313    1.290   .     S
Br47   C74     1.929   .     S
Br48   C54     1.930   .     S
Br49   C57     1.939   .     S
Br50   C58     1.920   .     S
Br51   N359    1.880   .     S
Br52   N636    1.881   1_554 S
C53    O87     1.302   .     A
C53    C70     1.435   .     S
C53    O85     1.299   .     A
C54    C65     1.427   .     A
C54    C56     1.419   .     A
C55    C57     1.400   .     A
C55    C73     1.456   .     S
C55    C74     1.404   .     A
C56    C72     1.471   .     S
C56    C58     1.398   .     A
C57    C59     1.405   .     A
C58    C60     1.398   .     A
C59    C61     1.399   .     A
C59    C66     1.391   .     A
C60    C62     1.413   .     A
C60    C67     1.419   .     A
C61    C63     1.409   .     A
C61    C16     1.408   1_655 S
C62    C65     1.429   .     A
C63    C69     1.407   .     A
C63    C74     1.410   .     A
C64    C71     1.438   .     S
C64    O86     1.301   .     A
C64    O88     1.301   .     A
C65    C68     1.439   .     A
C66    C22     1.403   1_655 S
C66    I629    2.128   1_554 S
C67    I78     2.154   .     S
C68    I79     2.150   .     S
C69    I80     2.135   .     S
C69    C21     1.409   1_655 S
C70    C255    1.351   1_545 S
C70    I265    2.141   1_545 S
C71    C162    1.351   .     S
C71    I174    2.151   .     S
C72    O91     1.301   .     A
C72    O89     1.313   .     A
C73    O92     1.305   .     A
C73    O90     1.303   .     A
Cu75   N84     2.044   .     S
Cu75   O88     1.980   .     S
Cu75   O92     1.952   .     S
Cu75   O85     1.990   .     S
Cu75   O89     1.960   .     S
Cu75   Cu76    2.720   .     S
Cu76   O87     1.980   .     S
Cu76   O91     1.952   .     S
Cu76   O90     1.960   .     S
Cu76   O86     1.990   .     S
Cu76   N83     2.044   .     S
I77    C342    2.128   .     S
I81    C162    2.141   .     S
I82    C255    2.151   1_545 S
N83    Br603   1.880   1_554 S
N83    N636    1.290   1_554 S
N84    Br328   1.881   .     S
N84    N359    1.290   .     S
Br93   C120    1.929   .     S
Br94   C100    1.930   .     S
Br95   C103    1.939   .     S
Br96   C104    1.920   .     S
Br97   N405    1.880   .     S
Br98   N682    1.881   1_554 S
C99    O133    1.302   .     A
C99    C116    1.435   .     S
C99    O131    1.299   .     A
C100   C111    1.427   .     A
C100   C102    1.419   .     A
C101   C103    1.400   .     A
C101   C119    1.456   .     S
C101   C120    1.404   .     A
C102   C118    1.471   .     S
C102   C104    1.398   .     A
C103   C105    1.405   .     A
C104   C106    1.398   .     A
C105   C107    1.399   .     A
C105   C112    1.391   .     A
C106   C108    1.413   .     A
C106   C113    1.419   .     A
C107   C109    1.409   .     A
C107   C154    1.408   .     S
C108   C111    1.429   .     A
C108   C153    1.408   1_455 S
C109   C115    1.407   .     A
C109   C120    1.410   .     A
C110   C117    1.438   .     S
C110   O132    1.301   .     A
C110   O134    1.301   .     A
C111   C114    1.439   .     A
C112   C160    1.403   .     S
C112   I675    2.128   1_554 S
C113   I124    2.154   .     S
C113   C161    1.409   1_455 S
C114   I125    2.150   .     S
C114   C158    1.403   1_455 S
C115   I126    2.135   .     S
C115   C159    1.409   .     S
C117   C208    1.351   .     S
C117   I220    2.151   .     S
C118   O137    1.301   .     A
C118   O135    1.313   .     A
C119   O138    1.305   .     A
C119   O136    1.303   .     A
Cu121  N130    2.044   .     S
Cu121  O134    1.980   .     S
Cu121  O138    1.952   .     S
Cu121  O131    1.990   .     S
Cu121  O135    1.960   .     S
Cu121  Cu122   2.720   .     S
Cu122  O133    1.980   .     S
Cu122  O137    1.952   .     S
Cu122  O136    1.960   .     S
Cu122  O132    1.990   .     S
Cu122  N129    2.044   .     S
I123   C388    2.128   .     S
I127   C208    2.141   .     S
N129   Br649   1.880   1_554 S
N129   N682    1.290   1_554 S
N130   Br374   1.881   .     S
N130   N405    1.290   .     S
Br139  C166    1.929   .     S
Br140  C146    1.930   .     S
Br141  C149    1.939   .     S
Br142  C150    1.920   .     S
Br143  N451    1.880   .     S
Br144  N728    1.881   1_554 S
C145   O179    1.302   .     A
C145   C162    1.435   .     S
C145   O177    1.299   .     A
C146   C157    1.427   .     A
C146   C148    1.419   .     A
C147   C149    1.400   .     A
C147   C165    1.456   .     S
C147   C166    1.404   .     A
C148   C164    1.471   .     S
C148   C150    1.398   .     A
C149   C151    1.405   .     A
C150   C152    1.398   .     A
C151   C153    1.399   .     A
C151   C158    1.391   .     A
C152   C154    1.413   .     A
C152   C159    1.419   .     A
C153   C155    1.409   .     A
C153   C108    1.408   1_655 S
C154   C157    1.429   .     A
C155   C161    1.407   .     A
C155   C166    1.410   .     A
C156   C163    1.438   .     S
C156   O178    1.301   .     A
C156   O180    1.301   .     A
C157   C160    1.439   .     A
C158   C114    1.403   1_655 S
C158   I721    2.128   1_554 S
C159   I170    2.154   .     S
C160   I171    2.150   .     S
C161   I172    2.135   .     S
C161   C113    1.409   1_655 S
C163   C254    1.351   .     S
C163   I266    2.151   .     S
C164   O183    1.301   .     A
C164   O181    1.313   .     A
C165   O184    1.305   .     A
C165   O182    1.303   .     A
Cu167  N176    2.044   .     S
Cu167  O180    1.980   .     S
Cu167  O184    1.952   .     S
Cu167  O177    1.990   .     S
Cu167  O181    1.960   .     S
Cu167  Cu168   2.720   .     S
Cu168  O179    1.980   .     S
Cu168  O183    1.952   .     S
Cu168  O182    1.960   .     S
Cu168  O178    1.990   .     S
Cu168  N175    2.044   .     S
I169   C434    2.128   .     S
I173   C254    2.141   .     S
N175   Br695   1.880   1_554 S
N175   N728    1.290   1_554 S
N176   Br420   1.881   .     S
N176   N451    1.290   .     S
Br185  C212    1.929   .     S
Br186  C192    1.930   .     S
Br187  C195    1.939   .     S
Br188  C196    1.920   .     S
Br189  N497    1.880   .     S
Br190  N774    1.881   1_554 S
C191   O225    1.302   .     A
C191   C208    1.435   .     S
C191   O223    1.299   .     A
C192   C203    1.427   .     A
C192   C194    1.419   .     A
C193   C195    1.400   .     A
C193   C211    1.456   .     S
C193   C212    1.404   .     A
C194   C210    1.471   .     S
C194   C196    1.398   .     A
C195   C197    1.405   .     A
C196   C198    1.398   .     A
C197   C199    1.399   .     A
C197   C204    1.391   .     A
C198   C200    1.413   .     A
C198   C205    1.419   .     A
C199   C201    1.409   .     A
C199   C246    1.408   .     S
C200   C203    1.429   .     A
C200   C245    1.408   1_455 S
C201   C207    1.407   .     A
C201   C212    1.410   .     A
C202   C209    1.438   .     S
C202   O224    1.301   .     A
C202   O226    1.301   .     A
C203   C206    1.439   .     A
C204   C252    1.403   .     S
C204   I767    2.128   1_554 S
C205   I216    2.154   .     S
C205   C253    1.409   1_455 S
C206   I217    2.150   .     S
C206   C250    1.403   1_455 S
C207   I218    2.135   .     S
C207   C251    1.409   .     S
C209   C24     1.351   1_565 S
C209   I36     2.151   1_565 S
C210   O229    1.301   .     A
C210   O227    1.313   .     A
C211   O230    1.305   .     A
C211   O228    1.303   .     A
Cu213  N222    2.044   .     S
Cu213  O226    1.980   .     S
Cu213  O230    1.952   .     S
Cu213  O223    1.990   .     S
Cu213  O227    1.960   .     S
Cu213  Cu214   2.720   .     S
Cu214  O225    1.980   .     S
Cu214  O229    1.952   .     S
Cu214  O228    1.960   .     S
Cu214  O224    1.990   .     S
Cu214  N221    2.044   .     S
I215   C480    2.128   .     S
I219   C24     2.141   1_565 S
N221   Br741   1.880   1_554 S
N221   N774    1.290   1_554 S
N222   Br466   1.881   .     S
N222   N497    1.290   .     S
Br231  C258    1.929   .     S
Br232  C238    1.930   .     S
Br233  C241    1.939   .     S
Br234  C242    1.920   .     S
Br235  N543    1.880   .     S
Br236  N820    1.881   1_554 S
C237   O271    1.302   .     A
C237   C254    1.435   .     S
C237   O269    1.299   .     A
C238   C249    1.427   .     A
C238   C240    1.419   .     A
C239   C241    1.400   .     A
C239   C257    1.456   .     S
C239   C258    1.404   .     A
C240   C256    1.471   .     S
C240   C242    1.398   .     A
C241   C243    1.405   .     A
C242   C244    1.398   .     A
C243   C245    1.399   .     A
C243   C250    1.391   .     A
C244   C246    1.413   .     A
C244   C251    1.419   .     A
C245   C247    1.409   .     A
C245   C200    1.408   1_655 S
C246   C249    1.429   .     A
C247   C253    1.407   .     A
C247   C258    1.410   .     A
C248   C255    1.438   .     S
C248   O270    1.301   .     A
C248   O272    1.301   .     A
C249   C252    1.439   .     A
C250   C206    1.403   1_655 S
C250   I813    2.128   1_554 S
C251   I262    2.154   .     S
C252   I263    2.150   .     S
C253   I264    2.135   .     S
C253   C205    1.409   1_655 S
C255   C70     1.351   1_565 S
C255   I82     2.151   1_565 S
C256   O275    1.301   .     A
C256   O273    1.313   .     A
C257   O276    1.305   .     A
C257   O274    1.303   .     A
Cu259  N268    2.044   .     S
Cu259  O272    1.980   .     S
Cu259  O276    1.952   .     S
Cu259  O269    1.990   .     S
Cu259  O273    1.960   .     S
Cu259  Cu260   2.720   .     S
Cu260  O271    1.980   .     S
Cu260  O275    1.952   .     S
Cu260  O274    1.960   .     S
Cu260  O270    1.990   .     S
Cu260  N267    2.044   .     S
I261   C526    2.128   .     S
I265   C70     2.141   1_565 S
N267   Br787   1.880   1_554 S
N267   N820    1.290   1_554 S
N268   Br512   1.881   .     S
N268   N543    1.290   .     S
Br277  C304    1.929   .     S
Br278  C284    1.930   .     S
Br279  C287    1.939   .     S
Br280  C288    1.920   .     S
Br281  N589    1.880   .     S
C283   O317    1.302   .     A
C283   C300    1.435   .     S
C283   O315    1.299   .     A
C284   C295    1.427   .     A
C284   C286    1.419   .     A
C285   C287    1.400   .     A
C285   C303    1.456   .     S
C285   C304    1.404   .     A
C286   C302    1.471   .     S
C286   C288    1.398   .     A
C287   C289    1.405   .     A
C288   C290    1.398   .     A
C289   C291    1.399   .     A
C289   C296    1.391   .     A
C290   C292    1.413   .     A
C290   C297    1.419   .     A
C291   C293    1.409   .     A
C291   C338    1.408   .     S
C292   C295    1.429   .     A
C292   C337    1.408   1_455 S
C293   C299    1.407   .     A
C293   C304    1.410   .     A
C294   C301    1.438   .     S
C294   O316    1.301   .     A
C294   O318    1.301   .     A
C295   C298    1.439   .     A
C296   C344    1.403   .     S
C297   I308    2.154   .     S
C297   C345    1.409   1_455 S
C298   I309    2.150   .     S
C298   C342    1.403   1_455 S
C299   I310    2.135   .     S
C299   C343    1.409   .     S
C300   C485    1.351   1_545 S
C300   I495    2.141   1_545 S
C301   C392    1.351   .     S
C301   I404    2.151   .     S
C302   O321    1.301   .     A
C302   O319    1.313   .     A
C303   O322    1.305   .     A
C303   O320    1.303   .     A
Cu305  N314    2.044   .     S
Cu305  O318    1.980   .     S
Cu305  O322    1.952   .     S
Cu305  O315    1.990   .     S
Cu305  O319    1.960   .     S
Cu305  Cu306   2.720   .     S
Cu306  O317    1.980   .     S
Cu306  O321    1.952   .     S
Cu306  O320    1.960   .     S
Cu306  O316    1.990   .     S
Cu306  N313    2.044   .     S
I307   C572    2.128   .     S
I311   C392    2.141   .     S
I312   C485    2.151   1_545 S
N314   Br558   1.881   .     S
N314   N589    1.290   .     S
Br323  C350    1.929   .     S
Br324  C330    1.930   .     S
Br325  C333    1.939   .     S
Br326  C334    1.920   .     S
Br327  N635    1.880   .     S
C329   O363    1.302   .     A
C329   C346    1.435   .     S
C329   O361    1.299   .     A
C330   C341    1.427   .     A
C330   C332    1.419   .     A
C331   C333    1.400   .     A
C331   C349    1.456   .     S
C331   C350    1.404   .     A
C332   C348    1.471   .     S
C332   C334    1.398   .     A
C333   C335    1.405   .     A
C334   C336    1.398   .     A
C335   C337    1.399   .     A
C335   C342    1.391   .     A
C336   C338    1.413   .     A
C336   C343    1.419   .     A
C337   C339    1.409   .     A
C337   C292    1.408   1_655 S
C338   C341    1.429   .     A
C339   C345    1.407   .     A
C339   C350    1.410   .     A
C340   C347    1.438   .     S
C340   O362    1.301   .     A
C340   O364    1.301   .     A
C341   C344    1.439   .     A
C342   C298    1.403   1_655 S
C343   I354    2.154   .     S
C344   I355    2.150   .     S
C345   I356    2.135   .     S
C345   C297    1.409   1_655 S
C346   C531    1.351   1_545 S
C346   I541    2.141   1_545 S
C347   C438    1.351   .     S
C347   I450    2.151   .     S
C348   O367    1.301   .     A
C348   O365    1.313   .     A
C349   O368    1.305   .     A
C349   O366    1.303   .     A
Cu351  N360    2.044   .     S
Cu351  O364    1.980   .     S
Cu351  O368    1.952   .     S
Cu351  O361    1.990   .     S
Cu351  O365    1.960   .     S
Cu351  Cu352   2.720   .     S
Cu352  O363    1.980   .     S
Cu352  O367    1.952   .     S
Cu352  O366    1.960   .     S
Cu352  O362    1.990   .     S
Cu352  N359    2.044   .     S
I353   C618    2.128   .     S
I357   C438    2.141   .     S
I358   C531    2.151   1_545 S
N360   Br604   1.881   .     S
N360   N635    1.290   .     S
Br369  C396    1.929   .     S
Br370  C376    1.930   .     S
Br371  C379    1.939   .     S
Br372  C380    1.920   .     S
Br373  N681    1.880   .     S
C375   O409    1.302   .     A
C375   C392    1.435   .     S
C375   O407    1.299   .     A
C376   C387    1.427   .     A
C376   C378    1.419   .     A
C377   C379    1.400   .     A
C377   C395    1.456   .     S
C377   C396    1.404   .     A
C378   C394    1.471   .     S
C378   C380    1.398   .     A
C379   C381    1.405   .     A
C380   C382    1.398   .     A
C381   C383    1.399   .     A
C381   C388    1.391   .     A
C382   C384    1.413   .     A
C382   C389    1.419   .     A
C383   C385    1.409   .     A
C383   C430    1.408   .     S
C384   C387    1.429   .     A
C384   C429    1.408   1_455 S
C385   C391    1.407   .     A
C385   C396    1.410   .     A
C386   C393    1.438   .     S
C386   O408    1.301   .     A
C386   O410    1.301   .     A
C387   C390    1.439   .     A
C388   C436    1.403   .     S
C389   I400    2.154   .     S
C389   C437    1.409   1_455 S
C390   I401    2.150   .     S
C390   C434    1.403   1_455 S
C391   I402    2.135   .     S
C391   C435    1.409   .     S
C393   C484    1.351   .     S
C393   I496    2.151   .     S
C394   O413    1.301   .     A
C394   O411    1.313   .     A
C395   O414    1.305   .     A
C395   O412    1.303   .     A
Cu397  N406    2.044   .     S
Cu397  O410    1.980   .     S
Cu397  O414    1.952   .     S
Cu397  O407    1.990   .     S
Cu397  O411    1.960   .     S
Cu397  Cu398   2.720   .     S
Cu398  O409    1.980   .     S
Cu398  O413    1.952   .     S
Cu398  O412    1.960   .     S
Cu398  O408    1.990   .     S
Cu398  N405    2.044   .     S
I399   C664    2.128   .     S
I403   C484    2.141   .     S
N406   Br650   1.881   .     S
N406   N681    1.290   .     S
Br415  C442    1.929   .     S
Br416  C422    1.930   .     S
Br417  C425    1.939   .     S
Br418  C426    1.920   .     S
Br419  N727    1.880   .     S
C421   O455    1.302   .     A
C421   C438    1.435   .     S
C421   O453    1.299   .     A
C422   C433    1.427   .     A
C422   C424    1.419   .     A
C423   C425    1.400   .     A
C423   C441    1.456   .     S
C423   C442    1.404   .     A
C424   C440    1.471   .     S
C424   C426    1.398   .     A
C425   C427    1.405   .     A
C426   C428    1.398   .     A
C427   C429    1.399   .     A
C427   C434    1.391   .     A
C428   C430    1.413   .     A
C428   C435    1.419   .     A
C429   C431    1.409   .     A
C429   C384    1.408   1_655 S
C430   C433    1.429   .     A
C431   C437    1.407   .     A
C431   C442    1.410   .     A
C432   C439    1.438   .     S
C432   O454    1.301   .     A
C432   O456    1.301   .     A
C433   C436    1.439   .     A
C434   C390    1.403   1_655 S
C435   I446    2.154   .     S
C436   I447    2.150   .     S
C437   I448    2.135   .     S
C437   C389    1.409   1_655 S
C439   C530    1.351   .     S
C439   I542    2.151   .     S
C440   O459    1.301   .     A
C440   O457    1.313   .     A
C441   O460    1.305   .     A
C441   O458    1.303   .     A
Cu443  N452    2.044   .     S
Cu443  O456    1.980   .     S
Cu443  O460    1.952   .     S
Cu443  O453    1.990   .     S
Cu443  O457    1.960   .     S
Cu443  Cu444   2.720   .     S
Cu444  O455    1.980   .     S
Cu444  O459    1.952   .     S
Cu444  O458    1.960   .     S
Cu444  O454    1.990   .     S
Cu444  N451    2.044   .     S
I445   C710    2.128   .     S
I449   C530    2.141   .     S
N452   Br696   1.881   .     S
N452   N727    1.290   .     S
Br461  C488    1.929   .     S
Br462  C468    1.930   .     S
Br463  C471    1.939   .     S
Br464  C472    1.920   .     S
Br465  N773    1.880   .     S
C467   O501    1.302   .     A
C467   C484    1.435   .     S
C467   O499    1.299   .     A
C468   C479    1.427   .     A
C468   C470    1.419   .     A
C469   C471    1.400   .     A
C469   C487    1.456   .     S
C469   C488    1.404   .     A
C470   C486    1.471   .     S
C470   C472    1.398   .     A
C471   C473    1.405   .     A
C472   C474    1.398   .     A
C473   C475    1.399   .     A
C473   C480    1.391   .     A
C474   C476    1.413   .     A
C474   C481    1.419   .     A
C475   C477    1.409   .     A
C475   C522    1.408   .     S
C476   C479    1.429   .     A
C476   C521    1.408   1_455 S
C477   C483    1.407   .     A
C477   C488    1.410   .     A
C478   C485    1.438   .     S
C478   O500    1.301   .     A
C478   O502    1.301   .     A
C479   C482    1.439   .     A
C480   C528    1.403   .     S
C481   I492    2.154   .     S
C481   C529    1.409   1_455 S
C482   I493    2.150   .     S
C482   C526    1.403   1_455 S
C483   I494    2.135   .     S
C483   C527    1.409   .     S
C485   C300    1.351   1_565 S
C485   I312    2.151   1_565 S
C486   O505    1.301   .     A
C486   O503    1.313   .     A
C487   O506    1.305   .     A
C487   O504    1.303   .     A
Cu489  N498    2.044   .     S
Cu489  O502    1.980   .     S
Cu489  O506    1.952   .     S
Cu489  O499    1.990   .     S
Cu489  O503    1.960   .     S
Cu489  Cu490   2.720   .     S
Cu490  O501    1.980   .     S
Cu490  O505    1.952   .     S
Cu490  O504    1.960   .     S
Cu490  O500    1.990   .     S
Cu490  N497    2.044   .     S
I491   C756    2.128   .     S
I495   C300    2.141   1_565 S
N498   Br742   1.881   .     S
N498   N773    1.290   .     S
Br507  C534    1.929   .     S
Br508  C514    1.930   .     S
Br509  C517    1.939   .     S
Br510  C518    1.920   .     S
Br511  N819    1.880   .     S
C513   O547    1.302   .     A
C513   C530    1.435   .     S
C513   O545    1.299   .     A
C514   C525    1.427   .     A
C514   C516    1.419   .     A
C515   C517    1.400   .     A
C515   C533    1.456   .     S
C515   C534    1.404   .     A
C516   C532    1.471   .     S
C516   C518    1.398   .     A
C517   C519    1.405   .     A
C518   C520    1.398   .     A
C519   C521    1.399   .     A
C519   C526    1.391   .     A
C520   C522    1.413   .     A
C520   C527    1.419   .     A
C521   C523    1.409   .     A
C521   C476    1.408   1_655 S
C522   C525    1.429   .     A
C523   C529    1.407   .     A
C523   C534    1.410   .     A
C524   C531    1.438   .     S
C524   O546    1.301   .     A
C524   O548    1.301   .     A
C525   C528    1.439   .     A
C526   C482    1.403   1_655 S
C527   I538    2.154   .     S
C528   I539    2.150   .     S
C529   I540    2.135   .     S
C529   C481    1.409   1_655 S
C531   C346    1.351   1_565 S
C531   I358    2.151   1_565 S
C532   O551    1.301   .     A
C532   O549    1.313   .     A
C533   O552    1.305   .     A
C533   O550    1.303   .     A
Cu535  N544    2.044   .     S
Cu535  O548    1.980   .     S
Cu535  O552    1.952   .     S
Cu535  O545    1.990   .     S
Cu535  O549    1.960   .     S
Cu535  Cu536   2.720   .     S
Cu536  O547    1.980   .     S
Cu536  O551    1.952   .     S
Cu536  O550    1.960   .     S
Cu536  O546    1.990   .     S
Cu536  N543    2.044   .     S
I537   C802    2.128   .     S
I541   C346    2.141   1_565 S
N544   Br788   1.881   .     S
N544   N819    1.290   .     S
Br553  C580    1.929   .     S
Br554  C560    1.930   .     S
Br555  C563    1.939   .     S
Br556  C564    1.920   .     S
Br557  N37     1.880   1_556 S
C559   O593    1.302   .     A
C559   C576    1.435   .     S
C559   O591    1.299   .     A
C560   C571    1.427   .     A
C560   C562    1.419   .     A
C561   C563    1.400   .     A
C561   C579    1.456   .     S
C561   C580    1.404   .     A
C562   C578    1.471   .     S
C562   C564    1.398   .     A
C563   C565    1.405   .     A
C564   C566    1.398   .     A
C565   C567    1.399   .     A
C565   C572    1.391   .     A
C566   C568    1.413   .     A
C566   C573    1.419   .     A
C567   C569    1.409   .     A
C567   C614    1.408   .     S
C568   C571    1.429   .     A
C568   C613    1.408   1_455 S
C569   C575    1.407   .     A
C569   C580    1.410   .     A
C570   C577    1.438   .     S
C570   O592    1.301   .     A
C570   O594    1.301   .     A
C571   C574    1.439   .     A
C572   C620    1.403   .     S
C573   I584    2.154   .     S
C573   C621    1.409   1_455 S
C574   I585    2.150   .     S
C574   C618    1.403   1_455 S
C575   I586    2.135   .     S
C575   C619    1.409   .     S
C576   C761    1.351   1_545 S
C576   I771    2.141   1_545 S
C577   C668    1.351   .     S
C577   I680    2.151   .     S
C578   O597    1.301   .     A
C578   O595    1.313   .     A
C579   O598    1.305   .     A
C579   O596    1.303   .     A
Cu581  N590    2.044   .     S
Cu581  O594    1.980   .     S
Cu581  O598    1.952   .     S
Cu581  O591    1.990   .     S
Cu581  O595    1.960   .     S
Cu581  Cu582   2.720   .     S
Cu582  O593    1.980   .     S
Cu582  O597    1.952   .     S
Cu582  O596    1.960   .     S
Cu582  O592    1.990   .     S
Cu582  N589    2.044   .     S
I583   C20     2.128   1_556 S
I587   C668    2.141   .     S
I588   C761    2.151   1_545 S
N590   Br6     1.881   1_556 S
N590   N37     1.290   1_556 S
Br599  C626    1.929   .     S
Br600  C606    1.930   .     S
Br601  C609    1.939   .     S
Br602  C610    1.920   .     S
Br603  N83     1.880   1_556 S
C605   O639    1.302   .     A
C605   C622    1.435   .     S
C605   O637    1.299   .     A
C606   C617    1.427   .     A
C606   C608    1.419   .     A
C607   C609    1.400   .     A
C607   C625    1.456   .     S
C607   C626    1.404   .     A
C608   C624    1.471   .     S
C608   C610    1.398   .     A
C609   C611    1.405   .     A
C610   C612    1.398   .     A
C611   C613    1.399   .     A
C611   C618    1.391   .     A
C612   C614    1.413   .     A
C612   C619    1.419   .     A
C613   C615    1.409   .     A
C613   C568    1.408   1_655 S
C614   C617    1.429   .     A
C615   C621    1.407   .     A
C615   C626    1.410   .     A
C616   C623    1.438   .     S
C616   O638    1.301   .     A
C616   O640    1.301   .     A
C617   C620    1.439   .     A
C618   C574    1.403   1_655 S
C619   I630    2.154   .     S
C620   I631    2.150   .     S
C621   I632    2.135   .     S
C621   C573    1.409   1_655 S
C622   C807    1.351   1_545 S
C622   I817    2.141   1_545 S
C623   C714    1.351   .     S
C623   I726    2.151   .     S
C624   O643    1.301   .     A
C624   O641    1.313   .     A
C625   O644    1.305   .     A
C625   O642    1.303   .     A
Cu627  N636    2.044   .     S
Cu627  O640    1.980   .     S
Cu627  O644    1.952   .     S
Cu627  O637    1.990   .     S
Cu627  O641    1.960   .     S
Cu627  Cu628   2.720   .     S
Cu628  O639    1.980   .     S
Cu628  O643    1.952   .     S
Cu628  O642    1.960   .     S
Cu628  O638    1.990   .     S
Cu628  N635    2.044   .     S
I629   C66     2.128   1_556 S
I633   C714    2.141   .     S
I634   C807    2.151   1_545 S
N636   Br52    1.881   1_556 S
N636   N83     1.290   1_556 S
Br645  C672    1.929   .     S
Br646  C652    1.930   .     S
Br647  C655    1.939   .     S
Br648  C656    1.920   .     S
Br649  N129    1.880   1_556 S
C651   O685    1.302   .     A
C651   C668    1.435   .     S
C651   O683    1.299   .     A
C652   C663    1.427   .     A
C652   C654    1.419   .     A
C653   C655    1.400   .     A
C653   C671    1.456   .     S
C653   C672    1.404   .     A
C654   C670    1.471   .     S
C654   C656    1.398   .     A
C655   C657    1.405   .     A
C656   C658    1.398   .     A
C657   C659    1.399   .     A
C657   C664    1.391   .     A
C658   C660    1.413   .     A
C658   C665    1.419   .     A
C659   C661    1.409   .     A
C659   C706    1.408   .     S
C660   C663    1.429   .     A
C660   C705    1.408   1_455 S
C661   C667    1.407   .     A
C661   C672    1.410   .     A
C662   C669    1.438   .     S
C662   O684    1.301   .     A
C662   O686    1.301   .     A
C663   C666    1.439   .     A
C664   C712    1.403   .     S
C665   I676    2.154   .     S
C665   C713    1.409   1_455 S
C666   I677    2.150   .     S
C666   C710    1.403   1_455 S
C667   I678    2.135   .     S
C667   C711    1.409   .     S
C669   C760    1.351   .     S
C669   I772    2.151   .     S
C670   O689    1.301   .     A
C670   O687    1.313   .     A
C671   O690    1.305   .     A
C671   O688    1.303   .     A
Cu673  N682    2.044   .     S
Cu673  O686    1.980   .     S
Cu673  O690    1.952   .     S
Cu673  O683    1.990   .     S
Cu673  O687    1.960   .     S
Cu673  Cu674   2.720   .     S
Cu674  O685    1.980   .     S
Cu674  O689    1.952   .     S
Cu674  O688    1.960   .     S
Cu674  O684    1.990   .     S
Cu674  N681    2.044   .     S
I675   C112    2.128   1_556 S
I679   C760    2.141   .     S
N682   Br98    1.881   1_556 S
N682   N129    1.290   1_556 S
Br691  C718    1.929   .     S
Br692  C698    1.930   .     S
Br693  C701    1.939   .     S
Br694  C702    1.920   .     S
Br695  N175    1.880   1_556 S
C697   O731    1.302   .     A
C697   C714    1.435   .     S
C697   O729    1.299   .     A
C698   C709    1.427   .     A
C698   C700    1.419   .     A
C699   C701    1.400   .     A
C699   C717    1.456   .     S
C699   C718    1.404   .     A
C700   C716    1.471   .     S
C700   C702    1.398   .     A
C701   C703    1.405   .     A
C702   C704    1.398   .     A
C703   C705    1.399   .     A
C703   C710    1.391   .     A
C704   C706    1.413   .     A
C704   C711    1.419   .     A
C705   C707    1.409   .     A
C705   C660    1.408   1_655 S
C706   C709    1.429   .     A
C707   C713    1.407   .     A
C707   C718    1.410   .     A
C708   C715    1.438   .     S
C708   O730    1.301   .     A
C708   O732    1.301   .     A
C709   C712    1.439   .     A
C710   C666    1.403   1_655 S
C711   I722    2.154   .     S
C712   I723    2.150   .     S
C713   I724    2.135   .     S
C713   C665    1.409   1_655 S
C715   C806    1.351   .     S
C715   I818    2.151   .     S
C716   O735    1.301   .     A
C716   O733    1.313   .     A
C717   O736    1.305   .     A
C717   O734    1.303   .     A
Cu719  N728    2.044   .     S
Cu719  O732    1.980   .     S
Cu719  O736    1.952   .     S
Cu719  O729    1.990   .     S
Cu719  O733    1.960   .     S
Cu719  Cu720   2.720   .     S
Cu720  O731    1.980   .     S
Cu720  O735    1.952   .     S
Cu720  O734    1.960   .     S
Cu720  O730    1.990   .     S
Cu720  N727    2.044   .     S
I721   C158    2.128   1_556 S
I725   C806    2.141   .     S
N728   Br144   1.881   1_556 S
N728   N175    1.290   1_556 S
Br737  C764    1.929   .     S
Br738  C744    1.930   .     S
Br739  C747    1.939   .     S
Br740  C748    1.920   .     S
Br741  N221    1.880   1_556 S
C743   O777    1.302   .     A
C743   C760    1.435   .     S
C743   O775    1.299   .     A
C744   C755    1.427   .     A
C744   C746    1.419   .     A
C745   C747    1.400   .     A
C745   C763    1.456   .     S
C745   C764    1.404   .     A
C746   C762    1.471   .     S
C746   C748    1.398   .     A
C747   C749    1.405   .     A
C748   C750    1.398   .     A
C749   C751    1.399   .     A
C749   C756    1.391   .     A
C750   C752    1.413   .     A
C750   C757    1.419   .     A
C751   C753    1.409   .     A
C751   C798    1.408   .     S
C752   C755    1.429   .     A
C752   C797    1.408   1_455 S
C753   C759    1.407   .     A
C753   C764    1.410   .     A
C754   C761    1.438   .     S
C754   O776    1.301   .     A
C754   O778    1.301   .     A
C755   C758    1.439   .     A
C756   C804    1.403   .     S
C757   I768    2.154   .     S
C757   C805    1.409   1_455 S
C758   I769    2.150   .     S
C758   C802    1.403   1_455 S
C759   I770    2.135   .     S
C759   C803    1.409   .     S
C761   C576    1.351   1_565 S
C761   I588    2.151   1_565 S
C762   O781    1.301   .     A
C762   O779    1.313   .     A
C763   O782    1.305   .     A
C763   O780    1.303   .     A
Cu765  N774    2.044   .     S
Cu765  O778    1.980   .     S
Cu765  O782    1.952   .     S
Cu765  O775    1.990   .     S
Cu765  O779    1.960   .     S
Cu765  Cu766   2.720   .     S
Cu766  O777    1.980   .     S
Cu766  O781    1.952   .     S
Cu766  O780    1.960   .     S
Cu766  O776    1.990   .     S
Cu766  N773    2.044   .     S
I767   C204    2.128   1_556 S
I771   C576    2.141   1_565 S
N774   Br190   1.881   1_556 S
N774   N221    1.290   1_556 S
Br783  C810    1.929   .     S
Br784  C790    1.930   .     S
Br785  C793    1.939   .     S
Br786  C794    1.920   .     S
Br787  N267    1.880   1_556 S
C789   O823    1.302   .     A
C789   C806    1.435   .     S
C789   O821    1.299   .     A
C790   C801    1.427   .     A
C790   C792    1.419   .     A
C791   C793    1.400   .     A
C791   C809    1.456   .     S
C791   C810    1.404   .     A
C792   C808    1.471   .     S
C792   C794    1.398   .     A
C793   C795    1.405   .     A
C794   C796    1.398   .     A
C795   C797    1.399   .     A
C795   C802    1.391   .     A
C796   C798    1.413   .     A
C796   C803    1.419   .     A
C797   C799    1.409   .     A
C797   C752    1.408   1_655 S
C798   C801    1.429   .     A
C799   C805    1.407   .     A
C799   C810    1.410   .     A
C800   C807    1.438   .     S
C800   O822    1.301   .     A
C800   O824    1.301   .     A
C801   C804    1.439   .     A
C802   C758    1.403   1_655 S
C803   I814    2.154   .     S
C804   I815    2.150   .     S
C805   I816    2.135   .     S
C805   C757    1.409   1_655 S
C807   C622    1.351   1_565 S
C807   I634    2.151   1_565 S
C808   O827    1.301   .     A
C808   O825    1.313   .     A
C809   O828    1.305   .     A
C809   O826    1.303   .     A
Cu811  N820    2.044   .     S
Cu811  O824    1.980   .     S
Cu811  O828    1.952   .     S
Cu811  O821    1.990   .     S
Cu811  O825    1.960   .     S
Cu811  Cu812   2.720   .     S
Cu812  O823    1.980   .     S
Cu812  O827    1.952   .     S
Cu812  O826    1.960   .     S
Cu812  O822    1.990   .     S
Cu812  N819    2.044   .     S
I813   C250    2.128   1_556 S
I817   C622    2.141   1_565 S
N820   Br236   1.881   1_556 S
N820   N267    1.290   1_556 S
