data_str_m2_o1_o2_pcu_sym.5
_audit_creation_date              2020-01-03
_audit_creation_method            'Materials Studio'
_symmetry_space_group_name_H-M    'P1'
_symmetry_Int_Tables_number       1
_symmetry_cell_setting            triclinic
loop_
_symmetry_equiv_pos_as_xyz
  x,y,z
_cell_length_a                    32.3806
_cell_length_b                    28.9176
_cell_length_c                    30.3148
_cell_angle_alpha                 89.5378
_cell_angle_beta                  92.8564
_cell_angle_gamma                 89.5464
loop_
_atom_site_label
_atom_site_type_symbol
_atom_site_fract_x
_atom_site_fract_y
_atom_site_fract_z
_atom_site_U_iso_or_equiv
_atom_site_adp_type
_atom_site_occupancy
C1     C     0.08760   0.16685   0.25018   0.00000  Uiso   1.00
C2     C     0.31043   0.19095   0.21593   0.00000  Uiso   1.00
C3     C     0.31291   0.14150   0.28245   0.00000  Uiso   1.00
C4     C     0.02044   0.19191   0.21749   0.00000  Uiso   1.00
C5     C     0.13760   0.19341   0.04676   0.00000  Uiso   1.00
C6     C     0.16869   0.12585   0.45436   0.00000  Uiso   1.00
C7     C     0.15939   0.20882   0.45253   0.00000  Uiso   1.00
C8     C     0.19756   0.14264   0.04929   0.00000  Uiso   1.00
C9     C     0.13763   0.19306   0.09291   0.00000  Uiso   1.00
C10    C     0.16480   0.12440   0.40851   0.00000  Uiso   1.00
C11    C     0.15529   0.20843   0.40665   0.00000  Uiso   1.00
C12    C     0.24573   0.16649   0.24976   0.00000  Uiso   1.00
C13    C     0.19875   0.14226   0.09527   0.00000  Uiso   1.00
C14    C     0.16819   0.16741   0.11728   0.00000  Uiso   1.00
C15    C     0.16061   0.16626   0.38359   0.00000  Uiso   1.00
C16    C     0.16737   0.16826   0.02495   0.00000  Uiso   1.00
C17    C     0.16609   0.16780   0.47653   0.00000  Uiso   1.00
C18    C     0.29041   0.16601   0.24891   0.00000  Uiso   1.00
C19    C     0.04293   0.16740   0.25101   0.00000  Uiso   1.00
C20    C     0.16718   0.16683   0.16532   0.00000  Uiso   1.00
C21    C     0.16438   0.16650   0.33497   0.00000  Uiso   1.00
C22    C     0.14617   0.02491   0.21686   0.00000  Uiso   1.00
C23    C     0.18723   0.30842   0.28310   0.00000  Uiso   1.00
C24    C     0.18734   0.02395   0.28301   0.00000  Uiso   1.00
C25    C     0.14620   0.30937   0.21688   0.00000  Uiso   1.00
C26    C     0.02292   0.14262   0.28408   0.00000  Uiso   1.00
Cu27   Cu    0.16667   0.21355   0.25000   0.00000  Uiso   1.00
Cu28   Cu    0.16667   0.11978   0.25000   0.00000  Uiso   1.00
H29    H     0.11369   0.21234   0.02780   0.00000  Uiso   1.00
H30    H     0.13949   0.08029   0.36930   0.00000  Uiso   1.00
H31    H     0.12301   0.24327   0.36295   0.00000  Uiso   1.00
H32    H     0.23289   0.12636   0.14830   0.00000  Uiso   1.00
H33    H     0.07246   0.13333   0.32296   0.00000  Uiso   1.00
H34    H     0.26061   0.20163   0.17769   0.00000  Uiso   1.00
H35    H     0.31069   0.10184   0.33515   0.00000  Uiso   1.00
H36    H     0.02271   0.23133   0.16460   0.00000  Uiso   1.00
H37    H     0.17204   0.09368   0.47284   0.00000  Uiso   1.00
H38    H     0.15635   0.24139   0.46955   0.00000  Uiso   1.00
H39    H     0.22091   0.12350   0.03247   0.00000  Uiso   1.00
H40    H     0.11197   0.07494   0.19388   0.00000  Uiso   1.00
H41    H     0.22133   0.25829   0.30609   0.00000  Uiso   1.00
H42    H     0.22028   0.07402   0.30587   0.00000  Uiso   1.00
H43    H     0.11282   0.25981   0.19421   0.00000  Uiso   1.00
H44    H     0.08842   0.23232   0.09296   0.00000  Uiso   1.00
N45    N     0.16667   0.28402   0.25000   0.00000  Uiso   1.00
N46    N     0.16667   0.04931   0.25000   0.00000  Uiso   1.00
O47    O     0.10655   0.20625   0.24999   0.00000  Uiso   1.00
O48    O     0.20923   0.28677   0.31742   0.00000  Uiso   1.00
O49    O     0.20998   0.04455   0.31688   0.00000  Uiso   1.00
O50    O     0.12406   0.28865   0.18276   0.00000  Uiso   1.00
O51    O     0.10741   0.21623   0.11482   0.00000  Uiso   1.00
O52    O     0.16449   0.08140   0.38950   0.00000  Uiso   1.00
O53    O     0.14511   0.24975   0.38582   0.00000  Uiso   1.00
O54    O     0.23055   0.11760   0.11685   0.00000  Uiso   1.00
O55    O     0.04447   0.12014   0.31866   0.00000  Uiso   1.00
O56    O     0.28896   0.21386   0.18155   0.00000  Uiso   1.00
O57    O     0.29136   0.11861   0.31426   0.00000  Uiso   1.00
O58    O     0.22679   0.12709   0.25000   0.00000  Uiso   1.00
O59    O     0.04201   0.21483   0.18572   0.00000  Uiso   1.00
O60    O     0.22679   0.20625   0.25000   0.00000  Uiso   1.00
O61    O     0.10655   0.12709   0.24999   0.00000  Uiso   1.00
O62    O     0.16666   0.20626   0.18573   0.00000  Uiso   1.00
O63    O     0.16667   0.12707   0.31427   0.00000  Uiso   1.00
O64    O     0.16667   0.20626   0.31427   0.00000  Uiso   1.00
O65    O     0.16666   0.12707   0.18573   0.00000  Uiso   1.00
O66    O     0.12426   0.04657   0.18249   0.00000  Uiso   1.00
C67    C     0.42093   0.16685   0.25018   0.00000  Uiso   1.00
C68    C     0.64377   0.19095   0.21593   0.00000  Uiso   1.00
C69    C     0.64625   0.14150   0.28245   0.00000  Uiso   1.00
C70    C     0.35377   0.19191   0.21749   0.00000  Uiso   1.00
C71    C     0.47094   0.19341   0.04676   0.00000  Uiso   1.00
C72    C     0.50203   0.12585   0.45436   0.00000  Uiso   1.00
C73    C     0.49273   0.20882   0.45253   0.00000  Uiso   1.00
C74    C     0.53089   0.14264   0.04929   0.00000  Uiso   1.00
C75    C     0.47096   0.19306   0.09291   0.00000  Uiso   1.00
C76    C     0.49813   0.12440   0.40851   0.00000  Uiso   1.00
C77    C     0.48862   0.20843   0.40665   0.00000  Uiso   1.00
C78    C     0.57907   0.16649   0.24976   0.00000  Uiso   1.00
C79    C     0.53209   0.14226   0.09527   0.00000  Uiso   1.00
C80    C     0.50152   0.16741   0.11728   0.00000  Uiso   1.00
C81    C     0.49394   0.16626   0.38359   0.00000  Uiso   1.00
C82    C     0.50070   0.16826   0.02495   0.00000  Uiso   1.00
C83    C     0.49943   0.16780   0.47653   0.00000  Uiso   1.00
C84    C     0.62374   0.16601   0.24891   0.00000  Uiso   1.00
C85    C     0.37626   0.16740   0.25101   0.00000  Uiso   1.00
C86    C     0.50052   0.16683   0.16532   0.00000  Uiso   1.00
C87    C     0.49771   0.16650   0.33497   0.00000  Uiso   1.00
C88    C     0.47950   0.02491   0.21686   0.00000  Uiso   1.00
C89    C     0.52056   0.30842   0.28310   0.00000  Uiso   1.00
C90    C     0.52068   0.02395   0.28301   0.00000  Uiso   1.00
C91    C     0.47953   0.30937   0.21688   0.00000  Uiso   1.00
C92    C     0.35625   0.14262   0.28408   0.00000  Uiso   1.00
Cu93   Cu    0.50000   0.21355   0.25000   0.00000  Uiso   1.00
Cu94   Cu    0.50000   0.11978   0.25000   0.00000  Uiso   1.00
H95    H     0.44702   0.21234   0.02780   0.00000  Uiso   1.00
H96    H     0.47282   0.08029   0.36930   0.00000  Uiso   1.00
H97    H     0.45634   0.24327   0.36295   0.00000  Uiso   1.00
H98    H     0.56622   0.12636   0.14830   0.00000  Uiso   1.00
H99    H     0.40579   0.13333   0.32296   0.00000  Uiso   1.00
H100   H     0.59394   0.20163   0.17769   0.00000  Uiso   1.00
H101   H     0.64403   0.10184   0.33515   0.00000  Uiso   1.00
H102   H     0.35604   0.23133   0.16460   0.00000  Uiso   1.00
H103   H     0.50537   0.09368   0.47284   0.00000  Uiso   1.00
H104   H     0.48969   0.24139   0.46955   0.00000  Uiso   1.00
H105   H     0.55424   0.12350   0.03247   0.00000  Uiso   1.00
H106   H     0.44530   0.07494   0.19388   0.00000  Uiso   1.00
H107   H     0.55466   0.25829   0.30609   0.00000  Uiso   1.00
H108   H     0.55361   0.07402   0.30587   0.00000  Uiso   1.00
H109   H     0.44615   0.25981   0.19421   0.00000  Uiso   1.00
H110   H     0.42176   0.23232   0.09296   0.00000  Uiso   1.00
N111   N     0.50000   0.28402   0.25000   0.00000  Uiso   1.00
N112   N     0.50000   0.04931   0.25000   0.00000  Uiso   1.00
O113   O     0.43988   0.20625   0.24999   0.00000  Uiso   1.00
O114   O     0.54256   0.28677   0.31742   0.00000  Uiso   1.00
O115   O     0.54332   0.04455   0.31688   0.00000  Uiso   1.00
O116   O     0.45740   0.28865   0.18276   0.00000  Uiso   1.00
O117   O     0.44074   0.21623   0.11482   0.00000  Uiso   1.00
O118   O     0.49783   0.08140   0.38950   0.00000  Uiso   1.00
O119   O     0.47845   0.24975   0.38582   0.00000  Uiso   1.00
O120   O     0.56388   0.11760   0.11685   0.00000  Uiso   1.00
O121   O     0.37781   0.12014   0.31866   0.00000  Uiso   1.00
O122   O     0.62229   0.21386   0.18155   0.00000  Uiso   1.00
O123   O     0.62470   0.11861   0.31426   0.00000  Uiso   1.00
O124   O     0.56012   0.12709   0.25000   0.00000  Uiso   1.00
O125   O     0.37534   0.21483   0.18572   0.00000  Uiso   1.00
O126   O     0.56012   0.20625   0.25000   0.00000  Uiso   1.00
O127   O     0.43988   0.12709   0.24999   0.00000  Uiso   1.00
O128   O     0.50000   0.20626   0.18573   0.00000  Uiso   1.00
O129   O     0.50000   0.12707   0.31427   0.00000  Uiso   1.00
O130   O     0.50000   0.20626   0.31427   0.00000  Uiso   1.00
O131   O     0.50000   0.12707   0.18573   0.00000  Uiso   1.00
O132   O     0.45759   0.04657   0.18249   0.00000  Uiso   1.00
C133   C     0.75427   0.16685   0.25018   0.00000  Uiso   1.00
C134   C     0.97710   0.19095   0.21593   0.00000  Uiso   1.00
C135   C     0.97958   0.14150   0.28245   0.00000  Uiso   1.00
C136   C     0.68711   0.19191   0.21749   0.00000  Uiso   1.00
C137   C     0.80427   0.19341   0.04676   0.00000  Uiso   1.00
C138   C     0.83536   0.12585   0.45436   0.00000  Uiso   1.00
C139   C     0.82606   0.20882   0.45253   0.00000  Uiso   1.00
C140   C     0.86422   0.14264   0.04929   0.00000  Uiso   1.00
C141   C     0.80430   0.19306   0.09291   0.00000  Uiso   1.00
C142   C     0.83147   0.12440   0.40851   0.00000  Uiso   1.00
C143   C     0.82196   0.20843   0.40665   0.00000  Uiso   1.00
C144   C     0.91240   0.16649   0.24976   0.00000  Uiso   1.00
C145   C     0.86542   0.14226   0.09527   0.00000  Uiso   1.00
C146   C     0.83486   0.16741   0.11728   0.00000  Uiso   1.00
C147   C     0.82727   0.16626   0.38359   0.00000  Uiso   1.00
C148   C     0.83404   0.16826   0.02495   0.00000  Uiso   1.00
C149   C     0.83276   0.16780   0.47653   0.00000  Uiso   1.00
C150   C     0.95707   0.16601   0.24891   0.00000  Uiso   1.00
C151   C     0.70960   0.16740   0.25101   0.00000  Uiso   1.00
C152   C     0.83385   0.16683   0.16532   0.00000  Uiso   1.00
C153   C     0.83104   0.16650   0.33497   0.00000  Uiso   1.00
C154   C     0.81284   0.02491   0.21686   0.00000  Uiso   1.00
C155   C     0.85390   0.30842   0.28310   0.00000  Uiso   1.00
C156   C     0.85401   0.02395   0.28301   0.00000  Uiso   1.00
C157   C     0.81286   0.30937   0.21688   0.00000  Uiso   1.00
C158   C     0.68959   0.14262   0.28408   0.00000  Uiso   1.00
Cu159  Cu    0.83333   0.21355   0.25000   0.00000  Uiso   1.00
Cu160  Cu    0.83333   0.11978   0.25000   0.00000  Uiso   1.00
H161   H     0.78035   0.21234   0.02780   0.00000  Uiso   1.00
H162   H     0.80616   0.08029   0.36930   0.00000  Uiso   1.00
H163   H     0.78968   0.24327   0.36295   0.00000  Uiso   1.00
H164   H     0.89956   0.12636   0.14830   0.00000  Uiso   1.00
H165   H     0.73913   0.13333   0.32296   0.00000  Uiso   1.00
H166   H     0.92727   0.20163   0.17769   0.00000  Uiso   1.00
H167   H     0.97736   0.10184   0.33515   0.00000  Uiso   1.00
H168   H     0.68938   0.23133   0.16460   0.00000  Uiso   1.00
H169   H     0.83870   0.09368   0.47284   0.00000  Uiso   1.00
H170   H     0.82302   0.24139   0.46955   0.00000  Uiso   1.00
H171   H     0.88758   0.12350   0.03247   0.00000  Uiso   1.00
H172   H     0.77863   0.07494   0.19388   0.00000  Uiso   1.00
H173   H     0.88800   0.25829   0.30609   0.00000  Uiso   1.00
H174   H     0.88694   0.07402   0.30587   0.00000  Uiso   1.00
H175   H     0.77948   0.25981   0.19421   0.00000  Uiso   1.00
H176   H     0.75509   0.23232   0.09296   0.00000  Uiso   1.00
N177   N     0.83333   0.28402   0.25000   0.00000  Uiso   1.00
N178   N     0.83333   0.04931   0.25000   0.00000  Uiso   1.00
O179   O     0.77321   0.20625   0.24999   0.00000  Uiso   1.00
O180   O     0.87589   0.28677   0.31742   0.00000  Uiso   1.00
O181   O     0.87665   0.04455   0.31688   0.00000  Uiso   1.00
O182   O     0.79073   0.28865   0.18276   0.00000  Uiso   1.00
O183   O     0.77408   0.21623   0.11482   0.00000  Uiso   1.00
O184   O     0.83116   0.08140   0.38950   0.00000  Uiso   1.00
O185   O     0.81178   0.24975   0.38582   0.00000  Uiso   1.00
O186   O     0.89721   0.11760   0.11685   0.00000  Uiso   1.00
O187   O     0.71114   0.12014   0.31866   0.00000  Uiso   1.00
O188   O     0.95563   0.21386   0.18155   0.00000  Uiso   1.00
O189   O     0.95803   0.11861   0.31426   0.00000  Uiso   1.00
O190   O     0.89345   0.12709   0.25000   0.00000  Uiso   1.00
O191   O     0.70868   0.21483   0.18572   0.00000  Uiso   1.00
O192   O     0.89345   0.20625   0.25000   0.00000  Uiso   1.00
O193   O     0.77321   0.12709   0.24999   0.00000  Uiso   1.00
O194   O     0.83333   0.20626   0.18573   0.00000  Uiso   1.00
O195   O     0.83334   0.12707   0.31427   0.00000  Uiso   1.00
O196   O     0.83334   0.20626   0.31427   0.00000  Uiso   1.00
O197   O     0.83333   0.12707   0.18573   0.00000  Uiso   1.00
O198   O     0.79092   0.04657   0.18249   0.00000  Uiso   1.00
C199   C     0.08760   0.50019   0.25018   0.00000  Uiso   1.00
C200   C     0.31043   0.52428   0.21593   0.00000  Uiso   1.00
C201   C     0.31291   0.47483   0.28245   0.00000  Uiso   1.00
C202   C     0.02044   0.52525   0.21749   0.00000  Uiso   1.00
C203   C     0.13760   0.52674   0.04676   0.00000  Uiso   1.00
C204   C     0.16869   0.45919   0.45436   0.00000  Uiso   1.00
C205   C     0.15939   0.54215   0.45253   0.00000  Uiso   1.00
C206   C     0.19756   0.47597   0.04929   0.00000  Uiso   1.00
C207   C     0.13763   0.52639   0.09291   0.00000  Uiso   1.00
C208   C     0.16480   0.45773   0.40851   0.00000  Uiso   1.00
C209   C     0.15529   0.54177   0.40665   0.00000  Uiso   1.00
C210   C     0.24573   0.49982   0.24976   0.00000  Uiso   1.00
C211   C     0.19875   0.47560   0.09527   0.00000  Uiso   1.00
C212   C     0.16819   0.50074   0.11728   0.00000  Uiso   1.00
C213   C     0.16061   0.49959   0.38359   0.00000  Uiso   1.00
C214   C     0.16737   0.50159   0.02495   0.00000  Uiso   1.00
C215   C     0.16609   0.50113   0.47653   0.00000  Uiso   1.00
C216   C     0.29041   0.49934   0.24891   0.00000  Uiso   1.00
C217   C     0.04293   0.50073   0.25101   0.00000  Uiso   1.00
C218   C     0.16718   0.50017   0.16532   0.00000  Uiso   1.00
C219   C     0.16438   0.49983   0.33497   0.00000  Uiso   1.00
C220   C     0.14617   0.35824   0.21686   0.00000  Uiso   1.00
C221   C     0.18723   0.64176   0.28310   0.00000  Uiso   1.00
C222   C     0.18734   0.35728   0.28301   0.00000  Uiso   1.00
C223   C     0.14620   0.64271   0.21688   0.00000  Uiso   1.00
C224   C     0.02292   0.47595   0.28408   0.00000  Uiso   1.00
Cu225  Cu    0.16667   0.54689   0.25000   0.00000  Uiso   1.00
Cu226  Cu    0.16667   0.45311   0.25000   0.00000  Uiso   1.00
H227   H     0.11369   0.54568   0.02780   0.00000  Uiso   1.00
H228   H     0.13949   0.41363   0.36930   0.00000  Uiso   1.00
H229   H     0.12301   0.57661   0.36295   0.00000  Uiso   1.00
H230   H     0.23289   0.45969   0.14830   0.00000  Uiso   1.00
H231   H     0.07246   0.46666   0.32296   0.00000  Uiso   1.00
H232   H     0.26061   0.53496   0.17769   0.00000  Uiso   1.00
H233   H     0.31069   0.43518   0.33515   0.00000  Uiso   1.00
H234   H     0.02271   0.56466   0.16460   0.00000  Uiso   1.00
H235   H     0.17204   0.42702   0.47284   0.00000  Uiso   1.00
H236   H     0.15635   0.57472   0.46955   0.00000  Uiso   1.00
H237   H     0.22091   0.45683   0.03247   0.00000  Uiso   1.00
H238   H     0.11197   0.40827   0.19388   0.00000  Uiso   1.00
H239   H     0.22133   0.59162   0.30609   0.00000  Uiso   1.00
H240   H     0.22028   0.40736   0.30587   0.00000  Uiso   1.00
H241   H     0.11282   0.59315   0.19421   0.00000  Uiso   1.00
H242   H     0.08842   0.56565   0.09296   0.00000  Uiso   1.00
N243   N     0.16667   0.61736   0.25000   0.00000  Uiso   1.00
N244   N     0.16667   0.38264   0.25000   0.00000  Uiso   1.00
O245   O     0.10655   0.53958   0.24999   0.00000  Uiso   1.00
O246   O     0.20923   0.62010   0.31742   0.00000  Uiso   1.00
O247   O     0.20998   0.37788   0.31688   0.00000  Uiso   1.00
O248   O     0.12406   0.62199   0.18276   0.00000  Uiso   1.00
O249   O     0.10741   0.54956   0.11482   0.00000  Uiso   1.00
O250   O     0.16449   0.41473   0.38950   0.00000  Uiso   1.00
O251   O     0.14511   0.58308   0.38582   0.00000  Uiso   1.00
O252   O     0.23055   0.45093   0.11685   0.00000  Uiso   1.00
O253   O     0.04447   0.45347   0.31866   0.00000  Uiso   1.00
O254   O     0.28896   0.54720   0.18155   0.00000  Uiso   1.00
O255   O     0.29136   0.45195   0.31426   0.00000  Uiso   1.00
O256   O     0.22679   0.46042   0.25000   0.00000  Uiso   1.00
O257   O     0.04201   0.54817   0.18572   0.00000  Uiso   1.00
O258   O     0.22679   0.53958   0.25000   0.00000  Uiso   1.00
O259   O     0.10655   0.46042   0.24999   0.00000  Uiso   1.00
O260   O     0.16666   0.53959   0.18573   0.00000  Uiso   1.00
O261   O     0.16667   0.46041   0.31427   0.00000  Uiso   1.00
O262   O     0.16667   0.53959   0.31427   0.00000  Uiso   1.00
O263   O     0.16666   0.46041   0.18573   0.00000  Uiso   1.00
O264   O     0.12426   0.37991   0.18249   0.00000  Uiso   1.00
C265   C     0.42093   0.50019   0.25018   0.00000  Uiso   1.00
C266   C     0.64377   0.52428   0.21593   0.00000  Uiso   1.00
C267   C     0.64625   0.47483   0.28245   0.00000  Uiso   1.00
C268   C     0.35377   0.52525   0.21749   0.00000  Uiso   1.00
C269   C     0.47094   0.52674   0.04676   0.00000  Uiso   1.00
C270   C     0.50203   0.45919   0.45436   0.00000  Uiso   1.00
C271   C     0.49273   0.54215   0.45253   0.00000  Uiso   1.00
C272   C     0.53089   0.47597   0.04929   0.00000  Uiso   1.00
C273   C     0.47096   0.52639   0.09291   0.00000  Uiso   1.00
C274   C     0.49813   0.45773   0.40851   0.00000  Uiso   1.00
C275   C     0.48862   0.54177   0.40665   0.00000  Uiso   1.00
C276   C     0.57907   0.49982   0.24976   0.00000  Uiso   1.00
C277   C     0.53209   0.47560   0.09527   0.00000  Uiso   1.00
C278   C     0.50152   0.50074   0.11728   0.00000  Uiso   1.00
C279   C     0.49394   0.49959   0.38359   0.00000  Uiso   1.00
C280   C     0.50070   0.50159   0.02495   0.00000  Uiso   1.00
C281   C     0.49943   0.50113   0.47653   0.00000  Uiso   1.00
C282   C     0.62374   0.49934   0.24891   0.00000  Uiso   1.00
C283   C     0.37626   0.50073   0.25101   0.00000  Uiso   1.00
C284   C     0.50052   0.50017   0.16532   0.00000  Uiso   1.00
C285   C     0.49771   0.49983   0.33497   0.00000  Uiso   1.00
C286   C     0.47950   0.35824   0.21686   0.00000  Uiso   1.00
C287   C     0.52056   0.64176   0.28310   0.00000  Uiso   1.00
C288   C     0.52068   0.35728   0.28301   0.00000  Uiso   1.00
C289   C     0.47953   0.64271   0.21688   0.00000  Uiso   1.00
C290   C     0.35625   0.47595   0.28408   0.00000  Uiso   1.00
Cu291  Cu    0.50000   0.54689   0.25000   0.00000  Uiso   1.00
Cu292  Cu    0.50000   0.45311   0.25000   0.00000  Uiso   1.00
H293   H     0.44702   0.54568   0.02780   0.00000  Uiso   1.00
H294   H     0.47282   0.41363   0.36930   0.00000  Uiso   1.00
H295   H     0.45634   0.57661   0.36295   0.00000  Uiso   1.00
H296   H     0.56622   0.45969   0.14830   0.00000  Uiso   1.00
H297   H     0.40579   0.46666   0.32296   0.00000  Uiso   1.00
H298   H     0.59394   0.53496   0.17769   0.00000  Uiso   1.00
H299   H     0.64403   0.43518   0.33515   0.00000  Uiso   1.00
H300   H     0.35604   0.56466   0.16460   0.00000  Uiso   1.00
H301   H     0.50537   0.42702   0.47284   0.00000  Uiso   1.00
H302   H     0.48969   0.57472   0.46955   0.00000  Uiso   1.00
H303   H     0.55424   0.45683   0.03247   0.00000  Uiso   1.00
H304   H     0.44530   0.40827   0.19388   0.00000  Uiso   1.00
H305   H     0.55466   0.59162   0.30609   0.00000  Uiso   1.00
H306   H     0.55361   0.40736   0.30587   0.00000  Uiso   1.00
H307   H     0.44615   0.59315   0.19421   0.00000  Uiso   1.00
H308   H     0.42176   0.56565   0.09296   0.00000  Uiso   1.00
N309   N     0.50000   0.61736   0.25000   0.00000  Uiso   1.00
N310   N     0.50000   0.38264   0.25000   0.00000  Uiso   1.00
O311   O     0.43988   0.53958   0.24999   0.00000  Uiso   1.00
O312   O     0.54256   0.62010   0.31742   0.00000  Uiso   1.00
O313   O     0.54332   0.37788   0.31688   0.00000  Uiso   1.00
O314   O     0.45740   0.62199   0.18276   0.00000  Uiso   1.00
O315   O     0.44074   0.54956   0.11482   0.00000  Uiso   1.00
O316   O     0.49783   0.41473   0.38950   0.00000  Uiso   1.00
O317   O     0.47845   0.58308   0.38582   0.00000  Uiso   1.00
O318   O     0.56388   0.45093   0.11685   0.00000  Uiso   1.00
O319   O     0.37781   0.45347   0.31866   0.00000  Uiso   1.00
O320   O     0.62229   0.54720   0.18155   0.00000  Uiso   1.00
O321   O     0.62470   0.45195   0.31426   0.00000  Uiso   1.00
O322   O     0.56012   0.46042   0.25000   0.00000  Uiso   1.00
O323   O     0.37534   0.54817   0.18572   0.00000  Uiso   1.00
O324   O     0.56012   0.53958   0.25000   0.00000  Uiso   1.00
O325   O     0.43988   0.46042   0.24999   0.00000  Uiso   1.00
O326   O     0.50000   0.53959   0.18573   0.00000  Uiso   1.00
O327   O     0.50000   0.46041   0.31427   0.00000  Uiso   1.00
O328   O     0.50000   0.53959   0.31427   0.00000  Uiso   1.00
O329   O     0.50000   0.46041   0.18573   0.00000  Uiso   1.00
O330   O     0.45759   0.37991   0.18249   0.00000  Uiso   1.00
C331   C     0.75427   0.50019   0.25018   0.00000  Uiso   1.00
C332   C     0.97710   0.52428   0.21593   0.00000  Uiso   1.00
C333   C     0.97958   0.47483   0.28245   0.00000  Uiso   1.00
C334   C     0.68711   0.52525   0.21749   0.00000  Uiso   1.00
C335   C     0.80427   0.52674   0.04676   0.00000  Uiso   1.00
C336   C     0.83536   0.45919   0.45436   0.00000  Uiso   1.00
C337   C     0.82606   0.54215   0.45253   0.00000  Uiso   1.00
C338   C     0.86422   0.47597   0.04929   0.00000  Uiso   1.00
C339   C     0.80430   0.52639   0.09291   0.00000  Uiso   1.00
C340   C     0.83147   0.45773   0.40851   0.00000  Uiso   1.00
C341   C     0.82196   0.54177   0.40665   0.00000  Uiso   1.00
C342   C     0.91240   0.49982   0.24976   0.00000  Uiso   1.00
C343   C     0.86542   0.47560   0.09527   0.00000  Uiso   1.00
C344   C     0.83486   0.50074   0.11728   0.00000  Uiso   1.00
C345   C     0.82727   0.49959   0.38359   0.00000  Uiso   1.00
C346   C     0.83404   0.50159   0.02495   0.00000  Uiso   1.00
C347   C     0.83276   0.50113   0.47653   0.00000  Uiso   1.00
C348   C     0.95707   0.49934   0.24891   0.00000  Uiso   1.00
C349   C     0.70960   0.50073   0.25101   0.00000  Uiso   1.00
C350   C     0.83385   0.50017   0.16532   0.00000  Uiso   1.00
C351   C     0.83104   0.49983   0.33497   0.00000  Uiso   1.00
C352   C     0.81284   0.35824   0.21686   0.00000  Uiso   1.00
C353   C     0.85390   0.64176   0.28310   0.00000  Uiso   1.00
C354   C     0.85401   0.35728   0.28301   0.00000  Uiso   1.00
C355   C     0.81286   0.64271   0.21688   0.00000  Uiso   1.00
C356   C     0.68959   0.47595   0.28408   0.00000  Uiso   1.00
Cu357  Cu    0.83333   0.54689   0.25000   0.00000  Uiso   1.00
Cu358  Cu    0.83333   0.45311   0.25000   0.00000  Uiso   1.00
H359   H     0.78035   0.54568   0.02780   0.00000  Uiso   1.00
H360   H     0.80616   0.41363   0.36930   0.00000  Uiso   1.00
H361   H     0.78968   0.57661   0.36295   0.00000  Uiso   1.00
H362   H     0.89956   0.45969   0.14830   0.00000  Uiso   1.00
H363   H     0.73913   0.46666   0.32296   0.00000  Uiso   1.00
H364   H     0.92727   0.53496   0.17769   0.00000  Uiso   1.00
H365   H     0.97736   0.43518   0.33515   0.00000  Uiso   1.00
H366   H     0.68938   0.56466   0.16460   0.00000  Uiso   1.00
H367   H     0.83870   0.42702   0.47284   0.00000  Uiso   1.00
H368   H     0.82302   0.57472   0.46955   0.00000  Uiso   1.00
H369   H     0.88758   0.45683   0.03247   0.00000  Uiso   1.00
H370   H     0.77863   0.40827   0.19388   0.00000  Uiso   1.00
H371   H     0.88800   0.59162   0.30609   0.00000  Uiso   1.00
H372   H     0.88694   0.40736   0.30587   0.00000  Uiso   1.00
H373   H     0.77948   0.59315   0.19421   0.00000  Uiso   1.00
H374   H     0.75509   0.56565   0.09296   0.00000  Uiso   1.00
N375   N     0.83333   0.61736   0.25000   0.00000  Uiso   1.00
N376   N     0.83333   0.38264   0.25000   0.00000  Uiso   1.00
O377   O     0.77321   0.53958   0.24999   0.00000  Uiso   1.00
O378   O     0.87589   0.62010   0.31742   0.00000  Uiso   1.00
O379   O     0.87665   0.37788   0.31688   0.00000  Uiso   1.00
O380   O     0.79073   0.62199   0.18276   0.00000  Uiso   1.00
O381   O     0.77408   0.54956   0.11482   0.00000  Uiso   1.00
O382   O     0.83116   0.41473   0.38950   0.00000  Uiso   1.00
O383   O     0.81178   0.58308   0.38582   0.00000  Uiso   1.00
O384   O     0.89721   0.45093   0.11685   0.00000  Uiso   1.00
O385   O     0.71114   0.45347   0.31866   0.00000  Uiso   1.00
O386   O     0.95563   0.54720   0.18155   0.00000  Uiso   1.00
O387   O     0.95803   0.45195   0.31426   0.00000  Uiso   1.00
O388   O     0.89345   0.46042   0.25000   0.00000  Uiso   1.00
O389   O     0.70868   0.54817   0.18572   0.00000  Uiso   1.00
O390   O     0.89345   0.53958   0.25000   0.00000  Uiso   1.00
O391   O     0.77321   0.46042   0.24999   0.00000  Uiso   1.00
O392   O     0.83333   0.53959   0.18573   0.00000  Uiso   1.00
O393   O     0.83334   0.46041   0.31427   0.00000  Uiso   1.00
O394   O     0.83334   0.53959   0.31427   0.00000  Uiso   1.00
O395   O     0.83333   0.46041   0.18573   0.00000  Uiso   1.00
O396   O     0.79092   0.37991   0.18249   0.00000  Uiso   1.00
C397   C     0.08760   0.83352   0.25018   0.00000  Uiso   1.00
C398   C     0.31043   0.85762   0.21593   0.00000  Uiso   1.00
C399   C     0.31291   0.80816   0.28245   0.00000  Uiso   1.00
C400   C     0.02044   0.85858   0.21749   0.00000  Uiso   1.00
C401   C     0.13760   0.86007   0.04676   0.00000  Uiso   1.00
C402   C     0.16869   0.79252   0.45436   0.00000  Uiso   1.00
C403   C     0.15939   0.87549   0.45253   0.00000  Uiso   1.00
C404   C     0.19756   0.80930   0.04929   0.00000  Uiso   1.00
C405   C     0.13763   0.85973   0.09291   0.00000  Uiso   1.00
C406   C     0.16480   0.79106   0.40851   0.00000  Uiso   1.00
C407   C     0.15529   0.87510   0.40665   0.00000  Uiso   1.00
C408   C     0.24573   0.83316   0.24976   0.00000  Uiso   1.00
C409   C     0.19875   0.80893   0.09527   0.00000  Uiso   1.00
C410   C     0.16819   0.83408   0.11728   0.00000  Uiso   1.00
C411   C     0.16061   0.83293   0.38359   0.00000  Uiso   1.00
C412   C     0.16737   0.83492   0.02495   0.00000  Uiso   1.00
C413   C     0.16609   0.83446   0.47653   0.00000  Uiso   1.00
C414   C     0.29041   0.83267   0.24891   0.00000  Uiso   1.00
C415   C     0.04293   0.83406   0.25101   0.00000  Uiso   1.00
C416   C     0.16718   0.83350   0.16532   0.00000  Uiso   1.00
C417   C     0.16438   0.83317   0.33497   0.00000  Uiso   1.00
C418   C     0.14617   0.69157   0.21686   0.00000  Uiso   1.00
C419   C     0.18723   0.97509   0.28310   0.00000  Uiso   1.00
C420   C     0.18734   0.69062   0.28301   0.00000  Uiso   1.00
C421   C     0.14620   0.97604   0.21688   0.00000  Uiso   1.00
C422   C     0.02292   0.80928   0.28408   0.00000  Uiso   1.00
Cu423  Cu    0.16667   0.88022   0.25000   0.00000  Uiso   1.00
Cu424  Cu    0.16667   0.78645   0.25000   0.00000  Uiso   1.00
H425   H     0.11369   0.87901   0.02780   0.00000  Uiso   1.00
H426   H     0.13949   0.74696   0.36930   0.00000  Uiso   1.00
H427   H     0.12301   0.90994   0.36295   0.00000  Uiso   1.00
H428   H     0.23289   0.79303   0.14830   0.00000  Uiso   1.00
H429   H     0.07246   0.80000   0.32296   0.00000  Uiso   1.00
H430   H     0.26061   0.86829   0.17769   0.00000  Uiso   1.00
H431   H     0.31069   0.76851   0.33515   0.00000  Uiso   1.00
H432   H     0.02271   0.89800   0.16460   0.00000  Uiso   1.00
H433   H     0.17204   0.76035   0.47284   0.00000  Uiso   1.00
H434   H     0.15635   0.90806   0.46955   0.00000  Uiso   1.00
H435   H     0.22091   0.79016   0.03247   0.00000  Uiso   1.00
H436   H     0.11197   0.74160   0.19388   0.00000  Uiso   1.00
H437   H     0.22133   0.92495   0.30609   0.00000  Uiso   1.00
H438   H     0.22028   0.74069   0.30587   0.00000  Uiso   1.00
H439   H     0.11282   0.92648   0.19421   0.00000  Uiso   1.00
H440   H     0.08842   0.89898   0.09296   0.00000  Uiso   1.00
N441   N     0.16667   0.95069   0.25000   0.00000  Uiso   1.00
N442   N     0.16667   0.71598   0.25000   0.00000  Uiso   1.00
O443   O     0.10655   0.87291   0.24999   0.00000  Uiso   1.00
O444   O     0.20923   0.95344   0.31742   0.00000  Uiso   1.00
O445   O     0.20998   0.71122   0.31688   0.00000  Uiso   1.00
O446   O     0.12406   0.95532   0.18276   0.00000  Uiso   1.00
O447   O     0.10741   0.88290   0.11482   0.00000  Uiso   1.00
O448   O     0.16449   0.74806   0.38950   0.00000  Uiso   1.00
O449   O     0.14511   0.91641   0.38582   0.00000  Uiso   1.00
O450   O     0.23055   0.78426   0.11685   0.00000  Uiso   1.00
O451   O     0.04447   0.78681   0.31866   0.00000  Uiso   1.00
O452   O     0.28896   0.88053   0.18155   0.00000  Uiso   1.00
O453   O     0.29136   0.78528   0.31426   0.00000  Uiso   1.00
O454   O     0.22679   0.79375   0.25000   0.00000  Uiso   1.00
O455   O     0.04201   0.88150   0.18572   0.00000  Uiso   1.00
O456   O     0.22679   0.87291   0.25000   0.00000  Uiso   1.00
O457   O     0.10655   0.79375   0.24999   0.00000  Uiso   1.00
O458   O     0.16666   0.87293   0.18573   0.00000  Uiso   1.00
O459   O     0.16667   0.79374   0.31427   0.00000  Uiso   1.00
O460   O     0.16667   0.87293   0.31427   0.00000  Uiso   1.00
O461   O     0.16666   0.79374   0.18573   0.00000  Uiso   1.00
O462   O     0.12426   0.71324   0.18249   0.00000  Uiso   1.00
C463   C     0.42093   0.83352   0.25018   0.00000  Uiso   1.00
C464   C     0.64377   0.85762   0.21593   0.00000  Uiso   1.00
C465   C     0.64625   0.80816   0.28245   0.00000  Uiso   1.00
C466   C     0.35377   0.85858   0.21749   0.00000  Uiso   1.00
C467   C     0.47094   0.86007   0.04676   0.00000  Uiso   1.00
C468   C     0.50203   0.79252   0.45436   0.00000  Uiso   1.00
C469   C     0.49273   0.87549   0.45253   0.00000  Uiso   1.00
C470   C     0.53089   0.80930   0.04929   0.00000  Uiso   1.00
C471   C     0.47096   0.85973   0.09291   0.00000  Uiso   1.00
C472   C     0.49813   0.79106   0.40851   0.00000  Uiso   1.00
C473   C     0.48862   0.87510   0.40665   0.00000  Uiso   1.00
C474   C     0.57907   0.83316   0.24976   0.00000  Uiso   1.00
C475   C     0.53209   0.80893   0.09527   0.00000  Uiso   1.00
C476   C     0.50152   0.83408   0.11728   0.00000  Uiso   1.00
C477   C     0.49394   0.83293   0.38359   0.00000  Uiso   1.00
C478   C     0.50070   0.83492   0.02495   0.00000  Uiso   1.00
C479   C     0.49943   0.83446   0.47653   0.00000  Uiso   1.00
C480   C     0.62374   0.83267   0.24891   0.00000  Uiso   1.00
C481   C     0.37626   0.83406   0.25101   0.00000  Uiso   1.00
C482   C     0.50052   0.83350   0.16532   0.00000  Uiso   1.00
C483   C     0.49771   0.83317   0.33497   0.00000  Uiso   1.00
C484   C     0.47950   0.69157   0.21686   0.00000  Uiso   1.00
C485   C     0.52056   0.97509   0.28310   0.00000  Uiso   1.00
C486   C     0.52068   0.69062   0.28301   0.00000  Uiso   1.00
C487   C     0.47953   0.97604   0.21688   0.00000  Uiso   1.00
C488   C     0.35625   0.80928   0.28408   0.00000  Uiso   1.00
Cu489  Cu    0.50000   0.88022   0.25000   0.00000  Uiso   1.00
Cu490  Cu    0.50000   0.78645   0.25000   0.00000  Uiso   1.00
H491   H     0.44702   0.87901   0.02780   0.00000  Uiso   1.00
H492   H     0.47282   0.74696   0.36930   0.00000  Uiso   1.00
H493   H     0.45634   0.90994   0.36295   0.00000  Uiso   1.00
H494   H     0.56622   0.79303   0.14830   0.00000  Uiso   1.00
H495   H     0.40579   0.80000   0.32296   0.00000  Uiso   1.00
H496   H     0.59394   0.86829   0.17769   0.00000  Uiso   1.00
H497   H     0.64403   0.76851   0.33515   0.00000  Uiso   1.00
H498   H     0.35604   0.89800   0.16460   0.00000  Uiso   1.00
H499   H     0.50537   0.76035   0.47284   0.00000  Uiso   1.00
H500   H     0.48969   0.90806   0.46955   0.00000  Uiso   1.00
H501   H     0.55424   0.79016   0.03247   0.00000  Uiso   1.00
H502   H     0.44530   0.74160   0.19388   0.00000  Uiso   1.00
H503   H     0.55466   0.92495   0.30609   0.00000  Uiso   1.00
H504   H     0.55361   0.74069   0.30587   0.00000  Uiso   1.00
H505   H     0.44615   0.92648   0.19421   0.00000  Uiso   1.00
H506   H     0.42176   0.89898   0.09296   0.00000  Uiso   1.00
N507   N     0.50000   0.95069   0.25000   0.00000  Uiso   1.00
N508   N     0.50000   0.71598   0.25000   0.00000  Uiso   1.00
O509   O     0.43988   0.87291   0.24999   0.00000  Uiso   1.00
O510   O     0.54256   0.95344   0.31742   0.00000  Uiso   1.00
O511   O     0.54332   0.71122   0.31688   0.00000  Uiso   1.00
O512   O     0.45740   0.95532   0.18276   0.00000  Uiso   1.00
O513   O     0.44074   0.88290   0.11482   0.00000  Uiso   1.00
O514   O     0.49783   0.74806   0.38950   0.00000  Uiso   1.00
O515   O     0.47845   0.91641   0.38582   0.00000  Uiso   1.00
O516   O     0.56388   0.78426   0.11685   0.00000  Uiso   1.00
O517   O     0.37781   0.78681   0.31866   0.00000  Uiso   1.00
O518   O     0.62229   0.88053   0.18155   0.00000  Uiso   1.00
O519   O     0.62470   0.78528   0.31426   0.00000  Uiso   1.00
O520   O     0.56012   0.79375   0.25000   0.00000  Uiso   1.00
O521   O     0.37534   0.88150   0.18572   0.00000  Uiso   1.00
O522   O     0.56012   0.87291   0.25000   0.00000  Uiso   1.00
O523   O     0.43988   0.79375   0.24999   0.00000  Uiso   1.00
O524   O     0.50000   0.87293   0.18573   0.00000  Uiso   1.00
O525   O     0.50000   0.79374   0.31427   0.00000  Uiso   1.00
O526   O     0.50000   0.87293   0.31427   0.00000  Uiso   1.00
O527   O     0.50000   0.79374   0.18573   0.00000  Uiso   1.00
O528   O     0.45759   0.71324   0.18249   0.00000  Uiso   1.00
C529   C     0.75427   0.83352   0.25018   0.00000  Uiso   1.00
C530   C     0.97710   0.85762   0.21593   0.00000  Uiso   1.00
C531   C     0.97958   0.80816   0.28245   0.00000  Uiso   1.00
C532   C     0.68711   0.85858   0.21749   0.00000  Uiso   1.00
C533   C     0.80427   0.86007   0.04676   0.00000  Uiso   1.00
C534   C     0.83536   0.79252   0.45436   0.00000  Uiso   1.00
C535   C     0.82606   0.87549   0.45253   0.00000  Uiso   1.00
C536   C     0.86422   0.80930   0.04929   0.00000  Uiso   1.00
C537   C     0.80430   0.85973   0.09291   0.00000  Uiso   1.00
C538   C     0.83147   0.79106   0.40851   0.00000  Uiso   1.00
C539   C     0.82196   0.87510   0.40665   0.00000  Uiso   1.00
C540   C     0.91240   0.83316   0.24976   0.00000  Uiso   1.00
C541   C     0.86542   0.80893   0.09527   0.00000  Uiso   1.00
C542   C     0.83486   0.83408   0.11728   0.00000  Uiso   1.00
C543   C     0.82727   0.83293   0.38359   0.00000  Uiso   1.00
C544   C     0.83404   0.83492   0.02495   0.00000  Uiso   1.00
C545   C     0.83276   0.83446   0.47653   0.00000  Uiso   1.00
C546   C     0.95707   0.83267   0.24891   0.00000  Uiso   1.00
C547   C     0.70960   0.83406   0.25101   0.00000  Uiso   1.00
C548   C     0.83385   0.83350   0.16532   0.00000  Uiso   1.00
C549   C     0.83104   0.83317   0.33497   0.00000  Uiso   1.00
C550   C     0.81284   0.69157   0.21686   0.00000  Uiso   1.00
C551   C     0.85390   0.97509   0.28310   0.00000  Uiso   1.00
C552   C     0.85401   0.69062   0.28301   0.00000  Uiso   1.00
C553   C     0.81286   0.97604   0.21688   0.00000  Uiso   1.00
C554   C     0.68959   0.80928   0.28408   0.00000  Uiso   1.00
Cu555  Cu    0.83333   0.88022   0.25000   0.00000  Uiso   1.00
Cu556  Cu    0.83333   0.78645   0.25000   0.00000  Uiso   1.00
H557   H     0.78035   0.87901   0.02780   0.00000  Uiso   1.00
H558   H     0.80616   0.74696   0.36930   0.00000  Uiso   1.00
H559   H     0.78968   0.90994   0.36295   0.00000  Uiso   1.00
H560   H     0.89956   0.79303   0.14830   0.00000  Uiso   1.00
H561   H     0.73913   0.80000   0.32296   0.00000  Uiso   1.00
H562   H     0.92727   0.86829   0.17769   0.00000  Uiso   1.00
H563   H     0.97736   0.76851   0.33515   0.00000  Uiso   1.00
H564   H     0.68938   0.89800   0.16460   0.00000  Uiso   1.00
H565   H     0.83870   0.76035   0.47284   0.00000  Uiso   1.00
H566   H     0.82302   0.90806   0.46955   0.00000  Uiso   1.00
H567   H     0.88758   0.79016   0.03247   0.00000  Uiso   1.00
H568   H     0.77863   0.74160   0.19388   0.00000  Uiso   1.00
H569   H     0.88800   0.92495   0.30609   0.00000  Uiso   1.00
H570   H     0.88694   0.74069   0.30587   0.00000  Uiso   1.00
H571   H     0.77948   0.92648   0.19421   0.00000  Uiso   1.00
H572   H     0.75509   0.89898   0.09296   0.00000  Uiso   1.00
N573   N     0.83333   0.95069   0.25000   0.00000  Uiso   1.00
N574   N     0.83333   0.71598   0.25000   0.00000  Uiso   1.00
O575   O     0.77321   0.87291   0.24999   0.00000  Uiso   1.00
O576   O     0.87589   0.95344   0.31742   0.00000  Uiso   1.00
O577   O     0.87665   0.71122   0.31688   0.00000  Uiso   1.00
O578   O     0.79073   0.95532   0.18276   0.00000  Uiso   1.00
O579   O     0.77408   0.88290   0.11482   0.00000  Uiso   1.00
O580   O     0.83116   0.74806   0.38950   0.00000  Uiso   1.00
O581   O     0.81178   0.91641   0.38582   0.00000  Uiso   1.00
O582   O     0.89721   0.78426   0.11685   0.00000  Uiso   1.00
O583   O     0.71114   0.78681   0.31866   0.00000  Uiso   1.00
O584   O     0.95563   0.88053   0.18155   0.00000  Uiso   1.00
O585   O     0.95803   0.78528   0.31426   0.00000  Uiso   1.00
O586   O     0.89345   0.79375   0.25000   0.00000  Uiso   1.00
O587   O     0.70868   0.88150   0.18572   0.00000  Uiso   1.00
O588   O     0.89345   0.87291   0.25000   0.00000  Uiso   1.00
O589   O     0.77321   0.79375   0.24999   0.00000  Uiso   1.00
O590   O     0.83333   0.87293   0.18573   0.00000  Uiso   1.00
O591   O     0.83334   0.79374   0.31427   0.00000  Uiso   1.00
O592   O     0.83334   0.87293   0.31427   0.00000  Uiso   1.00
O593   O     0.83333   0.79374   0.18573   0.00000  Uiso   1.00
O594   O     0.79092   0.71324   0.18249   0.00000  Uiso   1.00
C595   C     0.08760   0.16685   0.75018   0.00000  Uiso   1.00
C596   C     0.31043   0.19095   0.71593   0.00000  Uiso   1.00
C597   C     0.31291   0.14150   0.78245   0.00000  Uiso   1.00
C598   C     0.02044   0.19191   0.71749   0.00000  Uiso   1.00
C599   C     0.13760   0.19341   0.54676   0.00000  Uiso   1.00
C600   C     0.16869   0.12585   0.95436   0.00000  Uiso   1.00
C601   C     0.15939   0.20882   0.95253   0.00000  Uiso   1.00
C602   C     0.19756   0.14264   0.54929   0.00000  Uiso   1.00
C603   C     0.13763   0.19306   0.59291   0.00000  Uiso   1.00
C604   C     0.16480   0.12440   0.90851   0.00000  Uiso   1.00
C605   C     0.15529   0.20843   0.90665   0.00000  Uiso   1.00
C606   C     0.24573   0.16649   0.74976   0.00000  Uiso   1.00
C607   C     0.19875   0.14226   0.59527   0.00000  Uiso   1.00
C608   C     0.16819   0.16741   0.61728   0.00000  Uiso   1.00
C609   C     0.16061   0.16626   0.88359   0.00000  Uiso   1.00
C610   C     0.16737   0.16826   0.52495   0.00000  Uiso   1.00
C611   C     0.16609   0.16780   0.97653   0.00000  Uiso   1.00
C612   C     0.29041   0.16601   0.74891   0.00000  Uiso   1.00
C613   C     0.04293   0.16740   0.75101   0.00000  Uiso   1.00
C614   C     0.16718   0.16683   0.66532   0.00000  Uiso   1.00
C615   C     0.16438   0.16650   0.83497   0.00000  Uiso   1.00
C616   C     0.14617   0.02491   0.71686   0.00000  Uiso   1.00
C617   C     0.18723   0.30842   0.78310   0.00000  Uiso   1.00
C618   C     0.18734   0.02395   0.78301   0.00000  Uiso   1.00
C619   C     0.14620   0.30937   0.71688   0.00000  Uiso   1.00
C620   C     0.02292   0.14262   0.78408   0.00000  Uiso   1.00
Cu621  Cu    0.16667   0.21355   0.75000   0.00000  Uiso   1.00
Cu622  Cu    0.16667   0.11978   0.75000   0.00000  Uiso   1.00
H623   H     0.11369   0.21234   0.52780   0.00000  Uiso   1.00
H624   H     0.13949   0.08029   0.86930   0.00000  Uiso   1.00
H625   H     0.12301   0.24327   0.86295   0.00000  Uiso   1.00
H626   H     0.23289   0.12636   0.64830   0.00000  Uiso   1.00
H627   H     0.07246   0.13333   0.82296   0.00000  Uiso   1.00
H628   H     0.26061   0.20163   0.67769   0.00000  Uiso   1.00
H629   H     0.31069   0.10184   0.83515   0.00000  Uiso   1.00
H630   H     0.02271   0.23133   0.66460   0.00000  Uiso   1.00
H631   H     0.17204   0.09368   0.97284   0.00000  Uiso   1.00
H632   H     0.15635   0.24139   0.96955   0.00000  Uiso   1.00
H633   H     0.22091   0.12350   0.53247   0.00000  Uiso   1.00
H634   H     0.11197   0.07494   0.69388   0.00000  Uiso   1.00
H635   H     0.22133   0.25829   0.80609   0.00000  Uiso   1.00
H636   H     0.22028   0.07402   0.80587   0.00000  Uiso   1.00
H637   H     0.11282   0.25981   0.69421   0.00000  Uiso   1.00
H638   H     0.08842   0.23232   0.59296   0.00000  Uiso   1.00
N639   N     0.16667   0.28402   0.75000   0.00000  Uiso   1.00
N640   N     0.16667   0.04931   0.75000   0.00000  Uiso   1.00
O641   O     0.10655   0.20625   0.74999   0.00000  Uiso   1.00
O642   O     0.20923   0.28677   0.81742   0.00000  Uiso   1.00
O643   O     0.20998   0.04455   0.81688   0.00000  Uiso   1.00
O644   O     0.12406   0.28865   0.68276   0.00000  Uiso   1.00
O645   O     0.10741   0.21623   0.61482   0.00000  Uiso   1.00
O646   O     0.16449   0.08140   0.88950   0.00000  Uiso   1.00
O647   O     0.14511   0.24975   0.88582   0.00000  Uiso   1.00
O648   O     0.23055   0.11760   0.61685   0.00000  Uiso   1.00
O649   O     0.04447   0.12014   0.81866   0.00000  Uiso   1.00
O650   O     0.28896   0.21386   0.68155   0.00000  Uiso   1.00
O651   O     0.29136   0.11861   0.81426   0.00000  Uiso   1.00
O652   O     0.22679   0.12709   0.75000   0.00000  Uiso   1.00
O653   O     0.04201   0.21483   0.68572   0.00000  Uiso   1.00
O654   O     0.22679   0.20625   0.75000   0.00000  Uiso   1.00
O655   O     0.10655   0.12709   0.74999   0.00000  Uiso   1.00
O656   O     0.16666   0.20626   0.68573   0.00000  Uiso   1.00
O657   O     0.16667   0.12707   0.81427   0.00000  Uiso   1.00
O658   O     0.16667   0.20626   0.81427   0.00000  Uiso   1.00
O659   O     0.16666   0.12707   0.68573   0.00000  Uiso   1.00
O660   O     0.12426   0.04657   0.68249   0.00000  Uiso   1.00
C661   C     0.42093   0.16685   0.75018   0.00000  Uiso   1.00
C662   C     0.64377   0.19095   0.71593   0.00000  Uiso   1.00
C663   C     0.64625   0.14150   0.78245   0.00000  Uiso   1.00
C664   C     0.35377   0.19191   0.71749   0.00000  Uiso   1.00
C665   C     0.47094   0.19341   0.54676   0.00000  Uiso   1.00
C666   C     0.50203   0.12585   0.95436   0.00000  Uiso   1.00
C667   C     0.49273   0.20882   0.95253   0.00000  Uiso   1.00
C668   C     0.53089   0.14264   0.54929   0.00000  Uiso   1.00
C669   C     0.47096   0.19306   0.59291   0.00000  Uiso   1.00
C670   C     0.49813   0.12440   0.90851   0.00000  Uiso   1.00
C671   C     0.48862   0.20843   0.90665   0.00000  Uiso   1.00
C672   C     0.57907   0.16649   0.74976   0.00000  Uiso   1.00
C673   C     0.53209   0.14226   0.59527   0.00000  Uiso   1.00
C674   C     0.50152   0.16741   0.61728   0.00000  Uiso   1.00
C675   C     0.49394   0.16626   0.88359   0.00000  Uiso   1.00
C676   C     0.50070   0.16826   0.52495   0.00000  Uiso   1.00
C677   C     0.49943   0.16780   0.97653   0.00000  Uiso   1.00
C678   C     0.62374   0.16601   0.74891   0.00000  Uiso   1.00
C679   C     0.37626   0.16740   0.75101   0.00000  Uiso   1.00
C680   C     0.50052   0.16683   0.66532   0.00000  Uiso   1.00
C681   C     0.49771   0.16650   0.83497   0.00000  Uiso   1.00
C682   C     0.47950   0.02491   0.71686   0.00000  Uiso   1.00
C683   C     0.52056   0.30842   0.78310   0.00000  Uiso   1.00
C684   C     0.52068   0.02395   0.78301   0.00000  Uiso   1.00
C685   C     0.47953   0.30937   0.71688   0.00000  Uiso   1.00
C686   C     0.35625   0.14262   0.78408   0.00000  Uiso   1.00
Cu687  Cu    0.50000   0.21355   0.75000   0.00000  Uiso   1.00
Cu688  Cu    0.50000   0.11978   0.75000   0.00000  Uiso   1.00
H689   H     0.44702   0.21234   0.52780   0.00000  Uiso   1.00
H690   H     0.47282   0.08029   0.86930   0.00000  Uiso   1.00
H691   H     0.45634   0.24327   0.86295   0.00000  Uiso   1.00
H692   H     0.56622   0.12636   0.64830   0.00000  Uiso   1.00
H693   H     0.40579   0.13333   0.82296   0.00000  Uiso   1.00
H694   H     0.59394   0.20163   0.67769   0.00000  Uiso   1.00
H695   H     0.64403   0.10184   0.83515   0.00000  Uiso   1.00
H696   H     0.35604   0.23133   0.66460   0.00000  Uiso   1.00
H697   H     0.50537   0.09368   0.97284   0.00000  Uiso   1.00
H698   H     0.48969   0.24139   0.96955   0.00000  Uiso   1.00
H699   H     0.55424   0.12350   0.53247   0.00000  Uiso   1.00
H700   H     0.44530   0.07494   0.69388   0.00000  Uiso   1.00
H701   H     0.55466   0.25829   0.80609   0.00000  Uiso   1.00
H702   H     0.55361   0.07402   0.80587   0.00000  Uiso   1.00
H703   H     0.44615   0.25981   0.69421   0.00000  Uiso   1.00
H704   H     0.42176   0.23232   0.59296   0.00000  Uiso   1.00
N705   N     0.50000   0.28402   0.75000   0.00000  Uiso   1.00
N706   N     0.50000   0.04931   0.75000   0.00000  Uiso   1.00
O707   O     0.43988   0.20625   0.74999   0.00000  Uiso   1.00
O708   O     0.54256   0.28677   0.81742   0.00000  Uiso   1.00
O709   O     0.54332   0.04455   0.81688   0.00000  Uiso   1.00
O710   O     0.45740   0.28865   0.68276   0.00000  Uiso   1.00
O711   O     0.44074   0.21623   0.61482   0.00000  Uiso   1.00
O712   O     0.49783   0.08140   0.88950   0.00000  Uiso   1.00
O713   O     0.47845   0.24975   0.88582   0.00000  Uiso   1.00
O714   O     0.56388   0.11760   0.61685   0.00000  Uiso   1.00
O715   O     0.37781   0.12014   0.81866   0.00000  Uiso   1.00
O716   O     0.62229   0.21386   0.68155   0.00000  Uiso   1.00
O717   O     0.62470   0.11861   0.81426   0.00000  Uiso   1.00
O718   O     0.56012   0.12709   0.75000   0.00000  Uiso   1.00
O719   O     0.37534   0.21483   0.68572   0.00000  Uiso   1.00
O720   O     0.56012   0.20625   0.75000   0.00000  Uiso   1.00
O721   O     0.43988   0.12709   0.74999   0.00000  Uiso   1.00
O722   O     0.50000   0.20626   0.68573   0.00000  Uiso   1.00
O723   O     0.50000   0.12707   0.81427   0.00000  Uiso   1.00
O724   O     0.50000   0.20626   0.81427   0.00000  Uiso   1.00
O725   O     0.50000   0.12707   0.68573   0.00000  Uiso   1.00
O726   O     0.45759   0.04657   0.68249   0.00000  Uiso   1.00
C727   C     0.75427   0.16685   0.75018   0.00000  Uiso   1.00
C728   C     0.97710   0.19095   0.71593   0.00000  Uiso   1.00
C729   C     0.97958   0.14150   0.78245   0.00000  Uiso   1.00
C730   C     0.68711   0.19191   0.71749   0.00000  Uiso   1.00
C731   C     0.80427   0.19341   0.54676   0.00000  Uiso   1.00
C732   C     0.83536   0.12585   0.95436   0.00000  Uiso   1.00
C733   C     0.82606   0.20882   0.95253   0.00000  Uiso   1.00
C734   C     0.86422   0.14264   0.54929   0.00000  Uiso   1.00
C735   C     0.80430   0.19306   0.59291   0.00000  Uiso   1.00
C736   C     0.83147   0.12440   0.90851   0.00000  Uiso   1.00
C737   C     0.82196   0.20843   0.90665   0.00000  Uiso   1.00
C738   C     0.91240   0.16649   0.74976   0.00000  Uiso   1.00
C739   C     0.86542   0.14226   0.59527   0.00000  Uiso   1.00
C740   C     0.83486   0.16741   0.61728   0.00000  Uiso   1.00
C741   C     0.82727   0.16626   0.88359   0.00000  Uiso   1.00
C742   C     0.83404   0.16826   0.52495   0.00000  Uiso   1.00
C743   C     0.83276   0.16780   0.97653   0.00000  Uiso   1.00
C744   C     0.95707   0.16601   0.74891   0.00000  Uiso   1.00
C745   C     0.70960   0.16740   0.75101   0.00000  Uiso   1.00
C746   C     0.83385   0.16683   0.66532   0.00000  Uiso   1.00
C747   C     0.83104   0.16650   0.83497   0.00000  Uiso   1.00
C748   C     0.81284   0.02491   0.71686   0.00000  Uiso   1.00
C749   C     0.85390   0.30842   0.78310   0.00000  Uiso   1.00
C750   C     0.85401   0.02395   0.78301   0.00000  Uiso   1.00
C751   C     0.81286   0.30937   0.71688   0.00000  Uiso   1.00
C752   C     0.68959   0.14262   0.78408   0.00000  Uiso   1.00
Cu753  Cu    0.83333   0.21355   0.75000   0.00000  Uiso   1.00
Cu754  Cu    0.83333   0.11978   0.75000   0.00000  Uiso   1.00
H755   H     0.78035   0.21234   0.52780   0.00000  Uiso   1.00
H756   H     0.80616   0.08029   0.86930   0.00000  Uiso   1.00
H757   H     0.78968   0.24327   0.86295   0.00000  Uiso   1.00
H758   H     0.89956   0.12636   0.64830   0.00000  Uiso   1.00
H759   H     0.73913   0.13333   0.82296   0.00000  Uiso   1.00
H760   H     0.92727   0.20163   0.67769   0.00000  Uiso   1.00
H761   H     0.97736   0.10184   0.83515   0.00000  Uiso   1.00
H762   H     0.68938   0.23133   0.66460   0.00000  Uiso   1.00
H763   H     0.83870   0.09368   0.97284   0.00000  Uiso   1.00
H764   H     0.82302   0.24139   0.96955   0.00000  Uiso   1.00
H765   H     0.88758   0.12350   0.53247   0.00000  Uiso   1.00
H766   H     0.77863   0.07494   0.69388   0.00000  Uiso   1.00
H767   H     0.88800   0.25829   0.80609   0.00000  Uiso   1.00
H768   H     0.88694   0.07402   0.80587   0.00000  Uiso   1.00
H769   H     0.77948   0.25981   0.69421   0.00000  Uiso   1.00
H770   H     0.75509   0.23232   0.59296   0.00000  Uiso   1.00
N771   N     0.83333   0.28402   0.75000   0.00000  Uiso   1.00
N772   N     0.83333   0.04931   0.75000   0.00000  Uiso   1.00
O773   O     0.77321   0.20625   0.74999   0.00000  Uiso   1.00
O774   O     0.87589   0.28677   0.81742   0.00000  Uiso   1.00
O775   O     0.87665   0.04455   0.81688   0.00000  Uiso   1.00
O776   O     0.79073   0.28865   0.68276   0.00000  Uiso   1.00
O777   O     0.77408   0.21623   0.61482   0.00000  Uiso   1.00
O778   O     0.83116   0.08140   0.88950   0.00000  Uiso   1.00
O779   O     0.81178   0.24975   0.88582   0.00000  Uiso   1.00
O780   O     0.89721   0.11760   0.61685   0.00000  Uiso   1.00
O781   O     0.71114   0.12014   0.81866   0.00000  Uiso   1.00
O782   O     0.95563   0.21386   0.68155   0.00000  Uiso   1.00
O783   O     0.95803   0.11861   0.81426   0.00000  Uiso   1.00
O784   O     0.89345   0.12709   0.75000   0.00000  Uiso   1.00
O785   O     0.70868   0.21483   0.68572   0.00000  Uiso   1.00
O786   O     0.89345   0.20625   0.75000   0.00000  Uiso   1.00
O787   O     0.77321   0.12709   0.74999   0.00000  Uiso   1.00
O788   O     0.83333   0.20626   0.68573   0.00000  Uiso   1.00
O789   O     0.83334   0.12707   0.81427   0.00000  Uiso   1.00
O790   O     0.83334   0.20626   0.81427   0.00000  Uiso   1.00
O791   O     0.83333   0.12707   0.68573   0.00000  Uiso   1.00
O792   O     0.79092   0.04657   0.68249   0.00000  Uiso   1.00
C793   C     0.08760   0.50019   0.75018   0.00000  Uiso   1.00
C794   C     0.31043   0.52428   0.71593   0.00000  Uiso   1.00
C795   C     0.31291   0.47483   0.78245   0.00000  Uiso   1.00
C796   C     0.02044   0.52525   0.71749   0.00000  Uiso   1.00
C797   C     0.13760   0.52674   0.54676   0.00000  Uiso   1.00
C798   C     0.16869   0.45919   0.95436   0.00000  Uiso   1.00
C799   C     0.15939   0.54215   0.95253   0.00000  Uiso   1.00
C800   C     0.19756   0.47597   0.54929   0.00000  Uiso   1.00
C801   C     0.13763   0.52639   0.59291   0.00000  Uiso   1.00
C802   C     0.16480   0.45773   0.90851   0.00000  Uiso   1.00
C803   C     0.15529   0.54177   0.90665   0.00000  Uiso   1.00
C804   C     0.24573   0.49982   0.74976   0.00000  Uiso   1.00
C805   C     0.19875   0.47560   0.59527   0.00000  Uiso   1.00
C806   C     0.16819   0.50074   0.61728   0.00000  Uiso   1.00
C807   C     0.16061   0.49959   0.88359   0.00000  Uiso   1.00
C808   C     0.16737   0.50159   0.52495   0.00000  Uiso   1.00
C809   C     0.16609   0.50113   0.97653   0.00000  Uiso   1.00
C810   C     0.29041   0.49934   0.74891   0.00000  Uiso   1.00
C811   C     0.04293   0.50073   0.75101   0.00000  Uiso   1.00
C812   C     0.16718   0.50017   0.66532   0.00000  Uiso   1.00
C813   C     0.16438   0.49983   0.83497   0.00000  Uiso   1.00
C814   C     0.14617   0.35824   0.71686   0.00000  Uiso   1.00
C815   C     0.18723   0.64176   0.78310   0.00000  Uiso   1.00
C816   C     0.18734   0.35728   0.78301   0.00000  Uiso   1.00
C817   C     0.14620   0.64271   0.71688   0.00000  Uiso   1.00
C818   C     0.02292   0.47595   0.78408   0.00000  Uiso   1.00
Cu819  Cu    0.16667   0.54689   0.75000   0.00000  Uiso   1.00
Cu820  Cu    0.16667   0.45311   0.75000   0.00000  Uiso   1.00
H821   H     0.11369   0.54568   0.52780   0.00000  Uiso   1.00
H822   H     0.13949   0.41363   0.86930   0.00000  Uiso   1.00
H823   H     0.12301   0.57661   0.86295   0.00000  Uiso   1.00
H824   H     0.23289   0.45969   0.64830   0.00000  Uiso   1.00
H825   H     0.07246   0.46666   0.82296   0.00000  Uiso   1.00
H826   H     0.26061   0.53496   0.67769   0.00000  Uiso   1.00
H827   H     0.31069   0.43518   0.83515   0.00000  Uiso   1.00
H828   H     0.02271   0.56466   0.66460   0.00000  Uiso   1.00
H829   H     0.17204   0.42702   0.97284   0.00000  Uiso   1.00
H830   H     0.15635   0.57472   0.96955   0.00000  Uiso   1.00
H831   H     0.22091   0.45683   0.53247   0.00000  Uiso   1.00
H832   H     0.11197   0.40827   0.69388   0.00000  Uiso   1.00
H833   H     0.22133   0.59162   0.80609   0.00000  Uiso   1.00
H834   H     0.22028   0.40736   0.80587   0.00000  Uiso   1.00
H835   H     0.11282   0.59315   0.69421   0.00000  Uiso   1.00
H836   H     0.08842   0.56565   0.59296   0.00000  Uiso   1.00
N837   N     0.16667   0.61736   0.75000   0.00000  Uiso   1.00
N838   N     0.16667   0.38264   0.75000   0.00000  Uiso   1.00
O839   O     0.10655   0.53958   0.74999   0.00000  Uiso   1.00
O840   O     0.20923   0.62010   0.81742   0.00000  Uiso   1.00
O841   O     0.20998   0.37788   0.81688   0.00000  Uiso   1.00
O842   O     0.12406   0.62199   0.68276   0.00000  Uiso   1.00
O843   O     0.10741   0.54956   0.61482   0.00000  Uiso   1.00
O844   O     0.16449   0.41473   0.88950   0.00000  Uiso   1.00
O845   O     0.14511   0.58308   0.88582   0.00000  Uiso   1.00
O846   O     0.23055   0.45093   0.61685   0.00000  Uiso   1.00
O847   O     0.04447   0.45347   0.81866   0.00000  Uiso   1.00
O848   O     0.28896   0.54720   0.68155   0.00000  Uiso   1.00
O849   O     0.29136   0.45195   0.81426   0.00000  Uiso   1.00
O850   O     0.22679   0.46042   0.75000   0.00000  Uiso   1.00
O851   O     0.04201   0.54817   0.68572   0.00000  Uiso   1.00
O852   O     0.22679   0.53958   0.75000   0.00000  Uiso   1.00
O853   O     0.10655   0.46042   0.74999   0.00000  Uiso   1.00
O854   O     0.16666   0.53959   0.68573   0.00000  Uiso   1.00
O855   O     0.16667   0.46041   0.81427   0.00000  Uiso   1.00
O856   O     0.16667   0.53959   0.81427   0.00000  Uiso   1.00
O857   O     0.16666   0.46041   0.68573   0.00000  Uiso   1.00
O858   O     0.12426   0.37991   0.68249   0.00000  Uiso   1.00
C859   C     0.42093   0.50019   0.75018   0.00000  Uiso   1.00
C860   C     0.64377   0.52428   0.71593   0.00000  Uiso   1.00
C861   C     0.64625   0.47483   0.78245   0.00000  Uiso   1.00
C862   C     0.35377   0.52525   0.71749   0.00000  Uiso   1.00
C863   C     0.47094   0.52674   0.54676   0.00000  Uiso   1.00
C864   C     0.50203   0.45919   0.95436   0.00000  Uiso   1.00
C865   C     0.49273   0.54215   0.95253   0.00000  Uiso   1.00
C866   C     0.53089   0.47597   0.54929   0.00000  Uiso   1.00
C867   C     0.47096   0.52639   0.59291   0.00000  Uiso   1.00
C868   C     0.49813   0.45773   0.90851   0.00000  Uiso   1.00
C869   C     0.48862   0.54177   0.90665   0.00000  Uiso   1.00
C870   C     0.57907   0.49982   0.74976   0.00000  Uiso   1.00
C871   C     0.53209   0.47560   0.59527   0.00000  Uiso   1.00
C872   C     0.50152   0.50074   0.61728   0.00000  Uiso   1.00
C873   C     0.49394   0.49959   0.88359   0.00000  Uiso   1.00
C874   C     0.50070   0.50159   0.52495   0.00000  Uiso   1.00
C875   C     0.49943   0.50113   0.97653   0.00000  Uiso   1.00
C876   C     0.62374   0.49934   0.74891   0.00000  Uiso   1.00
C877   C     0.37626   0.50073   0.75101   0.00000  Uiso   1.00
C878   C     0.50052   0.50017   0.66532   0.00000  Uiso   1.00
C879   C     0.49771   0.49983   0.83497   0.00000  Uiso   1.00
C880   C     0.47950   0.35824   0.71686   0.00000  Uiso   1.00
C881   C     0.52056   0.64176   0.78310   0.00000  Uiso   1.00
C882   C     0.52068   0.35728   0.78301   0.00000  Uiso   1.00
C883   C     0.47953   0.64271   0.71688   0.00000  Uiso   1.00
C884   C     0.35625   0.47595   0.78408   0.00000  Uiso   1.00
Cu885  Cu    0.50000   0.54689   0.75000   0.00000  Uiso   1.00
Cu886  Cu    0.50000   0.45311   0.75000   0.00000  Uiso   1.00
H887   H     0.44702   0.54568   0.52780   0.00000  Uiso   1.00
H888   H     0.47282   0.41363   0.86930   0.00000  Uiso   1.00
H889   H     0.45634   0.57661   0.86295   0.00000  Uiso   1.00
H890   H     0.56622   0.45969   0.64830   0.00000  Uiso   1.00
H891   H     0.40579   0.46666   0.82296   0.00000  Uiso   1.00
H892   H     0.59394   0.53496   0.67769   0.00000  Uiso   1.00
H893   H     0.64403   0.43518   0.83515   0.00000  Uiso   1.00
H894   H     0.35604   0.56466   0.66460   0.00000  Uiso   1.00
H895   H     0.50537   0.42702   0.97284   0.00000  Uiso   1.00
H896   H     0.48969   0.57472   0.96955   0.00000  Uiso   1.00
H897   H     0.55424   0.45683   0.53247   0.00000  Uiso   1.00
H898   H     0.44530   0.40827   0.69388   0.00000  Uiso   1.00
H899   H     0.55466   0.59162   0.80609   0.00000  Uiso   1.00
H900   H     0.55361   0.40736   0.80587   0.00000  Uiso   1.00
H901   H     0.44615   0.59315   0.69421   0.00000  Uiso   1.00
H902   H     0.42176   0.56565   0.59296   0.00000  Uiso   1.00
N903   N     0.50000   0.61736   0.75000   0.00000  Uiso   1.00
N904   N     0.50000   0.38264   0.75000   0.00000  Uiso   1.00
O905   O     0.43988   0.53958   0.74999   0.00000  Uiso   1.00
O906   O     0.54256   0.62010   0.81742   0.00000  Uiso   1.00
O907   O     0.54332   0.37788   0.81688   0.00000  Uiso   1.00
O908   O     0.45740   0.62199   0.68276   0.00000  Uiso   1.00
O909   O     0.44074   0.54956   0.61482   0.00000  Uiso   1.00
O910   O     0.49783   0.41473   0.88950   0.00000  Uiso   1.00
O911   O     0.47845   0.58308   0.88582   0.00000  Uiso   1.00
O912   O     0.56388   0.45093   0.61685   0.00000  Uiso   1.00
O913   O     0.37781   0.45347   0.81866   0.00000  Uiso   1.00
O914   O     0.62229   0.54720   0.68155   0.00000  Uiso   1.00
O915   O     0.62470   0.45195   0.81426   0.00000  Uiso   1.00
O916   O     0.56012   0.46042   0.75000   0.00000  Uiso   1.00
O917   O     0.37534   0.54817   0.68572   0.00000  Uiso   1.00
O918   O     0.56012   0.53958   0.75000   0.00000  Uiso   1.00
O919   O     0.43988   0.46042   0.74999   0.00000  Uiso   1.00
O920   O     0.50000   0.53959   0.68573   0.00000  Uiso   1.00
O921   O     0.50000   0.46041   0.81427   0.00000  Uiso   1.00
O922   O     0.50000   0.53959   0.81427   0.00000  Uiso   1.00
O923   O     0.50000   0.46041   0.68573   0.00000  Uiso   1.00
O924   O     0.45759   0.37991   0.68249   0.00000  Uiso   1.00
C925   C     0.75427   0.50019   0.75018   0.00000  Uiso   1.00
C926   C     0.97710   0.52428   0.71593   0.00000  Uiso   1.00
C927   C     0.97958   0.47483   0.78245   0.00000  Uiso   1.00
C928   C     0.68711   0.52525   0.71749   0.00000  Uiso   1.00
C929   C     0.80427   0.52674   0.54676   0.00000  Uiso   1.00
C930   C     0.83536   0.45919   0.95436   0.00000  Uiso   1.00
C931   C     0.82606   0.54215   0.95253   0.00000  Uiso   1.00
C932   C     0.86422   0.47597   0.54929   0.00000  Uiso   1.00
C933   C     0.80430   0.52639   0.59291   0.00000  Uiso   1.00
C934   C     0.83147   0.45773   0.90851   0.00000  Uiso   1.00
C935   C     0.82196   0.54177   0.90665   0.00000  Uiso   1.00
C936   C     0.91240   0.49982   0.74976   0.00000  Uiso   1.00
C937   C     0.86542   0.47560   0.59527   0.00000  Uiso   1.00
C938   C     0.83486   0.50074   0.61728   0.00000  Uiso   1.00
C939   C     0.82727   0.49959   0.88359   0.00000  Uiso   1.00
C940   C     0.83404   0.50159   0.52495   0.00000  Uiso   1.00
C941   C     0.83276   0.50113   0.97653   0.00000  Uiso   1.00
C942   C     0.95707   0.49934   0.74891   0.00000  Uiso   1.00
C943   C     0.70960   0.50073   0.75101   0.00000  Uiso   1.00
C944   C     0.83385   0.50017   0.66532   0.00000  Uiso   1.00
C945   C     0.83104   0.49983   0.83497   0.00000  Uiso   1.00
C946   C     0.81284   0.35824   0.71686   0.00000  Uiso   1.00
C947   C     0.85390   0.64176   0.78310   0.00000  Uiso   1.00
C948   C     0.85401   0.35728   0.78301   0.00000  Uiso   1.00
C949   C     0.81286   0.64271   0.71688   0.00000  Uiso   1.00
C950   C     0.68959   0.47595   0.78408   0.00000  Uiso   1.00
Cu951  Cu    0.83333   0.54689   0.75000   0.00000  Uiso   1.00
Cu952  Cu    0.83333   0.45311   0.75000   0.00000  Uiso   1.00
H953   H     0.78035   0.54568   0.52780   0.00000  Uiso   1.00
H954   H     0.80616   0.41363   0.86930   0.00000  Uiso   1.00
H955   H     0.78968   0.57661   0.86295   0.00000  Uiso   1.00
H956   H     0.89956   0.45969   0.64830   0.00000  Uiso   1.00
H957   H     0.73913   0.46666   0.82296   0.00000  Uiso   1.00
H958   H     0.92727   0.53496   0.67769   0.00000  Uiso   1.00
H959   H     0.97736   0.43518   0.83515   0.00000  Uiso   1.00
H960   H     0.68938   0.56466   0.66460   0.00000  Uiso   1.00
H961   H     0.83870   0.42702   0.97284   0.00000  Uiso   1.00
H962   H     0.82302   0.57472   0.96955   0.00000  Uiso   1.00
H963   H     0.88758   0.45683   0.53247   0.00000  Uiso   1.00
H964   H     0.77863   0.40827   0.69388   0.00000  Uiso   1.00
H965   H     0.88800   0.59162   0.80609   0.00000  Uiso   1.00
H966   H     0.88694   0.40736   0.80587   0.00000  Uiso   1.00
H967   H     0.77948   0.59315   0.69421   0.00000  Uiso   1.00
H968   H     0.75509   0.56565   0.59296   0.00000  Uiso   1.00
N969   N     0.83333   0.61736   0.75000   0.00000  Uiso   1.00
N970   N     0.83333   0.38264   0.75000   0.00000  Uiso   1.00
O971   O     0.77321   0.53958   0.74999   0.00000  Uiso   1.00
O972   O     0.87589   0.62010   0.81742   0.00000  Uiso   1.00
O973   O     0.87665   0.37788   0.81688   0.00000  Uiso   1.00
O974   O     0.79073   0.62199   0.68276   0.00000  Uiso   1.00
O975   O     0.77408   0.54956   0.61482   0.00000  Uiso   1.00
O976   O     0.83116   0.41473   0.88950   0.00000  Uiso   1.00
O977   O     0.81178   0.58308   0.88582   0.00000  Uiso   1.00
O978   O     0.89721   0.45093   0.61685   0.00000  Uiso   1.00
O979   O     0.71114   0.45347   0.81866   0.00000  Uiso   1.00
O980   O     0.95563   0.54720   0.68155   0.00000  Uiso   1.00
O981   O     0.95803   0.45195   0.81426   0.00000  Uiso   1.00
O982   O     0.89345   0.46042   0.75000   0.00000  Uiso   1.00
O983   O     0.70868   0.54817   0.68572   0.00000  Uiso   1.00
O984   O     0.89345   0.53958   0.75000   0.00000  Uiso   1.00
O985   O     0.77321   0.46042   0.74999   0.00000  Uiso   1.00
O986   O     0.83333   0.53959   0.68573   0.00000  Uiso   1.00
O987   O     0.83334   0.46041   0.81427   0.00000  Uiso   1.00
O988   O     0.83334   0.53959   0.81427   0.00000  Uiso   1.00
O989   O     0.83333   0.46041   0.68573   0.00000  Uiso   1.00
O990   O     0.79092   0.37991   0.68249   0.00000  Uiso   1.00
C991   C     0.08760   0.83352   0.75018   0.00000  Uiso   1.00
C992   C     0.31043   0.85762   0.71593   0.00000  Uiso   1.00
C993   C     0.31291   0.80816   0.78245   0.00000  Uiso   1.00
C994   C     0.02044   0.85858   0.71749   0.00000  Uiso   1.00
C995   C     0.13760   0.86007   0.54676   0.00000  Uiso   1.00
C996   C     0.16869   0.79252   0.95436   0.00000  Uiso   1.00
C997   C     0.15939   0.87549   0.95253   0.00000  Uiso   1.00
C998   C     0.19756   0.80930   0.54929   0.00000  Uiso   1.00
C999   C     0.13763   0.85973   0.59291   0.00000  Uiso   1.00
C1000  C     0.16480   0.79106   0.90851   0.00000  Uiso   1.00
C1001  C     0.15529   0.87510   0.90665   0.00000  Uiso   1.00
C1002  C     0.24573   0.83316   0.74976   0.00000  Uiso   1.00
C1003  C     0.19875   0.80893   0.59527   0.00000  Uiso   1.00
C1004  C     0.16819   0.83408   0.61728   0.00000  Uiso   1.00
C1005  C     0.16061   0.83293   0.88359   0.00000  Uiso   1.00
C1006  C     0.16737   0.83492   0.52495   0.00000  Uiso   1.00
C1007  C     0.16609   0.83446   0.97653   0.00000  Uiso   1.00
C1008  C     0.29041   0.83267   0.74891   0.00000  Uiso   1.00
C1009  C     0.04293   0.83406   0.75101   0.00000  Uiso   1.00
C1010  C     0.16718   0.83350   0.66532   0.00000  Uiso   1.00
C1011  C     0.16438   0.83317   0.83497   0.00000  Uiso   1.00
C1012  C     0.14617   0.69157   0.71686   0.00000  Uiso   1.00
C1013  C     0.18723   0.97509   0.78310   0.00000  Uiso   1.00
C1014  C     0.18734   0.69062   0.78301   0.00000  Uiso   1.00
C1015  C     0.14620   0.97604   0.71688   0.00000  Uiso   1.00
C1016  C     0.02292   0.80928   0.78408   0.00000  Uiso   1.00
Cu1017 Cu    0.16667   0.88022   0.75000   0.00000  Uiso   1.00
Cu1018 Cu    0.16667   0.78645   0.75000   0.00000  Uiso   1.00
H1019  H     0.11369   0.87901   0.52780   0.00000  Uiso   1.00
H1020  H     0.13949   0.74696   0.86930   0.00000  Uiso   1.00
H1021  H     0.12301   0.90994   0.86295   0.00000  Uiso   1.00
H1022  H     0.23289   0.79303   0.64830   0.00000  Uiso   1.00
H1023  H     0.07246   0.80000   0.82296   0.00000  Uiso   1.00
H1024  H     0.26061   0.86829   0.67769   0.00000  Uiso   1.00
H1025  H     0.31069   0.76851   0.83515   0.00000  Uiso   1.00
H1026  H     0.02271   0.89800   0.66460   0.00000  Uiso   1.00
H1027  H     0.17204   0.76035   0.97284   0.00000  Uiso   1.00
H1028  H     0.15635   0.90806   0.96955   0.00000  Uiso   1.00
H1029  H     0.22091   0.79016   0.53247   0.00000  Uiso   1.00
H1030  H     0.11197   0.74160   0.69388   0.00000  Uiso   1.00
H1031  H     0.22133   0.92495   0.80609   0.00000  Uiso   1.00
H1032  H     0.22028   0.74069   0.80587   0.00000  Uiso   1.00
H1033  H     0.11282   0.92648   0.69421   0.00000  Uiso   1.00
H1034  H     0.08842   0.89898   0.59296   0.00000  Uiso   1.00
N1035  N     0.16667   0.95069   0.75000   0.00000  Uiso   1.00
N1036  N     0.16667   0.71598   0.75000   0.00000  Uiso   1.00
O1037  O     0.10655   0.87291   0.74999   0.00000  Uiso   1.00
O1038  O     0.20923   0.95344   0.81742   0.00000  Uiso   1.00
O1039  O     0.20998   0.71122   0.81688   0.00000  Uiso   1.00
O1040  O     0.12406   0.95532   0.68276   0.00000  Uiso   1.00
O1041  O     0.10741   0.88290   0.61482   0.00000  Uiso   1.00
O1042  O     0.16449   0.74806   0.88950   0.00000  Uiso   1.00
O1043  O     0.14511   0.91641   0.88582   0.00000  Uiso   1.00
O1044  O     0.23055   0.78426   0.61685   0.00000  Uiso   1.00
O1045  O     0.04447   0.78681   0.81866   0.00000  Uiso   1.00
O1046  O     0.28896   0.88053   0.68155   0.00000  Uiso   1.00
O1047  O     0.29136   0.78528   0.81426   0.00000  Uiso   1.00
O1048  O     0.22679   0.79375   0.75000   0.00000  Uiso   1.00
O1049  O     0.04201   0.88150   0.68572   0.00000  Uiso   1.00
O1050  O     0.22679   0.87291   0.75000   0.00000  Uiso   1.00
O1051  O     0.10655   0.79375   0.74999   0.00000  Uiso   1.00
O1052  O     0.16666   0.87293   0.68573   0.00000  Uiso   1.00
O1053  O     0.16667   0.79374   0.81427   0.00000  Uiso   1.00
O1054  O     0.16667   0.87293   0.81427   0.00000  Uiso   1.00
O1055  O     0.16666   0.79374   0.68573   0.00000  Uiso   1.00
O1056  O     0.12426   0.71324   0.68249   0.00000  Uiso   1.00
C1057  C     0.42093   0.83352   0.75018   0.00000  Uiso   1.00
C1058  C     0.64377   0.85762   0.71593   0.00000  Uiso   1.00
C1059  C     0.64625   0.80816   0.78245   0.00000  Uiso   1.00
C1060  C     0.35377   0.85858   0.71749   0.00000  Uiso   1.00
C1061  C     0.47094   0.86007   0.54676   0.00000  Uiso   1.00
C1062  C     0.50203   0.79252   0.95436   0.00000  Uiso   1.00
C1063  C     0.49273   0.87549   0.95253   0.00000  Uiso   1.00
C1064  C     0.53089   0.80930   0.54929   0.00000  Uiso   1.00
C1065  C     0.47096   0.85973   0.59291   0.00000  Uiso   1.00
C1066  C     0.49813   0.79106   0.90851   0.00000  Uiso   1.00
C1067  C     0.48862   0.87510   0.90665   0.00000  Uiso   1.00
C1068  C     0.57907   0.83316   0.74976   0.00000  Uiso   1.00
C1069  C     0.53209   0.80893   0.59527   0.00000  Uiso   1.00
C1070  C     0.50152   0.83408   0.61728   0.00000  Uiso   1.00
C1071  C     0.49394   0.83293   0.88359   0.00000  Uiso   1.00
C1072  C     0.50070   0.83492   0.52495   0.00000  Uiso   1.00
C1073  C     0.49943   0.83446   0.97653   0.00000  Uiso   1.00
C1074  C     0.62374   0.83267   0.74891   0.00000  Uiso   1.00
C1075  C     0.37626   0.83406   0.75101   0.00000  Uiso   1.00
C1076  C     0.50052   0.83350   0.66532   0.00000  Uiso   1.00
C1077  C     0.49771   0.83317   0.83497   0.00000  Uiso   1.00
C1078  C     0.47950   0.69157   0.71686   0.00000  Uiso   1.00
C1079  C     0.52056   0.97509   0.78310   0.00000  Uiso   1.00
C1080  C     0.52068   0.69062   0.78301   0.00000  Uiso   1.00
C1081  C     0.47953   0.97604   0.71688   0.00000  Uiso   1.00
C1082  C     0.35625   0.80928   0.78408   0.00000  Uiso   1.00
Cu1083 Cu    0.50000   0.88022   0.75000   0.00000  Uiso   1.00
Cu1084 Cu    0.50000   0.78645   0.75000   0.00000  Uiso   1.00
H1085  H     0.44702   0.87901   0.52780   0.00000  Uiso   1.00
H1086  H     0.47282   0.74696   0.86930   0.00000  Uiso   1.00
H1087  H     0.45634   0.90994   0.86295   0.00000  Uiso   1.00
H1088  H     0.56622   0.79303   0.64830   0.00000  Uiso   1.00
H1089  H     0.40579   0.80000   0.82296   0.00000  Uiso   1.00
H1090  H     0.59394   0.86829   0.67769   0.00000  Uiso   1.00
H1091  H     0.64403   0.76851   0.83515   0.00000  Uiso   1.00
H1092  H     0.35604   0.89800   0.66460   0.00000  Uiso   1.00
H1093  H     0.50537   0.76035   0.97284   0.00000  Uiso   1.00
H1094  H     0.48969   0.90806   0.96955   0.00000  Uiso   1.00
H1095  H     0.55424   0.79016   0.53247   0.00000  Uiso   1.00
H1096  H     0.44530   0.74160   0.69388   0.00000  Uiso   1.00
H1097  H     0.55466   0.92495   0.80609   0.00000  Uiso   1.00
H1098  H     0.55361   0.74069   0.80587   0.00000  Uiso   1.00
H1099  H     0.44615   0.92648   0.69421   0.00000  Uiso   1.00
H1100  H     0.42176   0.89898   0.59296   0.00000  Uiso   1.00
N1101  N     0.50000   0.95069   0.75000   0.00000  Uiso   1.00
N1102  N     0.50000   0.71598   0.75000   0.00000  Uiso   1.00
O1103  O     0.43988   0.87291   0.74999   0.00000  Uiso   1.00
O1104  O     0.54256   0.95344   0.81742   0.00000  Uiso   1.00
O1105  O     0.54332   0.71122   0.81688   0.00000  Uiso   1.00
O1106  O     0.45740   0.95532   0.68276   0.00000  Uiso   1.00
O1107  O     0.44074   0.88290   0.61482   0.00000  Uiso   1.00
O1108  O     0.49783   0.74806   0.88950   0.00000  Uiso   1.00
O1109  O     0.47845   0.91641   0.88582   0.00000  Uiso   1.00
O1110  O     0.56388   0.78426   0.61685   0.00000  Uiso   1.00
O1111  O     0.37781   0.78681   0.81866   0.00000  Uiso   1.00
O1112  O     0.62229   0.88053   0.68155   0.00000  Uiso   1.00
O1113  O     0.62470   0.78528   0.81426   0.00000  Uiso   1.00
O1114  O     0.56012   0.79375   0.75000   0.00000  Uiso   1.00
O1115  O     0.37534   0.88150   0.68572   0.00000  Uiso   1.00
O1116  O     0.56012   0.87291   0.75000   0.00000  Uiso   1.00
O1117  O     0.43988   0.79375   0.74999   0.00000  Uiso   1.00
O1118  O     0.50000   0.87293   0.68573   0.00000  Uiso   1.00
O1119  O     0.50000   0.79374   0.81427   0.00000  Uiso   1.00
O1120  O     0.50000   0.87293   0.81427   0.00000  Uiso   1.00
O1121  O     0.50000   0.79374   0.68573   0.00000  Uiso   1.00
O1122  O     0.45759   0.71324   0.68249   0.00000  Uiso   1.00
C1123  C     0.75427   0.83352   0.75018   0.00000  Uiso   1.00
C1124  C     0.97710   0.85762   0.71593   0.00000  Uiso   1.00
C1125  C     0.97958   0.80816   0.78245   0.00000  Uiso   1.00
C1126  C     0.68711   0.85858   0.71749   0.00000  Uiso   1.00
C1127  C     0.80427   0.86007   0.54676   0.00000  Uiso   1.00
C1128  C     0.83536   0.79252   0.95436   0.00000  Uiso   1.00
C1129  C     0.82606   0.87549   0.95253   0.00000  Uiso   1.00
C1130  C     0.86422   0.80930   0.54929   0.00000  Uiso   1.00
C1131  C     0.80430   0.85973   0.59291   0.00000  Uiso   1.00
C1132  C     0.83147   0.79106   0.90851   0.00000  Uiso   1.00
C1133  C     0.82196   0.87510   0.90665   0.00000  Uiso   1.00
C1134  C     0.91240   0.83316   0.74976   0.00000  Uiso   1.00
C1135  C     0.86542   0.80893   0.59527   0.00000  Uiso   1.00
C1136  C     0.83486   0.83408   0.61728   0.00000  Uiso   1.00
C1137  C     0.82727   0.83293   0.88359   0.00000  Uiso   1.00
C1138  C     0.83404   0.83492   0.52495   0.00000  Uiso   1.00
C1139  C     0.83276   0.83446   0.97653   0.00000  Uiso   1.00
C1140  C     0.95707   0.83267   0.74891   0.00000  Uiso   1.00
C1141  C     0.70960   0.83406   0.75101   0.00000  Uiso   1.00
C1142  C     0.83385   0.83350   0.66532   0.00000  Uiso   1.00
C1143  C     0.83104   0.83317   0.83497   0.00000  Uiso   1.00
C1144  C     0.81284   0.69157   0.71686   0.00000  Uiso   1.00
C1145  C     0.85390   0.97509   0.78310   0.00000  Uiso   1.00
C1146  C     0.85401   0.69062   0.78301   0.00000  Uiso   1.00
C1147  C     0.81286   0.97604   0.71688   0.00000  Uiso   1.00
C1148  C     0.68959   0.80928   0.78408   0.00000  Uiso   1.00
Cu1149 Cu    0.83333   0.88022   0.75000   0.00000  Uiso   1.00
Cu1150 Cu    0.83333   0.78645   0.75000   0.00000  Uiso   1.00
H1151  H     0.78035   0.87901   0.52780   0.00000  Uiso   1.00
H1152  H     0.80616   0.74696   0.86930   0.00000  Uiso   1.00
H1153  H     0.78968   0.90994   0.86295   0.00000  Uiso   1.00
H1154  H     0.89956   0.79303   0.64830   0.00000  Uiso   1.00
H1155  H     0.73913   0.80000   0.82296   0.00000  Uiso   1.00
H1156  H     0.92727   0.86829   0.67769   0.00000  Uiso   1.00
H1157  H     0.97736   0.76851   0.83515   0.00000  Uiso   1.00
H1158  H     0.68938   0.89800   0.66460   0.00000  Uiso   1.00
H1159  H     0.83870   0.76035   0.97284   0.00000  Uiso   1.00
H1160  H     0.82302   0.90806   0.96955   0.00000  Uiso   1.00
H1161  H     0.88758   0.79016   0.53247   0.00000  Uiso   1.00
H1162  H     0.77863   0.74160   0.69388   0.00000  Uiso   1.00
H1163  H     0.88800   0.92495   0.80609   0.00000  Uiso   1.00
H1164  H     0.88694   0.74069   0.80587   0.00000  Uiso   1.00
H1165  H     0.77948   0.92648   0.69421   0.00000  Uiso   1.00
H1166  H     0.75509   0.89898   0.59296   0.00000  Uiso   1.00
N1167  N     0.83333   0.95069   0.75000   0.00000  Uiso   1.00
N1168  N     0.83333   0.71598   0.75000   0.00000  Uiso   1.00
O1169  O     0.77321   0.87291   0.74999   0.00000  Uiso   1.00
O1170  O     0.87589   0.95344   0.81742   0.00000  Uiso   1.00
O1171  O     0.87665   0.71122   0.81688   0.00000  Uiso   1.00
O1172  O     0.79073   0.95532   0.68276   0.00000  Uiso   1.00
O1173  O     0.77408   0.88290   0.61482   0.00000  Uiso   1.00
O1174  O     0.83116   0.74806   0.88950   0.00000  Uiso   1.00
O1175  O     0.81178   0.91641   0.88582   0.00000  Uiso   1.00
O1176  O     0.89721   0.78426   0.61685   0.00000  Uiso   1.00
O1177  O     0.71114   0.78681   0.81866   0.00000  Uiso   1.00
O1178  O     0.95563   0.88053   0.68155   0.00000  Uiso   1.00
O1179  O     0.95803   0.78528   0.81426   0.00000  Uiso   1.00
O1180  O     0.89345   0.79375   0.75000   0.00000  Uiso   1.00
O1181  O     0.70868   0.88150   0.68572   0.00000  Uiso   1.00
O1182  O     0.89345   0.87291   0.75000   0.00000  Uiso   1.00
O1183  O     0.77321   0.79375   0.74999   0.00000  Uiso   1.00
O1184  O     0.83333   0.87293   0.68573   0.00000  Uiso   1.00
O1185  O     0.83334   0.79374   0.81427   0.00000  Uiso   1.00
O1186  O     0.83334   0.87293   0.81427   0.00000  Uiso   1.00
O1187  O     0.83333   0.79374   0.68573   0.00000  Uiso   1.00
O1188  O     0.79092   0.71324   0.68249   0.00000  Uiso   1.00
loop_
_geom_bond_atom_site_label_1
_geom_bond_atom_site_label_2
_geom_bond_distance
_geom_bond_site_symmetry_2
_ccdc_geom_bond_type
C1     C19     1.448   .     S
C1     O47     1.298   .     A
C1     O61     1.299   .     A
C2     C18     1.414   .     A
C2     O56     1.385   .     S
C2     C70     1.402   .     S
C3     O57     1.385   .     S
C3     C18     1.405   .     A
C3     C92     1.402   .     S
C4     O59     1.385   .     S
C4     C19     1.404   .     A
C4     C134    1.402   1_455 S
C5     C9      1.399   .     A
C5     H29     1.084   .     S
C5     C16     1.398   .     A
C6     C10     1.391   .     A
C6     H37     1.084   .     S
C6     C17     1.395   .     A
C7     C17     1.396   .     A
C7     C11     1.391   .     A
C7     H38     1.084   .     S
C8     C13     1.392   .     A
C8     H39     1.084   .     S
C8     C16     1.399   .     A
C9     C14     1.408   .     A
C9     O51     1.382   .     S
C10    O52     1.375   .     S
C10    C15     1.424   .     A
C11    C15     1.424   .     A
C11    O53     1.377   .     S
C12    O58     1.299   .     A
C12    O60     1.299   .     A
C12    C18     1.448   .     S
C13    C14     1.420   .     A
C13    O54     1.382   .     S
C14    C20     1.458   .     S
C15    C21     1.485   .     S
C16    C611    1.467   1_554 S
C17    C610    1.467   .     S
C19    C26     1.414   .     A
C20    O62     1.302   .     A
C20    O65     1.302   .     A
C21    O63     1.309   .     A
C21    O64     1.310   .     A
C22    O66     1.375   .     S
C22    N46     1.378   .     A
C22    C421    1.413   1_545 S
C23    N45     1.378   .     A
C23    O48     1.375   .     S
C23    C222    1.413   .     S
C24    N46     1.379   .     A
C24    O49     1.374   .     S
C24    C419    1.413   1_545 S
C25    N45     1.378   .     A
C25    O50     1.373   .     S
C25    C220    1.413   .     S
C26    O55     1.385   .     S
C26    C135    1.402   1_455 S
Cu27   N45     2.038   .     S
Cu27   O62     1.961   .     S
Cu27   O60     1.956   .     S
Cu27   O64     1.958   .     S
Cu27   O47     1.960   .     S
Cu27   Cu28    2.712   .     S
Cu28   O58     1.960   .     S
Cu28   O65     1.958   .     S
Cu28   N46     2.038   .     S
Cu28   O61     1.956   .     S
Cu28   O63     1.961   .     S
H30    O52     0.991   .     S
H31    O53     0.991   .     S
H32    O54     0.988   .     S
H33    O55     0.989   .     S
H34    O56     0.988   .     S
H35    O57     0.989   .     S
H36    O59     0.989   .     S
H40    O66     0.982   .     S
H41    O48     0.981   .     S
H42    O49     0.980   .     S
H43    O50     0.980   .     S
H44    O51     0.992   .     S
C67    C85     1.448   .     S
C67    O113    1.298   .     A
C67    O127    1.299   .     A
C68    C84     1.414   .     A
C68    O122    1.385   .     S
C68    C136    1.402   .     S
C69    O123    1.385   .     S
C69    C84     1.405   .     A
C69    C158    1.402   .     S
C70    O125    1.385   .     S
C70    C85     1.404   .     A
C71    C75     1.399   .     A
C71    H95     1.084   .     S
C71    C82     1.398   .     A
C72    C76     1.391   .     A
C72    H103    1.084   .     S
C72    C83     1.395   .     A
C73    C83     1.396   .     A
C73    C77     1.391   .     A
C73    H104    1.084   .     S
C74    C79     1.392   .     A
C74    H105    1.084   .     S
C74    C82     1.399   .     A
C75    C80     1.408   .     A
C75    O117    1.382   .     S
C76    O118    1.375   .     S
C76    C81     1.424   .     A
C77    C81     1.424   .     A
C77    O119    1.377   .     S
C78    O124    1.299   .     A
C78    O126    1.299   .     A
C78    C84     1.448   .     S
C79    C80     1.420   .     A
C79    O120    1.382   .     S
C80    C86     1.458   .     S
C81    C87     1.485   .     S
C82    C677    1.467   1_554 S
C83    C676    1.467   .     S
C85    C92     1.414   .     A
C86    O128    1.302   .     A
C86    O131    1.302   .     A
C87    O129    1.309   .     A
C87    O130    1.310   .     A
C88    O132    1.375   .     S
C88    N112    1.378   .     A
C88    C487    1.413   1_545 S
C89    N111    1.378   .     A
C89    O114    1.375   .     S
C89    C288    1.413   .     S
C90    N112    1.379   .     A
C90    O115    1.374   .     S
C90    C485    1.413   1_545 S
C91    N111    1.378   .     A
C91    O116    1.373   .     S
C91    C286    1.413   .     S
C92    O121    1.385   .     S
Cu93   N111    2.038   .     S
Cu93   O128    1.961   .     S
Cu93   O126    1.956   .     S
Cu93   O130    1.958   .     S
Cu93   O113    1.960   .     S
Cu93   Cu94    2.712   .     S
Cu94   O124    1.960   .     S
Cu94   O131    1.958   .     S
Cu94   N112    2.038   .     S
Cu94   O127    1.956   .     S
Cu94   O129    1.961   .     S
H96    O118    0.991   .     S
H97    O119    0.991   .     S
H98    O120    0.988   .     S
H99    O121    0.989   .     S
H100   O122    0.988   .     S
H101   O123    0.989   .     S
H102   O125    0.989   .     S
H106   O132    0.982   .     S
H107   O114    0.981   .     S
H108   O115    0.980   .     S
H109   O116    0.980   .     S
H110   O117    0.992   .     S
C133   C151    1.448   .     S
C133   O179    1.298   .     A
C133   O193    1.299   .     A
C134   C150    1.414   .     A
C134   O188    1.385   .     S
C134   C4      1.402   1_655 S
C135   O189    1.385   .     S
C135   C150    1.405   .     A
C135   C26     1.402   1_655 S
C136   O191    1.385   .     S
C136   C151    1.404   .     A
C137   C141    1.399   .     A
C137   H161    1.084   .     S
C137   C148    1.398   .     A
C138   C142    1.391   .     A
C138   H169    1.084   .     S
C138   C149    1.395   .     A
C139   C149    1.396   .     A
C139   C143    1.391   .     A
C139   H170    1.084   .     S
C140   C145    1.392   .     A
C140   H171    1.084   .     S
C140   C148    1.399   .     A
C141   C146    1.408   .     A
C141   O183    1.382   .     S
C142   O184    1.375   .     S
C142   C147    1.424   .     A
C143   C147    1.424   .     A
C143   O185    1.377   .     S
C144   O190    1.299   .     A
C144   O192    1.299   .     A
C144   C150    1.448   .     S
C145   C146    1.420   .     A
C145   O186    1.382   .     S
C146   C152    1.458   .     S
C147   C153    1.485   .     S
C148   C743    1.467   1_554 S
C149   C742    1.467   .     S
C151   C158    1.414   .     A
C152   O194    1.302   .     A
C152   O197    1.302   .     A
C153   O195    1.309   .     A
C153   O196    1.310   .     A
C154   O198    1.375   .     S
C154   N178    1.378   .     A
C154   C553    1.413   1_545 S
C155   N177    1.378   .     A
C155   O180    1.375   .     S
C155   C354    1.413   .     S
C156   N178    1.379   .     A
C156   O181    1.374   .     S
C156   C551    1.413   1_545 S
C157   N177    1.378   .     A
C157   O182    1.373   .     S
C157   C352    1.413   .     S
C158   O187    1.385   .     S
Cu159  N177    2.038   .     S
Cu159  O194    1.961   .     S
Cu159  O192    1.956   .     S
Cu159  O196    1.958   .     S
Cu159  O179    1.960   .     S
Cu159  Cu160   2.712   .     S
Cu160  O190    1.960   .     S
Cu160  O197    1.958   .     S
Cu160  N178    2.038   .     S
Cu160  O193    1.956   .     S
Cu160  O195    1.961   .     S
H162   O184    0.991   .     S
H163   O185    0.991   .     S
H164   O186    0.988   .     S
H165   O187    0.989   .     S
H166   O188    0.988   .     S
H167   O189    0.989   .     S
H168   O191    0.989   .     S
H172   O198    0.982   .     S
H173   O180    0.981   .     S
H174   O181    0.980   .     S
H175   O182    0.980   .     S
H176   O183    0.992   .     S
C199   C217    1.448   .     S
C199   O245    1.298   .     A
C199   O259    1.299   .     A
C200   C216    1.414   .     A
C200   O254    1.385   .     S
C200   C268    1.402   .     S
C201   O255    1.385   .     S
C201   C216    1.405   .     A
C201   C290    1.402   .     S
C202   O257    1.385   .     S
C202   C217    1.404   .     A
C202   C332    1.402   1_455 S
C203   C207    1.399   .     A
C203   H227    1.084   .     S
C203   C214    1.398   .     A
C204   C208    1.391   .     A
C204   H235    1.084   .     S
C204   C215    1.395   .     A
C205   C215    1.396   .     A
C205   C209    1.391   .     A
C205   H236    1.084   .     S
C206   C211    1.392   .     A
C206   H237    1.084   .     S
C206   C214    1.399   .     A
C207   C212    1.408   .     A
C207   O249    1.382   .     S
C208   O250    1.375   .     S
C208   C213    1.424   .     A
C209   C213    1.424   .     A
C209   O251    1.377   .     S
C210   O256    1.299   .     A
C210   O258    1.299   .     A
C210   C216    1.448   .     S
C211   C212    1.420   .     A
C211   O252    1.382   .     S
C212   C218    1.458   .     S
C213   C219    1.485   .     S
C214   C809    1.467   1_554 S
C215   C808    1.467   .     S
C217   C224    1.414   .     A
C218   O260    1.302   .     A
C218   O263    1.302   .     A
C219   O261    1.309   .     A
C219   O262    1.310   .     A
C220   O264    1.375   .     S
C220   N244    1.378   .     A
C221   N243    1.378   .     A
C221   O246    1.375   .     S
C221   C420    1.413   .     S
C222   N244    1.379   .     A
C222   O247    1.374   .     S
C223   N243    1.378   .     A
C223   O248    1.373   .     S
C223   C418    1.413   .     S
C224   O253    1.385   .     S
C224   C333    1.402   1_455 S
Cu225  N243    2.038   .     S
Cu225  O260    1.961   .     S
Cu225  O258    1.956   .     S
Cu225  O262    1.958   .     S
Cu225  O245    1.960   .     S
Cu225  Cu226   2.712   .     S
Cu226  O256    1.960   .     S
Cu226  O263    1.958   .     S
Cu226  N244    2.038   .     S
Cu226  O259    1.956   .     S
Cu226  O261    1.961   .     S
H228   O250    0.991   .     S
H229   O251    0.991   .     S
H230   O252    0.988   .     S
H231   O253    0.989   .     S
H232   O254    0.988   .     S
H233   O255    0.989   .     S
H234   O257    0.989   .     S
H238   O264    0.982   .     S
H239   O246    0.981   .     S
H240   O247    0.980   .     S
H241   O248    0.980   .     S
H242   O249    0.992   .     S
C265   C283    1.448   .     S
C265   O311    1.298   .     A
C265   O325    1.299   .     A
C266   C282    1.414   .     A
C266   O320    1.385   .     S
C266   C334    1.402   .     S
C267   O321    1.385   .     S
C267   C282    1.405   .     A
C267   C356    1.402   .     S
C268   O323    1.385   .     S
C268   C283    1.404   .     A
C269   C273    1.399   .     A
C269   H293    1.084   .     S
C269   C280    1.398   .     A
C270   C274    1.391   .     A
C270   H301    1.084   .     S
C270   C281    1.395   .     A
C271   C281    1.396   .     A
C271   C275    1.391   .     A
C271   H302    1.084   .     S
C272   C277    1.392   .     A
C272   H303    1.084   .     S
C272   C280    1.399   .     A
C273   C278    1.408   .     A
C273   O315    1.382   .     S
C274   O316    1.375   .     S
C274   C279    1.424   .     A
C275   C279    1.424   .     A
C275   O317    1.377   .     S
C276   O322    1.299   .     A
C276   O324    1.299   .     A
C276   C282    1.448   .     S
C277   C278    1.420   .     A
C277   O318    1.382   .     S
C278   C284    1.458   .     S
C279   C285    1.485   .     S
C280   C875    1.467   1_554 S
C281   C874    1.467   .     S
C283   C290    1.414   .     A
C284   O326    1.302   .     A
C284   O329    1.302   .     A
C285   O327    1.309   .     A
C285   O328    1.310   .     A
C286   O330    1.375   .     S
C286   N310    1.378   .     A
C287   N309    1.378   .     A
C287   O312    1.375   .     S
C287   C486    1.413   .     S
C288   N310    1.379   .     A
C288   O313    1.374   .     S
C289   N309    1.378   .     A
C289   O314    1.373   .     S
C289   C484    1.413   .     S
C290   O319    1.385   .     S
Cu291  N309    2.038   .     S
Cu291  O326    1.961   .     S
Cu291  O324    1.956   .     S
Cu291  O328    1.958   .     S
Cu291  O311    1.960   .     S
Cu291  Cu292   2.712   .     S
Cu292  O322    1.960   .     S
Cu292  O329    1.958   .     S
Cu292  N310    2.038   .     S
Cu292  O325    1.956   .     S
Cu292  O327    1.961   .     S
H294   O316    0.991   .     S
H295   O317    0.991   .     S
H296   O318    0.988   .     S
H297   O319    0.989   .     S
H298   O320    0.988   .     S
H299   O321    0.989   .     S
H300   O323    0.989   .     S
H304   O330    0.982   .     S
H305   O312    0.981   .     S
H306   O313    0.980   .     S
H307   O314    0.980   .     S
H308   O315    0.992   .     S
C331   C349    1.448   .     S
C331   O377    1.298   .     A
C331   O391    1.299   .     A
C332   C348    1.414   .     A
C332   O386    1.385   .     S
C332   C202    1.402   1_655 S
C333   O387    1.385   .     S
C333   C348    1.405   .     A
C333   C224    1.402   1_655 S
C334   O389    1.385   .     S
C334   C349    1.404   .     A
C335   C339    1.399   .     A
C335   H359    1.084   .     S
C335   C346    1.398   .     A
C336   C340    1.391   .     A
C336   H367    1.084   .     S
C336   C347    1.395   .     A
C337   C347    1.396   .     A
C337   C341    1.391   .     A
C337   H368    1.084   .     S
C338   C343    1.392   .     A
C338   H369    1.084   .     S
C338   C346    1.399   .     A
C339   C344    1.408   .     A
C339   O381    1.382   .     S
C340   O382    1.375   .     S
C340   C345    1.424   .     A
C341   C345    1.424   .     A
C341   O383    1.377   .     S
C342   O388    1.299   .     A
C342   O390    1.299   .     A
C342   C348    1.448   .     S
C343   C344    1.420   .     A
C343   O384    1.382   .     S
C344   C350    1.458   .     S
C345   C351    1.485   .     S
C346   C941    1.467   1_554 S
C347   C940    1.467   .     S
C349   C356    1.414   .     A
C350   O392    1.302   .     A
C350   O395    1.302   .     A
C351   O393    1.309   .     A
C351   O394    1.310   .     A
C352   O396    1.375   .     S
C352   N376    1.378   .     A
C353   N375    1.378   .     A
C353   O378    1.375   .     S
C353   C552    1.413   .     S
C354   N376    1.379   .     A
C354   O379    1.374   .     S
C355   N375    1.378   .     A
C355   O380    1.373   .     S
C355   C550    1.413   .     S
C356   O385    1.385   .     S
Cu357  N375    2.038   .     S
Cu357  O392    1.961   .     S
Cu357  O390    1.956   .     S
Cu357  O394    1.958   .     S
Cu357  O377    1.960   .     S
Cu357  Cu358   2.712   .     S
Cu358  O388    1.960   .     S
Cu358  O395    1.958   .     S
Cu358  N376    2.038   .     S
Cu358  O391    1.956   .     S
Cu358  O393    1.961   .     S
H360   O382    0.991   .     S
H361   O383    0.991   .     S
H362   O384    0.988   .     S
H363   O385    0.989   .     S
H364   O386    0.988   .     S
H365   O387    0.989   .     S
H366   O389    0.989   .     S
H370   O396    0.982   .     S
H371   O378    0.981   .     S
H372   O379    0.980   .     S
H373   O380    0.980   .     S
H374   O381    0.992   .     S
C397   C415    1.448   .     S
C397   O443    1.298   .     A
C397   O457    1.299   .     A
C398   C414    1.414   .     A
C398   O452    1.385   .     S
C398   C466    1.402   .     S
C399   O453    1.385   .     S
C399   C414    1.405   .     A
C399   C488    1.402   .     S
C400   O455    1.385   .     S
C400   C415    1.404   .     A
C400   C530    1.402   1_455 S
C401   C405    1.399   .     A
C401   H425    1.084   .     S
C401   C412    1.398   .     A
C402   C406    1.391   .     A
C402   H433    1.084   .     S
C402   C413    1.395   .     A
C403   C413    1.396   .     A
C403   C407    1.391   .     A
C403   H434    1.084   .     S
C404   C409    1.392   .     A
C404   H435    1.084   .     S
C404   C412    1.399   .     A
C405   C410    1.408   .     A
C405   O447    1.382   .     S
C406   O448    1.375   .     S
C406   C411    1.424   .     A
C407   C411    1.424   .     A
C407   O449    1.377   .     S
C408   O454    1.299   .     A
C408   O456    1.299   .     A
C408   C414    1.448   .     S
C409   C410    1.420   .     A
C409   O450    1.382   .     S
C410   C416    1.458   .     S
C411   C417    1.485   .     S
C412   C1007   1.467   1_554 S
C413   C1006   1.467   .     S
C415   C422    1.414   .     A
C416   O458    1.302   .     A
C416   O461    1.302   .     A
C417   O459    1.309   .     A
C417   O460    1.310   .     A
C418   O462    1.375   .     S
C418   N442    1.378   .     A
C419   N441    1.378   .     A
C419   O444    1.375   .     S
C419   C24     1.413   1_565 S
C420   N442    1.379   .     A
C420   O445    1.374   .     S
C421   N441    1.378   .     A
C421   O446    1.373   .     S
C421   C22     1.413   1_565 S
C422   O451    1.385   .     S
C422   C531    1.402   1_455 S
Cu423  N441    2.038   .     S
Cu423  O458    1.961   .     S
Cu423  O456    1.956   .     S
Cu423  O460    1.958   .     S
Cu423  O443    1.960   .     S
Cu423  Cu424   2.712   .     S
Cu424  O454    1.960   .     S
Cu424  O461    1.958   .     S
Cu424  N442    2.038   .     S
Cu424  O457    1.956   .     S
Cu424  O459    1.961   .     S
H426   O448    0.991   .     S
H427   O449    0.991   .     S
H428   O450    0.988   .     S
H429   O451    0.989   .     S
H430   O452    0.988   .     S
H431   O453    0.989   .     S
H432   O455    0.989   .     S
H436   O462    0.982   .     S
H437   O444    0.981   .     S
H438   O445    0.980   .     S
H439   O446    0.980   .     S
H440   O447    0.992   .     S
C463   C481    1.448   .     S
C463   O509    1.298   .     A
C463   O523    1.299   .     A
C464   C480    1.414   .     A
C464   O518    1.385   .     S
C464   C532    1.402   .     S
C465   O519    1.385   .     S
C465   C480    1.405   .     A
C465   C554    1.402   .     S
C466   O521    1.385   .     S
C466   C481    1.404   .     A
C467   C471    1.399   .     A
C467   H491    1.084   .     S
C467   C478    1.398   .     A
C468   C472    1.391   .     A
C468   H499    1.084   .     S
C468   C479    1.395   .     A
C469   C479    1.396   .     A
C469   C473    1.391   .     A
C469   H500    1.084   .     S
C470   C475    1.392   .     A
C470   H501    1.084   .     S
C470   C478    1.399   .     A
C471   C476    1.408   .     A
C471   O513    1.382   .     S
C472   O514    1.375   .     S
C472   C477    1.424   .     A
C473   C477    1.424   .     A
C473   O515    1.377   .     S
C474   O520    1.299   .     A
C474   O522    1.299   .     A
C474   C480    1.448   .     S
C475   C476    1.420   .     A
C475   O516    1.382   .     S
C476   C482    1.458   .     S
C477   C483    1.485   .     S
C478   C1073   1.467   1_554 S
C479   C1072   1.467   .     S
C481   C488    1.414   .     A
C482   O524    1.302   .     A
C482   O527    1.302   .     A
C483   O525    1.309   .     A
C483   O526    1.310   .     A
C484   O528    1.375   .     S
C484   N508    1.378   .     A
C485   N507    1.378   .     A
C485   O510    1.375   .     S
C485   C90     1.413   1_565 S
C486   N508    1.379   .     A
C486   O511    1.374   .     S
C487   N507    1.378   .     A
C487   O512    1.373   .     S
C487   C88     1.413   1_565 S
C488   O517    1.385   .     S
Cu489  N507    2.038   .     S
Cu489  O524    1.961   .     S
Cu489  O522    1.956   .     S
Cu489  O526    1.958   .     S
Cu489  O509    1.960   .     S
Cu489  Cu490   2.712   .     S
Cu490  O520    1.960   .     S
Cu490  O527    1.958   .     S
Cu490  N508    2.038   .     S
Cu490  O523    1.956   .     S
Cu490  O525    1.961   .     S
H492   O514    0.991   .     S
H493   O515    0.991   .     S
H494   O516    0.988   .     S
H495   O517    0.989   .     S
H496   O518    0.988   .     S
H497   O519    0.989   .     S
H498   O521    0.989   .     S
H502   O528    0.982   .     S
H503   O510    0.981   .     S
H504   O511    0.980   .     S
H505   O512    0.980   .     S
H506   O513    0.992   .     S
C529   C547    1.448   .     S
C529   O575    1.298   .     A
C529   O589    1.299   .     A
C530   C546    1.414   .     A
C530   O584    1.385   .     S
C530   C400    1.402   1_655 S
C531   O585    1.385   .     S
C531   C546    1.405   .     A
C531   C422    1.402   1_655 S
C532   O587    1.385   .     S
C532   C547    1.404   .     A
C533   C537    1.399   .     A
C533   H557    1.084   .     S
C533   C544    1.398   .     A
C534   C538    1.391   .     A
C534   H565    1.084   .     S
C534   C545    1.395   .     A
C535   C545    1.396   .     A
C535   C539    1.391   .     A
C535   H566    1.084   .     S
C536   C541    1.392   .     A
C536   H567    1.084   .     S
C536   C544    1.399   .     A
C537   C542    1.408   .     A
C537   O579    1.382   .     S
C538   O580    1.375   .     S
C538   C543    1.424   .     A
C539   C543    1.424   .     A
C539   O581    1.377   .     S
C540   O586    1.299   .     A
C540   O588    1.299   .     A
C540   C546    1.448   .     S
C541   C542    1.420   .     A
C541   O582    1.382   .     S
C542   C548    1.458   .     S
C543   C549    1.485   .     S
C544   C1139   1.467   1_554 S
C545   C1138   1.467   .     S
C547   C554    1.414   .     A
C548   O590    1.302   .     A
C548   O593    1.302   .     A
C549   O591    1.309   .     A
C549   O592    1.310   .     A
C550   O594    1.375   .     S
C550   N574    1.378   .     A
C551   N573    1.378   .     A
C551   O576    1.375   .     S
C551   C156    1.413   1_565 S
C552   N574    1.379   .     A
C552   O577    1.374   .     S
C553   N573    1.378   .     A
C553   O578    1.373   .     S
C553   C154    1.413   1_565 S
C554   O583    1.385   .     S
Cu555  N573    2.038   .     S
Cu555  O590    1.961   .     S
Cu555  O588    1.956   .     S
Cu555  O592    1.958   .     S
Cu555  O575    1.960   .     S
Cu555  Cu556   2.712   .     S
Cu556  O586    1.960   .     S
Cu556  O593    1.958   .     S
Cu556  N574    2.038   .     S
Cu556  O589    1.956   .     S
Cu556  O591    1.961   .     S
H558   O580    0.991   .     S
H559   O581    0.991   .     S
H560   O582    0.988   .     S
H561   O583    0.989   .     S
H562   O584    0.988   .     S
H563   O585    0.989   .     S
H564   O587    0.989   .     S
H568   O594    0.982   .     S
H569   O576    0.981   .     S
H570   O577    0.980   .     S
H571   O578    0.980   .     S
H572   O579    0.992   .     S
C595   C613    1.448   .     S
C595   O641    1.298   .     A
C595   O655    1.299   .     A
C596   C612    1.414   .     A
C596   O650    1.385   .     S
C596   C664    1.402   .     S
C597   O651    1.385   .     S
C597   C612    1.405   .     A
C597   C686    1.402   .     S
C598   O653    1.385   .     S
C598   C613    1.404   .     A
C598   C728    1.402   1_455 S
C599   C603    1.399   .     A
C599   H623    1.084   .     S
C599   C610    1.398   .     A
C600   C604    1.391   .     A
C600   H631    1.084   .     S
C600   C611    1.395   .     A
C601   C611    1.396   .     A
C601   C605    1.391   .     A
C601   H632    1.084   .     S
C602   C607    1.392   .     A
C602   H633    1.084   .     S
C602   C610    1.399   .     A
C603   C608    1.408   .     A
C603   O645    1.382   .     S
C604   O646    1.375   .     S
C604   C609    1.424   .     A
C605   C609    1.424   .     A
C605   O647    1.377   .     S
C606   O652    1.299   .     A
C606   O654    1.299   .     A
C606   C612    1.448   .     S
C607   C608    1.420   .     A
C607   O648    1.382   .     S
C608   C614    1.458   .     S
C609   C615    1.485   .     S
C611   C16     1.467   1_556 S
C613   C620    1.414   .     A
C614   O656    1.302   .     A
C614   O659    1.302   .     A
C615   O657    1.309   .     A
C615   O658    1.310   .     A
C616   O660    1.375   .     S
C616   N640    1.378   .     A
C616   C1015   1.413   1_545 S
C617   N639    1.378   .     A
C617   O642    1.375   .     S
C617   C816    1.413   .     S
C618   N640    1.379   .     A
C618   O643    1.374   .     S
C618   C1013   1.413   1_545 S
C619   N639    1.378   .     A
C619   O644    1.373   .     S
C619   C814    1.413   .     S
C620   O649    1.385   .     S
C620   C729    1.402   1_455 S
Cu621  N639    2.038   .     S
Cu621  O656    1.961   .     S
Cu621  O654    1.956   .     S
Cu621  O658    1.958   .     S
Cu621  O641    1.960   .     S
Cu621  Cu622   2.712   .     S
Cu622  O652    1.960   .     S
Cu622  O659    1.958   .     S
Cu622  N640    2.038   .     S
Cu622  O655    1.956   .     S
Cu622  O657    1.961   .     S
H624   O646    0.991   .     S
H625   O647    0.991   .     S
H626   O648    0.988   .     S
H627   O649    0.989   .     S
H628   O650    0.988   .     S
H629   O651    0.989   .     S
H630   O653    0.989   .     S
H634   O660    0.982   .     S
H635   O642    0.981   .     S
H636   O643    0.980   .     S
H637   O644    0.980   .     S
H638   O645    0.992   .     S
C661   C679    1.448   .     S
C661   O707    1.298   .     A
C661   O721    1.299   .     A
C662   C678    1.414   .     A
C662   O716    1.385   .     S
C662   C730    1.402   .     S
C663   O717    1.385   .     S
C663   C678    1.405   .     A
C663   C752    1.402   .     S
C664   O719    1.385   .     S
C664   C679    1.404   .     A
C665   C669    1.399   .     A
C665   H689    1.084   .     S
C665   C676    1.398   .     A
C666   C670    1.391   .     A
C666   H697    1.084   .     S
C666   C677    1.395   .     A
C667   C677    1.396   .     A
C667   C671    1.391   .     A
C667   H698    1.084   .     S
C668   C673    1.392   .     A
C668   H699    1.084   .     S
C668   C676    1.399   .     A
C669   C674    1.408   .     A
C669   O711    1.382   .     S
C670   O712    1.375   .     S
C670   C675    1.424   .     A
C671   C675    1.424   .     A
C671   O713    1.377   .     S
C672   O718    1.299   .     A
C672   O720    1.299   .     A
C672   C678    1.448   .     S
C673   C674    1.420   .     A
C673   O714    1.382   .     S
C674   C680    1.458   .     S
C675   C681    1.485   .     S
C677   C82     1.467   1_556 S
C679   C686    1.414   .     A
C680   O722    1.302   .     A
C680   O725    1.302   .     A
C681   O723    1.309   .     A
C681   O724    1.310   .     A
C682   O726    1.375   .     S
C682   N706    1.378   .     A
C682   C1081   1.413   1_545 S
C683   N705    1.378   .     A
C683   O708    1.375   .     S
C683   C882    1.413   .     S
C684   N706    1.379   .     A
C684   O709    1.374   .     S
C684   C1079   1.413   1_545 S
C685   N705    1.378   .     A
C685   O710    1.373   .     S
C685   C880    1.413   .     S
C686   O715    1.385   .     S
Cu687  N705    2.038   .     S
Cu687  O722    1.961   .     S
Cu687  O720    1.956   .     S
Cu687  O724    1.958   .     S
Cu687  O707    1.960   .     S
Cu687  Cu688   2.712   .     S
Cu688  O718    1.960   .     S
Cu688  O725    1.958   .     S
Cu688  N706    2.038   .     S
Cu688  O721    1.956   .     S
Cu688  O723    1.961   .     S
H690   O712    0.991   .     S
H691   O713    0.991   .     S
H692   O714    0.988   .     S
H693   O715    0.989   .     S
H694   O716    0.988   .     S
H695   O717    0.989   .     S
H696   O719    0.989   .     S
H700   O726    0.982   .     S
H701   O708    0.981   .     S
H702   O709    0.980   .     S
H703   O710    0.980   .     S
H704   O711    0.992   .     S
C727   C745    1.448   .     S
C727   O773    1.298   .     A
C727   O787    1.299   .     A
C728   C744    1.414   .     A
C728   O782    1.385   .     S
C728   C598    1.402   1_655 S
C729   O783    1.385   .     S
C729   C744    1.405   .     A
C729   C620    1.402   1_655 S
C730   O785    1.385   .     S
C730   C745    1.404   .     A
C731   C735    1.399   .     A
C731   H755    1.084   .     S
C731   C742    1.398   .     A
C732   C736    1.391   .     A
C732   H763    1.084   .     S
C732   C743    1.395   .     A
C733   C743    1.396   .     A
C733   C737    1.391   .     A
C733   H764    1.084   .     S
C734   C739    1.392   .     A
C734   H765    1.084   .     S
C734   C742    1.399   .     A
C735   C740    1.408   .     A
C735   O777    1.382   .     S
C736   O778    1.375   .     S
C736   C741    1.424   .     A
C737   C741    1.424   .     A
C737   O779    1.377   .     S
C738   O784    1.299   .     A
C738   O786    1.299   .     A
C738   C744    1.448   .     S
C739   C740    1.420   .     A
C739   O780    1.382   .     S
C740   C746    1.458   .     S
C741   C747    1.485   .     S
C743   C148    1.467   1_556 S
C745   C752    1.414   .     A
C746   O788    1.302   .     A
C746   O791    1.302   .     A
C747   O789    1.309   .     A
C747   O790    1.310   .     A
C748   O792    1.375   .     S
C748   N772    1.378   .     A
C748   C1147   1.413   1_545 S
C749   N771    1.378   .     A
C749   O774    1.375   .     S
C749   C948    1.413   .     S
C750   N772    1.379   .     A
C750   O775    1.374   .     S
C750   C1145   1.413   1_545 S
C751   N771    1.378   .     A
C751   O776    1.373   .     S
C751   C946    1.413   .     S
C752   O781    1.385   .     S
Cu753  N771    2.038   .     S
Cu753  O788    1.961   .     S
Cu753  O786    1.956   .     S
Cu753  O790    1.958   .     S
Cu753  O773    1.960   .     S
Cu753  Cu754   2.712   .     S
Cu754  O784    1.960   .     S
Cu754  O791    1.958   .     S
Cu754  N772    2.038   .     S
Cu754  O787    1.956   .     S
Cu754  O789    1.961   .     S
H756   O778    0.991   .     S
H757   O779    0.991   .     S
H758   O780    0.988   .     S
H759   O781    0.989   .     S
H760   O782    0.988   .     S
H761   O783    0.989   .     S
H762   O785    0.989   .     S
H766   O792    0.982   .     S
H767   O774    0.981   .     S
H768   O775    0.980   .     S
H769   O776    0.980   .     S
H770   O777    0.992   .     S
C793   C811    1.448   .     S
C793   O839    1.298   .     A
C793   O853    1.299   .     A
C794   C810    1.414   .     A
C794   O848    1.385   .     S
C794   C862    1.402   .     S
C795   O849    1.385   .     S
C795   C810    1.405   .     A
C795   C884    1.402   .     S
C796   O851    1.385   .     S
C796   C811    1.404   .     A
C796   C926    1.402   1_455 S
C797   C801    1.399   .     A
C797   H821    1.084   .     S
C797   C808    1.398   .     A
C798   C802    1.391   .     A
C798   H829    1.084   .     S
C798   C809    1.395   .     A
C799   C809    1.396   .     A
C799   C803    1.391   .     A
C799   H830    1.084   .     S
C800   C805    1.392   .     A
C800   H831    1.084   .     S
C800   C808    1.399   .     A
C801   C806    1.408   .     A
C801   O843    1.382   .     S
C802   O844    1.375   .     S
C802   C807    1.424   .     A
C803   C807    1.424   .     A
C803   O845    1.377   .     S
C804   O850    1.299   .     A
C804   O852    1.299   .     A
C804   C810    1.448   .     S
C805   C806    1.420   .     A
C805   O846    1.382   .     S
C806   C812    1.458   .     S
C807   C813    1.485   .     S
C809   C214    1.467   1_556 S
C811   C818    1.414   .     A
C812   O854    1.302   .     A
C812   O857    1.302   .     A
C813   O855    1.309   .     A
C813   O856    1.310   .     A
C814   O858    1.375   .     S
C814   N838    1.378   .     A
C815   N837    1.378   .     A
C815   O840    1.375   .     S
C815   C1014   1.413   .     S
C816   N838    1.379   .     A
C816   O841    1.374   .     S
C817   N837    1.378   .     A
C817   O842    1.373   .     S
C817   C1012   1.413   .     S
C818   O847    1.385   .     S
C818   C927    1.402   1_455 S
Cu819  N837    2.038   .     S
Cu819  O854    1.961   .     S
Cu819  O852    1.956   .     S
Cu819  O856    1.958   .     S
Cu819  O839    1.960   .     S
Cu819  Cu820   2.712   .     S
Cu820  O850    1.960   .     S
Cu820  O857    1.958   .     S
Cu820  N838    2.038   .     S
Cu820  O853    1.956   .     S
Cu820  O855    1.961   .     S
H822   O844    0.991   .     S
H823   O845    0.991   .     S
H824   O846    0.988   .     S
H825   O847    0.989   .     S
H826   O848    0.988   .     S
H827   O849    0.989   .     S
H828   O851    0.989   .     S
H832   O858    0.982   .     S
H833   O840    0.981   .     S
H834   O841    0.980   .     S
H835   O842    0.980   .     S
H836   O843    0.992   .     S
C859   C877    1.448   .     S
C859   O905    1.298   .     A
C859   O919    1.299   .     A
C860   C876    1.414   .     A
C860   O914    1.385   .     S
C860   C928    1.402   .     S
C861   O915    1.385   .     S
C861   C876    1.405   .     A
C861   C950    1.402   .     S
C862   O917    1.385   .     S
C862   C877    1.404   .     A
C863   C867    1.399   .     A
C863   H887    1.084   .     S
C863   C874    1.398   .     A
C864   C868    1.391   .     A
C864   H895    1.084   .     S
C864   C875    1.395   .     A
C865   C875    1.396   .     A
C865   C869    1.391   .     A
C865   H896    1.084   .     S
C866   C871    1.392   .     A
C866   H897    1.084   .     S
C866   C874    1.399   .     A
C867   C872    1.408   .     A
C867   O909    1.382   .     S
C868   O910    1.375   .     S
C868   C873    1.424   .     A
C869   C873    1.424   .     A
C869   O911    1.377   .     S
C870   O916    1.299   .     A
C870   O918    1.299   .     A
C870   C876    1.448   .     S
C871   C872    1.420   .     A
C871   O912    1.382   .     S
C872   C878    1.458   .     S
C873   C879    1.485   .     S
C875   C280    1.467   1_556 S
C877   C884    1.414   .     A
C878   O920    1.302   .     A
C878   O923    1.302   .     A
C879   O921    1.309   .     A
C879   O922    1.310   .     A
C880   O924    1.375   .     S
C880   N904    1.378   .     A
C881   N903    1.378   .     A
C881   O906    1.375   .     S
C881   C1080   1.413   .     S
C882   N904    1.379   .     A
C882   O907    1.374   .     S
C883   N903    1.378   .     A
C883   O908    1.373   .     S
C883   C1078   1.413   .     S
C884   O913    1.385   .     S
Cu885  N903    2.038   .     S
Cu885  O920    1.961   .     S
Cu885  O918    1.956   .     S
Cu885  O922    1.958   .     S
Cu885  O905    1.960   .     S
Cu885  Cu886   2.712   .     S
Cu886  O916    1.960   .     S
Cu886  O923    1.958   .     S
Cu886  N904    2.038   .     S
Cu886  O919    1.956   .     S
Cu886  O921    1.961   .     S
H888   O910    0.991   .     S
H889   O911    0.991   .     S
H890   O912    0.988   .     S
H891   O913    0.989   .     S
H892   O914    0.988   .     S
H893   O915    0.989   .     S
H894   O917    0.989   .     S
H898   O924    0.982   .     S
H899   O906    0.981   .     S
H900   O907    0.980   .     S
H901   O908    0.980   .     S
H902   O909    0.992   .     S
C925   C943    1.448   .     S
C925   O971    1.298   .     A
C925   O985    1.299   .     A
C926   C942    1.414   .     A
C926   O980    1.385   .     S
C926   C796    1.402   1_655 S
C927   O981    1.385   .     S
C927   C942    1.405   .     A
C927   C818    1.402   1_655 S
C928   O983    1.385   .     S
C928   C943    1.404   .     A
C929   C933    1.399   .     A
C929   H953    1.084   .     S
C929   C940    1.398   .     A
C930   C934    1.391   .     A
C930   H961    1.084   .     S
C930   C941    1.395   .     A
C931   C941    1.396   .     A
C931   C935    1.391   .     A
C931   H962    1.084   .     S
C932   C937    1.392   .     A
C932   H963    1.084   .     S
C932   C940    1.399   .     A
C933   C938    1.408   .     A
C933   O975    1.382   .     S
C934   O976    1.375   .     S
C934   C939    1.424   .     A
C935   C939    1.424   .     A
C935   O977    1.377   .     S
C936   O982    1.299   .     A
C936   O984    1.299   .     A
C936   C942    1.448   .     S
C937   C938    1.420   .     A
C937   O978    1.382   .     S
C938   C944    1.458   .     S
C939   C945    1.485   .     S
C941   C346    1.467   1_556 S
C943   C950    1.414   .     A
C944   O986    1.302   .     A
C944   O989    1.302   .     A
C945   O987    1.309   .     A
C945   O988    1.310   .     A
C946   O990    1.375   .     S
C946   N970    1.378   .     A
C947   N969    1.378   .     A
C947   O972    1.375   .     S
C947   C1146   1.413   .     S
C948   N970    1.379   .     A
C948   O973    1.374   .     S
C949   N969    1.378   .     A
C949   O974    1.373   .     S
C949   C1144   1.413   .     S
C950   O979    1.385   .     S
Cu951  N969    2.038   .     S
Cu951  O986    1.961   .     S
Cu951  O984    1.956   .     S
Cu951  O988    1.958   .     S
Cu951  O971    1.960   .     S
Cu951  Cu952   2.712   .     S
Cu952  O982    1.960   .     S
Cu952  O989    1.958   .     S
Cu952  N970    2.038   .     S
Cu952  O985    1.956   .     S
Cu952  O987    1.961   .     S
H954   O976    0.991   .     S
H955   O977    0.991   .     S
H956   O978    0.988   .     S
H957   O979    0.989   .     S
H958   O980    0.988   .     S
H959   O981    0.989   .     S
H960   O983    0.989   .     S
H964   O990    0.982   .     S
H965   O972    0.981   .     S
H966   O973    0.980   .     S
H967   O974    0.980   .     S
H968   O975    0.992   .     S
C991   C1009   1.448   .     S
C991   O1037   1.298   .     A
C991   O1051   1.299   .     A
C992   C1008   1.414   .     A
C992   O1046   1.385   .     S
C992   C1060   1.402   .     S
C993   O1047   1.385   .     S
C993   C1008   1.405   .     A
C993   C1082   1.402   .     S
C994   O1049   1.385   .     S
C994   C1009   1.404   .     A
C994   C1124   1.402   1_455 S
C995   C999    1.399   .     A
C995   H1019   1.084   .     S
C995   C1006   1.398   .     A
C996   C1000   1.391   .     A
C996   H1027   1.084   .     S
C996   C1007   1.395   .     A
C997   C1007   1.396   .     A
C997   C1001   1.391   .     A
C997   H1028   1.084   .     S
C998   C1003   1.392   .     A
C998   H1029   1.084   .     S
C998   C1006   1.399   .     A
C999   C1004   1.408   .     A
C999   O1041   1.382   .     S
C1000  O1042   1.375   .     S
C1000  C1005   1.424   .     A
C1001  C1005   1.424   .     A
C1001  O1043   1.377   .     S
C1002  O1048   1.299   .     A
C1002  O1050   1.299   .     A
C1002  C1008   1.448   .     S
C1003  C1004   1.420   .     A
C1003  O1044   1.382   .     S
C1004  C1010   1.458   .     S
C1005  C1011   1.485   .     S
C1007  C412    1.467   1_556 S
C1009  C1016   1.414   .     A
C1010  O1052   1.302   .     A
C1010  O1055   1.302   .     A
C1011  O1053   1.309   .     A
C1011  O1054   1.310   .     A
C1012  O1056   1.375   .     S
C1012  N1036   1.378   .     A
C1013  N1035   1.378   .     A
C1013  O1038   1.375   .     S
C1013  C618    1.413   1_565 S
C1014  N1036   1.379   .     A
C1014  O1039   1.374   .     S
C1015  N1035   1.378   .     A
C1015  O1040   1.373   .     S
C1015  C616    1.413   1_565 S
C1016  O1045   1.385   .     S
C1016  C1125   1.402   1_455 S
Cu1017 N1035   2.038   .     S
Cu1017 O1052   1.961   .     S
Cu1017 O1050   1.956   .     S
Cu1017 O1054   1.958   .     S
Cu1017 O1037   1.960   .     S
Cu1017 Cu1018  2.712   .     S
Cu1018 O1048   1.960   .     S
Cu1018 O1055   1.958   .     S
Cu1018 N1036   2.038   .     S
Cu1018 O1051   1.956   .     S
Cu1018 O1053   1.961   .     S
H1020  O1042   0.991   .     S
H1021  O1043   0.991   .     S
H1022  O1044   0.988   .     S
H1023  O1045   0.989   .     S
H1024  O1046   0.988   .     S
H1025  O1047   0.989   .     S
H1026  O1049   0.989   .     S
H1030  O1056   0.982   .     S
H1031  O1038   0.981   .     S
H1032  O1039   0.980   .     S
H1033  O1040   0.980   .     S
H1034  O1041   0.992   .     S
C1057  C1075   1.448   .     S
C1057  O1103   1.298   .     A
C1057  O1117   1.299   .     A
C1058  C1074   1.414   .     A
C1058  O1112   1.385   .     S
C1058  C1126   1.402   .     S
C1059  O1113   1.385   .     S
C1059  C1074   1.405   .     A
C1059  C1148   1.402   .     S
C1060  O1115   1.385   .     S
C1060  C1075   1.404   .     A
C1061  C1065   1.399   .     A
C1061  H1085   1.084   .     S
C1061  C1072   1.398   .     A
C1062  C1066   1.391   .     A
C1062  H1093   1.084   .     S
C1062  C1073   1.395   .     A
C1063  C1073   1.396   .     A
C1063  C1067   1.391   .     A
C1063  H1094   1.084   .     S
C1064  C1069   1.392   .     A
C1064  H1095   1.084   .     S
C1064  C1072   1.399   .     A
C1065  C1070   1.408   .     A
C1065  O1107   1.382   .     S
C1066  O1108   1.375   .     S
C1066  C1071   1.424   .     A
C1067  C1071   1.424   .     A
C1067  O1109   1.377   .     S
C1068  O1114   1.299   .     A
C1068  O1116   1.299   .     A
C1068  C1074   1.448   .     S
C1069  C1070   1.420   .     A
C1069  O1110   1.382   .     S
C1070  C1076   1.458   .     S
C1071  C1077   1.485   .     S
C1073  C478    1.467   1_556 S
C1075  C1082   1.414   .     A
C1076  O1118   1.302   .     A
C1076  O1121   1.302   .     A
C1077  O1119   1.309   .     A
C1077  O1120   1.310   .     A
C1078  O1122   1.375   .     S
C1078  N1102   1.378   .     A
C1079  N1101   1.378   .     A
C1079  O1104   1.375   .     S
C1079  C684    1.413   1_565 S
C1080  N1102   1.379   .     A
C1080  O1105   1.374   .     S
C1081  N1101   1.378   .     A
C1081  O1106   1.373   .     S
C1081  C682    1.413   1_565 S
C1082  O1111   1.385   .     S
Cu1083 N1101   2.038   .     S
Cu1083 O1118   1.961   .     S
Cu1083 O1116   1.956   .     S
Cu1083 O1120   1.958   .     S
Cu1083 O1103   1.960   .     S
Cu1083 Cu1084  2.712   .     S
Cu1084 O1114   1.960   .     S
Cu1084 O1121   1.958   .     S
Cu1084 N1102   2.038   .     S
Cu1084 O1117   1.956   .     S
Cu1084 O1119   1.961   .     S
H1086  O1108   0.991   .     S
H1087  O1109   0.991   .     S
H1088  O1110   0.988   .     S
H1089  O1111   0.989   .     S
H1090  O1112   0.988   .     S
H1091  O1113   0.989   .     S
H1092  O1115   0.989   .     S
H1096  O1122   0.982   .     S
H1097  O1104   0.981   .     S
H1098  O1105   0.980   .     S
H1099  O1106   0.980   .     S
H1100  O1107   0.992   .     S
C1123  C1141   1.448   .     S
C1123  O1169   1.298   .     A
C1123  O1183   1.299   .     A
C1124  C1140   1.414   .     A
C1124  O1178   1.385   .     S
C1124  C994    1.402   1_655 S
C1125  O1179   1.385   .     S
C1125  C1140   1.405   .     A
C1125  C1016   1.402   1_655 S
C1126  O1181   1.385   .     S
C1126  C1141   1.404   .     A
C1127  C1131   1.399   .     A
C1127  H1151   1.084   .     S
C1127  C1138   1.398   .     A
C1128  C1132   1.391   .     A
C1128  H1159   1.084   .     S
C1128  C1139   1.395   .     A
C1129  C1139   1.396   .     A
C1129  C1133   1.391   .     A
C1129  H1160   1.084   .     S
C1130  C1135   1.392   .     A
C1130  H1161   1.084   .     S
C1130  C1138   1.399   .     A
C1131  C1136   1.408   .     A
C1131  O1173   1.382   .     S
C1132  O1174   1.375   .     S
C1132  C1137   1.424   .     A
C1133  C1137   1.424   .     A
C1133  O1175   1.377   .     S
C1134  O1180   1.299   .     A
C1134  O1182   1.299   .     A
C1134  C1140   1.448   .     S
C1135  C1136   1.420   .     A
C1135  O1176   1.382   .     S
C1136  C1142   1.458   .     S
C1137  C1143   1.485   .     S
C1139  C544    1.467   1_556 S
C1141  C1148   1.414   .     A
C1142  O1184   1.302   .     A
C1142  O1187   1.302   .     A
C1143  O1185   1.309   .     A
C1143  O1186   1.310   .     A
C1144  O1188   1.375   .     S
C1144  N1168   1.378   .     A
C1145  N1167   1.378   .     A
C1145  O1170   1.375   .     S
C1145  C750    1.413   1_565 S
C1146  N1168   1.379   .     A
C1146  O1171   1.374   .     S
C1147  N1167   1.378   .     A
C1147  O1172   1.373   .     S
C1147  C748    1.413   1_565 S
C1148  O1177   1.385   .     S
Cu1149 N1167   2.038   .     S
Cu1149 O1184   1.961   .     S
Cu1149 O1182   1.956   .     S
Cu1149 O1186   1.958   .     S
Cu1149 O1169   1.960   .     S
Cu1149 Cu1150  2.712   .     S
Cu1150 O1180   1.960   .     S
Cu1150 O1187   1.958   .     S
Cu1150 N1168   2.038   .     S
Cu1150 O1183   1.956   .     S
Cu1150 O1185   1.961   .     S
H1152  O1174   0.991   .     S
H1153  O1175   0.991   .     S
H1154  O1176   0.988   .     S
H1155  O1177   0.989   .     S
H1156  O1178   0.988   .     S
H1157  O1179   0.989   .     S
H1158  O1181   0.989   .     S
H1162  O1188   0.982   .     S
H1163  O1170   0.981   .     S
H1164  O1171   0.980   .     S
H1165  O1172   0.980   .     S
H1166  O1173   0.992   .     S
