data_str_m2_o10_o16_pcu_sym.111
_audit_creation_date              2020-01-03
_audit_creation_method            'Materials Studio'
_symmetry_space_group_name_H-M    'P1'
_symmetry_Int_Tables_number       1
_symmetry_cell_setting            triclinic
loop_
_symmetry_equiv_pos_as_xyz
  x,y,z
_cell_length_a                    22.2732
_cell_length_b                    26.0830
_cell_length_c                    26.8018
_cell_angle_alpha                 94.0217
_cell_angle_beta                  77.1754
_cell_angle_gamma                 103.1606
loop_
_atom_site_label
_atom_site_type_symbol
_atom_site_fract_x
_atom_site_fract_y
_atom_site_fract_z
_atom_site_U_iso_or_equiv
_atom_site_adp_type
_atom_site_occupancy
C1     C     0.18179   0.26674   0.25150   0.00000  Uiso   1.00
C2     C     0.13921   0.17015   0.48791   0.00000  Uiso   1.00
C3     C     0.15485   0.18550   0.43601   0.00000  Uiso   1.00
C4     C     0.18665   0.18340   0.01760   0.00000  Uiso   1.00
C5     C     0.24634   0.21527   0.49643   0.00000  Uiso   1.00
C6     C     0.25796   0.23489   0.44741   0.00000  Uiso   1.00
C7     C     0.21263   0.22104   0.41800   0.00000  Uiso   1.00
C8     C     0.17684   0.16569   0.06756   0.00000  Uiso   1.00
C9     C     0.28248   0.21221   0.07538   0.00000  Uiso   1.00
C10    C     0.11206   0.16521   0.40352   0.00000  Uiso   1.00
C11    C     0.19032   0.32269   0.25222   0.00000  Uiso   1.00
C12    C     0.13304   0.16598   0.34729   0.00000  Uiso   1.00
C13    C     0.14304   0.01063   0.24771   0.00000  Uiso   1.00
C14    C     0.15156   0.06659   0.24848   0.00000  Uiso   1.00
C15    C     0.20103   0.17151   0.15284   0.00000  Uiso   1.00
C16    C     0.29371   0.22833   0.02477   0.00000  Uiso   1.00
C17    C     0.22235   0.18166   0.09750   0.00000  Uiso   1.00
C18    C     0.05066   0.13819   0.42483   0.00000  Uiso   1.00
C19    C     0.03291   0.12805   0.47681   0.00000  Uiso   1.00
C20    C     0.07669   0.14258   0.00792   0.00000  Uiso   1.00
Cu21   Cu    0.10710   0.16105   0.24436   0.00000  Uiso   1.00
Cu22   Cu    0.22623   0.17228   0.25565   0.00000  Uiso   1.00
H23    H     0.09748   0.32016   0.24343   0.00000  Uiso   1.00
H24    H     0.00357   0.20579   0.28973   0.00000  Uiso   1.00
H25    H     0.32976   0.12757   0.21025   0.00000  Uiso   1.00
H26    H     0.30245   0.26116   0.43163   0.00000  Uiso   1.00
H27    H     0.00596   0.25229   0.00762   0.00000  Uiso   1.00
H28    H     0.13325   0.13972   0.08471   0.00000  Uiso   1.00
H29    H     0.01680   0.12333   0.40099   0.00000  Uiso   1.00
H30    H     0.05954   0.13261   0.04763   0.00000  Uiso   1.00
H31    H     0.31861   0.10730   0.49291   0.00000  Uiso   1.00
H32    H     0.22321   0.23952   0.38130   0.00000  Uiso   1.00
H33    H     0.23588   0.01316   0.25649   0.00000  Uiso   1.00
N34    N     0.31574   0.18074   0.26416   0.00000  Uiso   1.00
N35    N     0.01759   0.15259   0.23584   0.00000  Uiso   1.00
O36    O     0.12797   0.23807   0.24633   0.00000  Uiso   1.00
O37    O     0.22858   0.24755   0.25587   0.00000  Uiso   1.00
O38    O     0.09181   0.15960   0.31839   0.00000  Uiso   1.00
O39    O     0.19242   0.16908   0.32793   0.00000  Uiso   1.00
O40    O     0.10476   0.08578   0.24414   0.00000  Uiso   1.00
O41    O     0.20536   0.09526   0.25367   0.00000  Uiso   1.00
O42    O     0.14092   0.16425   0.17207   0.00000  Uiso   1.00
O43    O     0.24152   0.17373   0.18161   0.00000  Uiso   1.00
C44    C     0.00098   0.22980   0.10478   0.00000  Uiso   1.00
H45    H     0.31881   0.25502   0.13808   0.00000  Uiso   1.00
H46    H     0.01344   0.19496   0.11802   0.00000  Uiso   1.00
H47    H     0.04460   0.25308   0.08080   0.00000  Uiso   1.00
C48    C     0.51512   0.26674   0.25150   0.00000  Uiso   1.00
C49    C     0.47254   0.17015   0.48791   0.00000  Uiso   1.00
C50    C     0.48819   0.18550   0.43601   0.00000  Uiso   1.00
C51    C     0.51999   0.18340   0.01760   0.00000  Uiso   1.00
C52    C     0.57967   0.21527   0.49643   0.00000  Uiso   1.00
C53    C     0.59130   0.23489   0.44741   0.00000  Uiso   1.00
C54    C     0.54596   0.22104   0.41800   0.00000  Uiso   1.00
C55    C     0.51017   0.16569   0.06756   0.00000  Uiso   1.00
C56    C     0.61582   0.21221   0.07538   0.00000  Uiso   1.00
C57    C     0.44539   0.16521   0.40352   0.00000  Uiso   1.00
C58    C     0.52365   0.32269   0.25222   0.00000  Uiso   1.00
C59    C     0.46637   0.16598   0.34729   0.00000  Uiso   1.00
C60    C     0.47638   0.01063   0.24771   0.00000  Uiso   1.00
C61    C     0.48489   0.06659   0.24848   0.00000  Uiso   1.00
C62    C     0.53436   0.17151   0.15284   0.00000  Uiso   1.00
C63    C     0.62705   0.22833   0.02477   0.00000  Uiso   1.00
C64    C     0.55568   0.18166   0.09750   0.00000  Uiso   1.00
C65    C     0.38399   0.13819   0.42483   0.00000  Uiso   1.00
C66    C     0.36624   0.12805   0.47681   0.00000  Uiso   1.00
C67    C     0.41002   0.14258   0.00792   0.00000  Uiso   1.00
Cu68   Cu    0.44043   0.16105   0.24436   0.00000  Uiso   1.00
Cu69   Cu    0.55957   0.17228   0.25565   0.00000  Uiso   1.00
H70    H     0.43082   0.32016   0.24343   0.00000  Uiso   1.00
H71    H     0.33691   0.20579   0.28973   0.00000  Uiso   1.00
H72    H     0.66309   0.12757   0.21025   0.00000  Uiso   1.00
H73    H     0.63578   0.26116   0.43163   0.00000  Uiso   1.00
H74    H     0.33930   0.25229   0.00762   0.00000  Uiso   1.00
H75    H     0.46658   0.13972   0.08471   0.00000  Uiso   1.00
H76    H     0.35013   0.12333   0.40099   0.00000  Uiso   1.00
H77    H     0.39287   0.13261   0.04763   0.00000  Uiso   1.00
H78    H     0.65194   0.10730   0.49291   0.00000  Uiso   1.00
H79    H     0.55654   0.23952   0.38130   0.00000  Uiso   1.00
H80    H     0.56922   0.01316   0.25649   0.00000  Uiso   1.00
N81    N     0.64908   0.18074   0.26416   0.00000  Uiso   1.00
N82    N     0.35092   0.15259   0.23584   0.00000  Uiso   1.00
O83    O     0.46131   0.23807   0.24633   0.00000  Uiso   1.00
O84    O     0.56191   0.24755   0.25587   0.00000  Uiso   1.00
O85    O     0.42515   0.15960   0.31839   0.00000  Uiso   1.00
O86    O     0.52575   0.16908   0.32793   0.00000  Uiso   1.00
O87    O     0.43809   0.08578   0.24414   0.00000  Uiso   1.00
O88    O     0.53869   0.09526   0.25367   0.00000  Uiso   1.00
O89    O     0.47425   0.16425   0.17207   0.00000  Uiso   1.00
O90    O     0.57485   0.17373   0.18161   0.00000  Uiso   1.00
C91    C     0.33431   0.22980   0.10478   0.00000  Uiso   1.00
H92    H     0.65215   0.25502   0.13808   0.00000  Uiso   1.00
H93    H     0.34678   0.19496   0.11802   0.00000  Uiso   1.00
H94    H     0.37794   0.25308   0.08080   0.00000  Uiso   1.00
C95    C     0.84845   0.26674   0.25150   0.00000  Uiso   1.00
C96    C     0.80587   0.17015   0.48791   0.00000  Uiso   1.00
C97    C     0.82152   0.18550   0.43601   0.00000  Uiso   1.00
C98    C     0.85332   0.18340   0.01760   0.00000  Uiso   1.00
C99    C     0.91300   0.21527   0.49643   0.00000  Uiso   1.00
C100   C     0.92463   0.23489   0.44741   0.00000  Uiso   1.00
C101   C     0.87930   0.22104   0.41800   0.00000  Uiso   1.00
C102   C     0.84350   0.16569   0.06756   0.00000  Uiso   1.00
C103   C     0.94915   0.21221   0.07538   0.00000  Uiso   1.00
C104   C     0.77872   0.16521   0.40352   0.00000  Uiso   1.00
C105   C     0.85699   0.32269   0.25222   0.00000  Uiso   1.00
C106   C     0.79970   0.16598   0.34729   0.00000  Uiso   1.00
C107   C     0.80971   0.01063   0.24771   0.00000  Uiso   1.00
C108   C     0.81822   0.06659   0.24848   0.00000  Uiso   1.00
C109   C     0.86769   0.17151   0.15284   0.00000  Uiso   1.00
C110   C     0.96038   0.22833   0.02477   0.00000  Uiso   1.00
C111   C     0.88901   0.18166   0.09750   0.00000  Uiso   1.00
C112   C     0.71733   0.13819   0.42483   0.00000  Uiso   1.00
C113   C     0.69957   0.12805   0.47681   0.00000  Uiso   1.00
C114   C     0.74336   0.14258   0.00792   0.00000  Uiso   1.00
Cu115  Cu    0.77377   0.16105   0.24436   0.00000  Uiso   1.00
Cu116  Cu    0.89290   0.17228   0.25565   0.00000  Uiso   1.00
H117   H     0.76415   0.32016   0.24343   0.00000  Uiso   1.00
H118   H     0.67024   0.20579   0.28973   0.00000  Uiso   1.00
H119   H     0.99642   0.12757   0.21025   0.00000  Uiso   1.00
H120   H     0.96912   0.26116   0.43163   0.00000  Uiso   1.00
H121   H     0.67263   0.25229   0.00762   0.00000  Uiso   1.00
H122   H     0.79991   0.13972   0.08471   0.00000  Uiso   1.00
H123   H     0.68347   0.12333   0.40099   0.00000  Uiso   1.00
H124   H     0.72621   0.13261   0.04763   0.00000  Uiso   1.00
H125   H     0.98527   0.10730   0.49291   0.00000  Uiso   1.00
H126   H     0.88987   0.23952   0.38130   0.00000  Uiso   1.00
H127   H     0.90255   0.01316   0.25649   0.00000  Uiso   1.00
N128   N     0.98241   0.18074   0.26416   0.00000  Uiso   1.00
N129   N     0.68426   0.15259   0.23584   0.00000  Uiso   1.00
O130   O     0.79464   0.23807   0.24633   0.00000  Uiso   1.00
O131   O     0.89524   0.24755   0.25587   0.00000  Uiso   1.00
O132   O     0.75848   0.15960   0.31839   0.00000  Uiso   1.00
O133   O     0.85908   0.16908   0.32793   0.00000  Uiso   1.00
O134   O     0.77142   0.08578   0.24414   0.00000  Uiso   1.00
O135   O     0.87203   0.09526   0.25367   0.00000  Uiso   1.00
O136   O     0.80758   0.16425   0.17207   0.00000  Uiso   1.00
O137   O     0.90819   0.17373   0.18161   0.00000  Uiso   1.00
C138   C     0.66765   0.22980   0.10478   0.00000  Uiso   1.00
H139   H     0.98548   0.25502   0.13808   0.00000  Uiso   1.00
H140   H     0.68011   0.19496   0.11802   0.00000  Uiso   1.00
H141   H     0.71127   0.25308   0.08080   0.00000  Uiso   1.00
C142   C     0.18179   0.60007   0.25150   0.00000  Uiso   1.00
C143   C     0.13921   0.50349   0.48791   0.00000  Uiso   1.00
C144   C     0.15485   0.51883   0.43601   0.00000  Uiso   1.00
C145   C     0.18665   0.51674   0.01760   0.00000  Uiso   1.00
C146   C     0.24634   0.54860   0.49643   0.00000  Uiso   1.00
C147   C     0.25796   0.56822   0.44741   0.00000  Uiso   1.00
C148   C     0.21263   0.55437   0.41800   0.00000  Uiso   1.00
C149   C     0.17684   0.49902   0.06756   0.00000  Uiso   1.00
C150   C     0.28248   0.54554   0.07538   0.00000  Uiso   1.00
C151   C     0.11206   0.49854   0.40352   0.00000  Uiso   1.00
C152   C     0.19032   0.65603   0.25222   0.00000  Uiso   1.00
C153   C     0.13304   0.49931   0.34729   0.00000  Uiso   1.00
C154   C     0.14304   0.34397   0.24771   0.00000  Uiso   1.00
C155   C     0.15156   0.39993   0.24848   0.00000  Uiso   1.00
C156   C     0.20103   0.50484   0.15284   0.00000  Uiso   1.00
C157   C     0.29371   0.56167   0.02477   0.00000  Uiso   1.00
C158   C     0.22235   0.51499   0.09750   0.00000  Uiso   1.00
C159   C     0.05066   0.47152   0.42483   0.00000  Uiso   1.00
C160   C     0.03291   0.46139   0.47681   0.00000  Uiso   1.00
C161   C     0.07669   0.47591   0.00792   0.00000  Uiso   1.00
Cu162  Cu    0.10710   0.49439   0.24436   0.00000  Uiso   1.00
Cu163  Cu    0.22623   0.50561   0.25565   0.00000  Uiso   1.00
H164   H     0.09748   0.65349   0.24343   0.00000  Uiso   1.00
H165   H     0.00357   0.53912   0.28973   0.00000  Uiso   1.00
H166   H     0.32976   0.46091   0.21025   0.00000  Uiso   1.00
H167   H     0.30245   0.59449   0.43163   0.00000  Uiso   1.00
H168   H     0.00596   0.58562   0.00762   0.00000  Uiso   1.00
H169   H     0.13325   0.47306   0.08471   0.00000  Uiso   1.00
H170   H     0.01680   0.45666   0.40099   0.00000  Uiso   1.00
H171   H     0.05954   0.46594   0.04763   0.00000  Uiso   1.00
H172   H     0.31861   0.44064   0.49291   0.00000  Uiso   1.00
H173   H     0.22321   0.57286   0.38130   0.00000  Uiso   1.00
H174   H     0.23588   0.34649   0.25649   0.00000  Uiso   1.00
N175   N     0.31574   0.51407   0.26416   0.00000  Uiso   1.00
N176   N     0.01759   0.48593   0.23584   0.00000  Uiso   1.00
O177   O     0.12797   0.57141   0.24633   0.00000  Uiso   1.00
O178   O     0.22858   0.58089   0.25587   0.00000  Uiso   1.00
O179   O     0.09181   0.49293   0.31839   0.00000  Uiso   1.00
O180   O     0.19242   0.50241   0.32793   0.00000  Uiso   1.00
O181   O     0.10476   0.41911   0.24414   0.00000  Uiso   1.00
O182   O     0.20536   0.42859   0.25367   0.00000  Uiso   1.00
O183   O     0.14092   0.49759   0.17207   0.00000  Uiso   1.00
O184   O     0.24152   0.50707   0.18161   0.00000  Uiso   1.00
C185   C     0.00098   0.56313   0.10478   0.00000  Uiso   1.00
H186   H     0.31881   0.58836   0.13808   0.00000  Uiso   1.00
H187   H     0.01344   0.52829   0.11802   0.00000  Uiso   1.00
H188   H     0.04460   0.58641   0.08080   0.00000  Uiso   1.00
C189   C     0.51512   0.60007   0.25150   0.00000  Uiso   1.00
C190   C     0.47254   0.50349   0.48791   0.00000  Uiso   1.00
C191   C     0.48819   0.51883   0.43601   0.00000  Uiso   1.00
C192   C     0.51999   0.51674   0.01760   0.00000  Uiso   1.00
C193   C     0.57967   0.54860   0.49643   0.00000  Uiso   1.00
C194   C     0.59130   0.56822   0.44741   0.00000  Uiso   1.00
C195   C     0.54596   0.55437   0.41800   0.00000  Uiso   1.00
C196   C     0.51017   0.49902   0.06756   0.00000  Uiso   1.00
C197   C     0.61582   0.54554   0.07538   0.00000  Uiso   1.00
C198   C     0.44539   0.49854   0.40352   0.00000  Uiso   1.00
C199   C     0.52365   0.65603   0.25222   0.00000  Uiso   1.00
C200   C     0.46637   0.49931   0.34729   0.00000  Uiso   1.00
C201   C     0.47638   0.34397   0.24771   0.00000  Uiso   1.00
C202   C     0.48489   0.39993   0.24848   0.00000  Uiso   1.00
C203   C     0.53436   0.50484   0.15284   0.00000  Uiso   1.00
C204   C     0.62705   0.56167   0.02477   0.00000  Uiso   1.00
C205   C     0.55568   0.51499   0.09750   0.00000  Uiso   1.00
C206   C     0.38399   0.47152   0.42483   0.00000  Uiso   1.00
C207   C     0.36624   0.46139   0.47681   0.00000  Uiso   1.00
C208   C     0.41002   0.47591   0.00792   0.00000  Uiso   1.00
Cu209  Cu    0.44043   0.49439   0.24436   0.00000  Uiso   1.00
Cu210  Cu    0.55957   0.50561   0.25565   0.00000  Uiso   1.00
H211   H     0.43082   0.65349   0.24343   0.00000  Uiso   1.00
H212   H     0.33691   0.53912   0.28973   0.00000  Uiso   1.00
H213   H     0.66309   0.46091   0.21025   0.00000  Uiso   1.00
H214   H     0.63578   0.59449   0.43163   0.00000  Uiso   1.00
H215   H     0.33930   0.58562   0.00762   0.00000  Uiso   1.00
H216   H     0.46658   0.47306   0.08471   0.00000  Uiso   1.00
H217   H     0.35013   0.45666   0.40099   0.00000  Uiso   1.00
H218   H     0.39287   0.46594   0.04763   0.00000  Uiso   1.00
H219   H     0.65194   0.44064   0.49291   0.00000  Uiso   1.00
H220   H     0.55654   0.57286   0.38130   0.00000  Uiso   1.00
H221   H     0.56922   0.34649   0.25649   0.00000  Uiso   1.00
N222   N     0.64908   0.51407   0.26416   0.00000  Uiso   1.00
N223   N     0.35092   0.48593   0.23584   0.00000  Uiso   1.00
O224   O     0.46131   0.57141   0.24633   0.00000  Uiso   1.00
O225   O     0.56191   0.58089   0.25587   0.00000  Uiso   1.00
O226   O     0.42515   0.49293   0.31839   0.00000  Uiso   1.00
O227   O     0.52575   0.50241   0.32793   0.00000  Uiso   1.00
O228   O     0.43809   0.41911   0.24414   0.00000  Uiso   1.00
O229   O     0.53869   0.42859   0.25367   0.00000  Uiso   1.00
O230   O     0.47425   0.49759   0.17207   0.00000  Uiso   1.00
O231   O     0.57485   0.50707   0.18161   0.00000  Uiso   1.00
C232   C     0.33431   0.56313   0.10478   0.00000  Uiso   1.00
H233   H     0.65215   0.58836   0.13808   0.00000  Uiso   1.00
H234   H     0.34678   0.52829   0.11802   0.00000  Uiso   1.00
H235   H     0.37794   0.58641   0.08080   0.00000  Uiso   1.00
C236   C     0.84845   0.60007   0.25150   0.00000  Uiso   1.00
C237   C     0.80587   0.50349   0.48791   0.00000  Uiso   1.00
C238   C     0.82152   0.51883   0.43601   0.00000  Uiso   1.00
C239   C     0.85332   0.51674   0.01760   0.00000  Uiso   1.00
C240   C     0.91300   0.54860   0.49643   0.00000  Uiso   1.00
C241   C     0.92463   0.56822   0.44741   0.00000  Uiso   1.00
C242   C     0.87930   0.55437   0.41800   0.00000  Uiso   1.00
C243   C     0.84350   0.49902   0.06756   0.00000  Uiso   1.00
C244   C     0.94915   0.54554   0.07538   0.00000  Uiso   1.00
C245   C     0.77872   0.49854   0.40352   0.00000  Uiso   1.00
C246   C     0.85699   0.65603   0.25222   0.00000  Uiso   1.00
C247   C     0.79970   0.49931   0.34729   0.00000  Uiso   1.00
C248   C     0.80971   0.34397   0.24771   0.00000  Uiso   1.00
C249   C     0.81822   0.39993   0.24848   0.00000  Uiso   1.00
C250   C     0.86769   0.50484   0.15284   0.00000  Uiso   1.00
C251   C     0.96038   0.56167   0.02477   0.00000  Uiso   1.00
C252   C     0.88901   0.51499   0.09750   0.00000  Uiso   1.00
C253   C     0.71733   0.47152   0.42483   0.00000  Uiso   1.00
C254   C     0.69957   0.46139   0.47681   0.00000  Uiso   1.00
C255   C     0.74336   0.47591   0.00792   0.00000  Uiso   1.00
Cu256  Cu    0.77377   0.49439   0.24436   0.00000  Uiso   1.00
Cu257  Cu    0.89290   0.50561   0.25565   0.00000  Uiso   1.00
H258   H     0.76415   0.65349   0.24343   0.00000  Uiso   1.00
H259   H     0.67024   0.53912   0.28973   0.00000  Uiso   1.00
H260   H     0.99642   0.46091   0.21025   0.00000  Uiso   1.00
H261   H     0.96912   0.59449   0.43163   0.00000  Uiso   1.00
H262   H     0.67263   0.58562   0.00762   0.00000  Uiso   1.00
H263   H     0.79991   0.47306   0.08471   0.00000  Uiso   1.00
H264   H     0.68347   0.45666   0.40099   0.00000  Uiso   1.00
H265   H     0.72621   0.46594   0.04763   0.00000  Uiso   1.00
H266   H     0.98527   0.44064   0.49291   0.00000  Uiso   1.00
H267   H     0.88987   0.57286   0.38130   0.00000  Uiso   1.00
H268   H     0.90255   0.34649   0.25649   0.00000  Uiso   1.00
N269   N     0.98241   0.51407   0.26416   0.00000  Uiso   1.00
N270   N     0.68426   0.48593   0.23584   0.00000  Uiso   1.00
O271   O     0.79464   0.57141   0.24633   0.00000  Uiso   1.00
O272   O     0.89524   0.58089   0.25587   0.00000  Uiso   1.00
O273   O     0.75848   0.49293   0.31839   0.00000  Uiso   1.00
O274   O     0.85908   0.50241   0.32793   0.00000  Uiso   1.00
O275   O     0.77142   0.41911   0.24414   0.00000  Uiso   1.00
O276   O     0.87203   0.42859   0.25367   0.00000  Uiso   1.00
O277   O     0.80758   0.49759   0.17207   0.00000  Uiso   1.00
O278   O     0.90819   0.50707   0.18161   0.00000  Uiso   1.00
C279   C     0.66765   0.56313   0.10478   0.00000  Uiso   1.00
H280   H     0.98548   0.58836   0.13808   0.00000  Uiso   1.00
H281   H     0.68011   0.52829   0.11802   0.00000  Uiso   1.00
H282   H     0.71127   0.58641   0.08080   0.00000  Uiso   1.00
C283   C     0.18179   0.93341   0.25150   0.00000  Uiso   1.00
C284   C     0.13921   0.83682   0.48791   0.00000  Uiso   1.00
C285   C     0.15485   0.85217   0.43601   0.00000  Uiso   1.00
C286   C     0.18665   0.85007   0.01760   0.00000  Uiso   1.00
C287   C     0.24634   0.88194   0.49643   0.00000  Uiso   1.00
C288   C     0.25796   0.90155   0.44741   0.00000  Uiso   1.00
C289   C     0.21263   0.88770   0.41800   0.00000  Uiso   1.00
C290   C     0.17684   0.83235   0.06756   0.00000  Uiso   1.00
C291   C     0.28248   0.87888   0.07538   0.00000  Uiso   1.00
C292   C     0.11206   0.83187   0.40352   0.00000  Uiso   1.00
C293   C     0.19032   0.98936   0.25222   0.00000  Uiso   1.00
C294   C     0.13304   0.83265   0.34729   0.00000  Uiso   1.00
C295   C     0.14304   0.67730   0.24771   0.00000  Uiso   1.00
C296   C     0.15156   0.73326   0.24848   0.00000  Uiso   1.00
C297   C     0.20103   0.83818   0.15284   0.00000  Uiso   1.00
C298   C     0.29371   0.89500   0.02477   0.00000  Uiso   1.00
C299   C     0.22235   0.84833   0.09750   0.00000  Uiso   1.00
C300   C     0.05066   0.80486   0.42483   0.00000  Uiso   1.00
C301   C     0.03291   0.79472   0.47681   0.00000  Uiso   1.00
C302   C     0.07669   0.80924   0.00792   0.00000  Uiso   1.00
Cu303  Cu    0.10710   0.82772   0.24436   0.00000  Uiso   1.00
Cu304  Cu    0.22623   0.83895   0.25565   0.00000  Uiso   1.00
H305   H     0.09748   0.98683   0.24343   0.00000  Uiso   1.00
H306   H     0.00357   0.87246   0.28973   0.00000  Uiso   1.00
H307   H     0.32976   0.79424   0.21025   0.00000  Uiso   1.00
H308   H     0.30245   0.92783   0.43163   0.00000  Uiso   1.00
H309   H     0.00596   0.91896   0.00762   0.00000  Uiso   1.00
H310   H     0.13325   0.80639   0.08471   0.00000  Uiso   1.00
H311   H     0.01680   0.79000   0.40099   0.00000  Uiso   1.00
H312   H     0.05954   0.79928   0.04763   0.00000  Uiso   1.00
H313   H     0.31861   0.77397   0.49291   0.00000  Uiso   1.00
H314   H     0.22321   0.90619   0.38130   0.00000  Uiso   1.00
H315   H     0.23588   0.67983   0.25649   0.00000  Uiso   1.00
N316   N     0.31574   0.84741   0.26416   0.00000  Uiso   1.00
N317   N     0.01759   0.81926   0.23584   0.00000  Uiso   1.00
O318   O     0.12797   0.90474   0.24633   0.00000  Uiso   1.00
O319   O     0.22858   0.91422   0.25587   0.00000  Uiso   1.00
O320   O     0.09181   0.82627   0.31839   0.00000  Uiso   1.00
O321   O     0.19242   0.83575   0.32793   0.00000  Uiso   1.00
O322   O     0.10476   0.75245   0.24414   0.00000  Uiso   1.00
O323   O     0.20536   0.76193   0.25367   0.00000  Uiso   1.00
O324   O     0.14092   0.83092   0.17207   0.00000  Uiso   1.00
O325   O     0.24152   0.84040   0.18161   0.00000  Uiso   1.00
C326   C     0.00098   0.89646   0.10478   0.00000  Uiso   1.00
H327   H     0.31881   0.92169   0.13808   0.00000  Uiso   1.00
H328   H     0.01344   0.86162   0.11802   0.00000  Uiso   1.00
H329   H     0.04460   0.91975   0.08080   0.00000  Uiso   1.00
C330   C     0.51512   0.93341   0.25150   0.00000  Uiso   1.00
C331   C     0.47254   0.83682   0.48791   0.00000  Uiso   1.00
C332   C     0.48819   0.85217   0.43601   0.00000  Uiso   1.00
C333   C     0.51999   0.85007   0.01760   0.00000  Uiso   1.00
C334   C     0.57967   0.88194   0.49643   0.00000  Uiso   1.00
C335   C     0.59130   0.90155   0.44741   0.00000  Uiso   1.00
C336   C     0.54596   0.88770   0.41800   0.00000  Uiso   1.00
C337   C     0.51017   0.83235   0.06756   0.00000  Uiso   1.00
C338   C     0.61582   0.87888   0.07538   0.00000  Uiso   1.00
C339   C     0.44539   0.83187   0.40352   0.00000  Uiso   1.00
C340   C     0.52365   0.98936   0.25222   0.00000  Uiso   1.00
C341   C     0.46637   0.83265   0.34729   0.00000  Uiso   1.00
C342   C     0.47638   0.67730   0.24771   0.00000  Uiso   1.00
C343   C     0.48489   0.73326   0.24848   0.00000  Uiso   1.00
C344   C     0.53436   0.83818   0.15284   0.00000  Uiso   1.00
C345   C     0.62705   0.89500   0.02477   0.00000  Uiso   1.00
C346   C     0.55568   0.84833   0.09750   0.00000  Uiso   1.00
C347   C     0.38399   0.80486   0.42483   0.00000  Uiso   1.00
C348   C     0.36624   0.79472   0.47681   0.00000  Uiso   1.00
C349   C     0.41002   0.80924   0.00792   0.00000  Uiso   1.00
Cu350  Cu    0.44043   0.82772   0.24436   0.00000  Uiso   1.00
Cu351  Cu    0.55957   0.83895   0.25565   0.00000  Uiso   1.00
H352   H     0.43082   0.98683   0.24343   0.00000  Uiso   1.00
H353   H     0.33691   0.87246   0.28973   0.00000  Uiso   1.00
H354   H     0.66309   0.79424   0.21025   0.00000  Uiso   1.00
H355   H     0.63578   0.92783   0.43163   0.00000  Uiso   1.00
H356   H     0.33930   0.91896   0.00762   0.00000  Uiso   1.00
H357   H     0.46658   0.80639   0.08471   0.00000  Uiso   1.00
H358   H     0.35013   0.79000   0.40099   0.00000  Uiso   1.00
H359   H     0.39287   0.79928   0.04763   0.00000  Uiso   1.00
H360   H     0.65194   0.77397   0.49291   0.00000  Uiso   1.00
H361   H     0.55654   0.90619   0.38130   0.00000  Uiso   1.00
H362   H     0.56922   0.67983   0.25649   0.00000  Uiso   1.00
N363   N     0.64908   0.84741   0.26416   0.00000  Uiso   1.00
N364   N     0.35092   0.81926   0.23584   0.00000  Uiso   1.00
O365   O     0.46131   0.90474   0.24633   0.00000  Uiso   1.00
O366   O     0.56191   0.91422   0.25587   0.00000  Uiso   1.00
O367   O     0.42515   0.82627   0.31839   0.00000  Uiso   1.00
O368   O     0.52575   0.83575   0.32793   0.00000  Uiso   1.00
O369   O     0.43809   0.75245   0.24414   0.00000  Uiso   1.00
O370   O     0.53869   0.76193   0.25367   0.00000  Uiso   1.00
O371   O     0.47425   0.83092   0.17207   0.00000  Uiso   1.00
O372   O     0.57485   0.84040   0.18161   0.00000  Uiso   1.00
C373   C     0.33431   0.89646   0.10478   0.00000  Uiso   1.00
H374   H     0.65215   0.92169   0.13808   0.00000  Uiso   1.00
H375   H     0.34678   0.86162   0.11802   0.00000  Uiso   1.00
H376   H     0.37794   0.91975   0.08080   0.00000  Uiso   1.00
C377   C     0.84845   0.93341   0.25150   0.00000  Uiso   1.00
C378   C     0.80587   0.83682   0.48791   0.00000  Uiso   1.00
C379   C     0.82152   0.85217   0.43601   0.00000  Uiso   1.00
C380   C     0.85332   0.85007   0.01760   0.00000  Uiso   1.00
C381   C     0.91300   0.88194   0.49643   0.00000  Uiso   1.00
C382   C     0.92463   0.90155   0.44741   0.00000  Uiso   1.00
C383   C     0.87930   0.88770   0.41800   0.00000  Uiso   1.00
C384   C     0.84350   0.83235   0.06756   0.00000  Uiso   1.00
C385   C     0.94915   0.87888   0.07538   0.00000  Uiso   1.00
C386   C     0.77872   0.83187   0.40352   0.00000  Uiso   1.00
C387   C     0.85699   0.98936   0.25222   0.00000  Uiso   1.00
C388   C     0.79970   0.83265   0.34729   0.00000  Uiso   1.00
C389   C     0.80971   0.67730   0.24771   0.00000  Uiso   1.00
C390   C     0.81822   0.73326   0.24848   0.00000  Uiso   1.00
C391   C     0.86769   0.83818   0.15284   0.00000  Uiso   1.00
C392   C     0.96038   0.89500   0.02477   0.00000  Uiso   1.00
C393   C     0.88901   0.84833   0.09750   0.00000  Uiso   1.00
C394   C     0.71733   0.80486   0.42483   0.00000  Uiso   1.00
C395   C     0.69957   0.79472   0.47681   0.00000  Uiso   1.00
C396   C     0.74336   0.80924   0.00792   0.00000  Uiso   1.00
Cu397  Cu    0.77377   0.82772   0.24436   0.00000  Uiso   1.00
Cu398  Cu    0.89290   0.83895   0.25565   0.00000  Uiso   1.00
H399   H     0.76415   0.98683   0.24343   0.00000  Uiso   1.00
H400   H     0.67024   0.87246   0.28973   0.00000  Uiso   1.00
H401   H     0.99642   0.79424   0.21025   0.00000  Uiso   1.00
H402   H     0.96912   0.92783   0.43163   0.00000  Uiso   1.00
H403   H     0.67263   0.91896   0.00762   0.00000  Uiso   1.00
H404   H     0.79991   0.80639   0.08471   0.00000  Uiso   1.00
H405   H     0.68347   0.79000   0.40099   0.00000  Uiso   1.00
H406   H     0.72621   0.79928   0.04763   0.00000  Uiso   1.00
H407   H     0.98527   0.77397   0.49291   0.00000  Uiso   1.00
H408   H     0.88987   0.90619   0.38130   0.00000  Uiso   1.00
H409   H     0.90255   0.67983   0.25649   0.00000  Uiso   1.00
N410   N     0.98241   0.84741   0.26416   0.00000  Uiso   1.00
N411   N     0.68426   0.81926   0.23584   0.00000  Uiso   1.00
O412   O     0.79464   0.90474   0.24633   0.00000  Uiso   1.00
O413   O     0.89524   0.91422   0.25587   0.00000  Uiso   1.00
O414   O     0.75848   0.82627   0.31839   0.00000  Uiso   1.00
O415   O     0.85908   0.83575   0.32793   0.00000  Uiso   1.00
O416   O     0.77142   0.75245   0.24414   0.00000  Uiso   1.00
O417   O     0.87203   0.76193   0.25367   0.00000  Uiso   1.00
O418   O     0.80758   0.83092   0.17207   0.00000  Uiso   1.00
O419   O     0.90819   0.84040   0.18161   0.00000  Uiso   1.00
C420   C     0.66765   0.89646   0.10478   0.00000  Uiso   1.00
H421   H     0.98548   0.92169   0.13808   0.00000  Uiso   1.00
H422   H     0.68011   0.86162   0.11802   0.00000  Uiso   1.00
H423   H     0.71127   0.91975   0.08080   0.00000  Uiso   1.00
C424   C     0.18179   0.26674   0.75150   0.00000  Uiso   1.00
C425   C     0.13921   0.17015   0.98791   0.00000  Uiso   1.00
C426   C     0.15485   0.18550   0.93601   0.00000  Uiso   1.00
C427   C     0.18665   0.18340   0.51760   0.00000  Uiso   1.00
C428   C     0.24634   0.21527   0.99643   0.00000  Uiso   1.00
C429   C     0.25796   0.23489   0.94741   0.00000  Uiso   1.00
C430   C     0.21263   0.22104   0.91800   0.00000  Uiso   1.00
C431   C     0.17684   0.16569   0.56756   0.00000  Uiso   1.00
C432   C     0.28248   0.21221   0.57538   0.00000  Uiso   1.00
C433   C     0.11206   0.16521   0.90352   0.00000  Uiso   1.00
C434   C     0.19032   0.32269   0.75222   0.00000  Uiso   1.00
C435   C     0.13304   0.16598   0.84729   0.00000  Uiso   1.00
C436   C     0.14304   0.01063   0.74771   0.00000  Uiso   1.00
C437   C     0.15156   0.06659   0.74848   0.00000  Uiso   1.00
C438   C     0.20103   0.17151   0.65284   0.00000  Uiso   1.00
C439   C     0.29371   0.22833   0.52477   0.00000  Uiso   1.00
C440   C     0.22235   0.18166   0.59750   0.00000  Uiso   1.00
C441   C     0.05066   0.13819   0.92483   0.00000  Uiso   1.00
C442   C     0.03291   0.12805   0.97681   0.00000  Uiso   1.00
C443   C     0.07669   0.14258   0.50792   0.00000  Uiso   1.00
Cu444  Cu    0.10710   0.16105   0.74436   0.00000  Uiso   1.00
Cu445  Cu    0.22623   0.17228   0.75565   0.00000  Uiso   1.00
H446   H     0.09748   0.32016   0.74343   0.00000  Uiso   1.00
H447   H     0.00357   0.20579   0.78973   0.00000  Uiso   1.00
H448   H     0.32976   0.12757   0.71025   0.00000  Uiso   1.00
H449   H     0.30245   0.26116   0.93163   0.00000  Uiso   1.00
H450   H     0.00596   0.25229   0.50762   0.00000  Uiso   1.00
H451   H     0.13325   0.13972   0.58471   0.00000  Uiso   1.00
H452   H     0.01680   0.12333   0.90099   0.00000  Uiso   1.00
H453   H     0.05954   0.13261   0.54763   0.00000  Uiso   1.00
H454   H     0.31861   0.10730   0.99291   0.00000  Uiso   1.00
H455   H     0.22321   0.23952   0.88130   0.00000  Uiso   1.00
H456   H     0.23588   0.01316   0.75649   0.00000  Uiso   1.00
N457   N     0.31574   0.18074   0.76416   0.00000  Uiso   1.00
N458   N     0.01759   0.15259   0.73584   0.00000  Uiso   1.00
O459   O     0.12797   0.23807   0.74633   0.00000  Uiso   1.00
O460   O     0.22858   0.24755   0.75587   0.00000  Uiso   1.00
O461   O     0.09181   0.15960   0.81839   0.00000  Uiso   1.00
O462   O     0.19242   0.16908   0.82793   0.00000  Uiso   1.00
O463   O     0.10476   0.08578   0.74414   0.00000  Uiso   1.00
O464   O     0.20536   0.09526   0.75367   0.00000  Uiso   1.00
O465   O     0.14092   0.16425   0.67207   0.00000  Uiso   1.00
O466   O     0.24152   0.17373   0.68161   0.00000  Uiso   1.00
C467   C     0.00098   0.22980   0.60478   0.00000  Uiso   1.00
H468   H     0.31881   0.25502   0.63808   0.00000  Uiso   1.00
H469   H     0.01344   0.19496   0.61802   0.00000  Uiso   1.00
H470   H     0.04460   0.25308   0.58080   0.00000  Uiso   1.00
C471   C     0.51512   0.26674   0.75150   0.00000  Uiso   1.00
C472   C     0.47254   0.17015   0.98791   0.00000  Uiso   1.00
C473   C     0.48819   0.18550   0.93601   0.00000  Uiso   1.00
C474   C     0.51999   0.18340   0.51760   0.00000  Uiso   1.00
C475   C     0.57967   0.21527   0.99643   0.00000  Uiso   1.00
C476   C     0.59130   0.23489   0.94741   0.00000  Uiso   1.00
C477   C     0.54596   0.22104   0.91800   0.00000  Uiso   1.00
C478   C     0.51017   0.16569   0.56756   0.00000  Uiso   1.00
C479   C     0.61582   0.21221   0.57538   0.00000  Uiso   1.00
C480   C     0.44539   0.16521   0.90352   0.00000  Uiso   1.00
C481   C     0.52365   0.32269   0.75222   0.00000  Uiso   1.00
C482   C     0.46637   0.16598   0.84729   0.00000  Uiso   1.00
C483   C     0.47638   0.01063   0.74771   0.00000  Uiso   1.00
C484   C     0.48489   0.06659   0.74848   0.00000  Uiso   1.00
C485   C     0.53436   0.17151   0.65284   0.00000  Uiso   1.00
C486   C     0.62705   0.22833   0.52477   0.00000  Uiso   1.00
C487   C     0.55568   0.18166   0.59750   0.00000  Uiso   1.00
C488   C     0.38399   0.13819   0.92483   0.00000  Uiso   1.00
C489   C     0.36624   0.12805   0.97681   0.00000  Uiso   1.00
C490   C     0.41002   0.14258   0.50792   0.00000  Uiso   1.00
Cu491  Cu    0.44043   0.16105   0.74436   0.00000  Uiso   1.00
Cu492  Cu    0.55957   0.17228   0.75565   0.00000  Uiso   1.00
H493   H     0.43082   0.32016   0.74343   0.00000  Uiso   1.00
H494   H     0.33691   0.20579   0.78973   0.00000  Uiso   1.00
H495   H     0.66309   0.12757   0.71025   0.00000  Uiso   1.00
H496   H     0.63578   0.26116   0.93163   0.00000  Uiso   1.00
H497   H     0.33930   0.25229   0.50762   0.00000  Uiso   1.00
H498   H     0.46658   0.13972   0.58471   0.00000  Uiso   1.00
H499   H     0.35013   0.12333   0.90099   0.00000  Uiso   1.00
H500   H     0.39287   0.13261   0.54763   0.00000  Uiso   1.00
H501   H     0.65194   0.10730   0.99291   0.00000  Uiso   1.00
H502   H     0.55654   0.23952   0.88130   0.00000  Uiso   1.00
H503   H     0.56922   0.01316   0.75649   0.00000  Uiso   1.00
N504   N     0.64908   0.18074   0.76416   0.00000  Uiso   1.00
N505   N     0.35092   0.15259   0.73584   0.00000  Uiso   1.00
O506   O     0.46131   0.23807   0.74633   0.00000  Uiso   1.00
O507   O     0.56191   0.24755   0.75587   0.00000  Uiso   1.00
O508   O     0.42515   0.15960   0.81839   0.00000  Uiso   1.00
O509   O     0.52575   0.16908   0.82793   0.00000  Uiso   1.00
O510   O     0.43809   0.08578   0.74414   0.00000  Uiso   1.00
O511   O     0.53869   0.09526   0.75367   0.00000  Uiso   1.00
O512   O     0.47425   0.16425   0.67207   0.00000  Uiso   1.00
O513   O     0.57485   0.17373   0.68161   0.00000  Uiso   1.00
C514   C     0.33431   0.22980   0.60478   0.00000  Uiso   1.00
H515   H     0.65215   0.25502   0.63808   0.00000  Uiso   1.00
H516   H     0.34678   0.19496   0.61802   0.00000  Uiso   1.00
H517   H     0.37794   0.25308   0.58080   0.00000  Uiso   1.00
C518   C     0.84845   0.26674   0.75150   0.00000  Uiso   1.00
C519   C     0.80587   0.17015   0.98791   0.00000  Uiso   1.00
C520   C     0.82152   0.18550   0.93601   0.00000  Uiso   1.00
C521   C     0.85332   0.18340   0.51760   0.00000  Uiso   1.00
C522   C     0.91300   0.21527   0.99643   0.00000  Uiso   1.00
C523   C     0.92463   0.23489   0.94741   0.00000  Uiso   1.00
C524   C     0.87930   0.22104   0.91800   0.00000  Uiso   1.00
C525   C     0.84350   0.16569   0.56756   0.00000  Uiso   1.00
C526   C     0.94915   0.21221   0.57538   0.00000  Uiso   1.00
C527   C     0.77872   0.16521   0.90352   0.00000  Uiso   1.00
C528   C     0.85699   0.32269   0.75222   0.00000  Uiso   1.00
C529   C     0.79970   0.16598   0.84729   0.00000  Uiso   1.00
C530   C     0.80971   0.01063   0.74771   0.00000  Uiso   1.00
C531   C     0.81822   0.06659   0.74848   0.00000  Uiso   1.00
C532   C     0.86769   0.17151   0.65284   0.00000  Uiso   1.00
C533   C     0.96038   0.22833   0.52477   0.00000  Uiso   1.00
C534   C     0.88901   0.18166   0.59750   0.00000  Uiso   1.00
C535   C     0.71733   0.13819   0.92483   0.00000  Uiso   1.00
C536   C     0.69957   0.12805   0.97681   0.00000  Uiso   1.00
C537   C     0.74336   0.14258   0.50792   0.00000  Uiso   1.00
Cu538  Cu    0.77377   0.16105   0.74436   0.00000  Uiso   1.00
Cu539  Cu    0.89290   0.17228   0.75565   0.00000  Uiso   1.00
H540   H     0.76415   0.32016   0.74343   0.00000  Uiso   1.00
H541   H     0.67024   0.20579   0.78973   0.00000  Uiso   1.00
H542   H     0.99642   0.12757   0.71025   0.00000  Uiso   1.00
H543   H     0.96912   0.26116   0.93163   0.00000  Uiso   1.00
H544   H     0.67263   0.25229   0.50762   0.00000  Uiso   1.00
H545   H     0.79991   0.13972   0.58471   0.00000  Uiso   1.00
H546   H     0.68347   0.12333   0.90099   0.00000  Uiso   1.00
H547   H     0.72621   0.13261   0.54763   0.00000  Uiso   1.00
H548   H     0.98527   0.10730   0.99291   0.00000  Uiso   1.00
H549   H     0.88987   0.23952   0.88130   0.00000  Uiso   1.00
H550   H     0.90255   0.01316   0.75649   0.00000  Uiso   1.00
N551   N     0.98241   0.18074   0.76416   0.00000  Uiso   1.00
N552   N     0.68426   0.15259   0.73584   0.00000  Uiso   1.00
O553   O     0.79464   0.23807   0.74633   0.00000  Uiso   1.00
O554   O     0.89524   0.24755   0.75587   0.00000  Uiso   1.00
O555   O     0.75848   0.15960   0.81839   0.00000  Uiso   1.00
O556   O     0.85908   0.16908   0.82793   0.00000  Uiso   1.00
O557   O     0.77142   0.08578   0.74414   0.00000  Uiso   1.00
O558   O     0.87203   0.09526   0.75367   0.00000  Uiso   1.00
O559   O     0.80758   0.16425   0.67207   0.00000  Uiso   1.00
O560   O     0.90819   0.17373   0.68161   0.00000  Uiso   1.00
C561   C     0.66765   0.22980   0.60478   0.00000  Uiso   1.00
H562   H     0.98548   0.25502   0.63808   0.00000  Uiso   1.00
H563   H     0.68011   0.19496   0.61802   0.00000  Uiso   1.00
H564   H     0.71127   0.25308   0.58080   0.00000  Uiso   1.00
C565   C     0.18179   0.60007   0.75150   0.00000  Uiso   1.00
C566   C     0.13921   0.50349   0.98791   0.00000  Uiso   1.00
C567   C     0.15485   0.51883   0.93601   0.00000  Uiso   1.00
C568   C     0.18665   0.51674   0.51760   0.00000  Uiso   1.00
C569   C     0.24634   0.54860   0.99643   0.00000  Uiso   1.00
C570   C     0.25796   0.56822   0.94741   0.00000  Uiso   1.00
C571   C     0.21263   0.55437   0.91800   0.00000  Uiso   1.00
C572   C     0.17684   0.49902   0.56756   0.00000  Uiso   1.00
C573   C     0.28248   0.54554   0.57538   0.00000  Uiso   1.00
C574   C     0.11206   0.49854   0.90352   0.00000  Uiso   1.00
C575   C     0.19032   0.65603   0.75222   0.00000  Uiso   1.00
C576   C     0.13304   0.49931   0.84729   0.00000  Uiso   1.00
C577   C     0.14304   0.34397   0.74771   0.00000  Uiso   1.00
C578   C     0.15156   0.39993   0.74848   0.00000  Uiso   1.00
C579   C     0.20103   0.50484   0.65284   0.00000  Uiso   1.00
C580   C     0.29371   0.56167   0.52477   0.00000  Uiso   1.00
C581   C     0.22235   0.51499   0.59750   0.00000  Uiso   1.00
C582   C     0.05066   0.47152   0.92483   0.00000  Uiso   1.00
C583   C     0.03291   0.46139   0.97681   0.00000  Uiso   1.00
C584   C     0.07669   0.47591   0.50792   0.00000  Uiso   1.00
Cu585  Cu    0.10710   0.49439   0.74436   0.00000  Uiso   1.00
Cu586  Cu    0.22623   0.50561   0.75565   0.00000  Uiso   1.00
H587   H     0.09748   0.65349   0.74343   0.00000  Uiso   1.00
H588   H     0.00357   0.53912   0.78973   0.00000  Uiso   1.00
H589   H     0.32976   0.46091   0.71025   0.00000  Uiso   1.00
H590   H     0.30245   0.59449   0.93163   0.00000  Uiso   1.00
H591   H     0.00596   0.58562   0.50762   0.00000  Uiso   1.00
H592   H     0.13325   0.47306   0.58471   0.00000  Uiso   1.00
H593   H     0.01680   0.45666   0.90099   0.00000  Uiso   1.00
H594   H     0.05954   0.46594   0.54763   0.00000  Uiso   1.00
H595   H     0.31861   0.44064   0.99291   0.00000  Uiso   1.00
H596   H     0.22321   0.57286   0.88130   0.00000  Uiso   1.00
H597   H     0.23588   0.34649   0.75649   0.00000  Uiso   1.00
N598   N     0.31574   0.51407   0.76416   0.00000  Uiso   1.00
N599   N     0.01759   0.48593   0.73584   0.00000  Uiso   1.00
O600   O     0.12797   0.57141   0.74633   0.00000  Uiso   1.00
O601   O     0.22858   0.58089   0.75587   0.00000  Uiso   1.00
O602   O     0.09181   0.49293   0.81839   0.00000  Uiso   1.00
O603   O     0.19242   0.50241   0.82793   0.00000  Uiso   1.00
O604   O     0.10476   0.41911   0.74414   0.00000  Uiso   1.00
O605   O     0.20536   0.42859   0.75367   0.00000  Uiso   1.00
O606   O     0.14092   0.49759   0.67207   0.00000  Uiso   1.00
O607   O     0.24152   0.50707   0.68161   0.00000  Uiso   1.00
C608   C     0.00098   0.56313   0.60478   0.00000  Uiso   1.00
H609   H     0.31881   0.58836   0.63808   0.00000  Uiso   1.00
H610   H     0.01344   0.52829   0.61802   0.00000  Uiso   1.00
H611   H     0.04460   0.58641   0.58080   0.00000  Uiso   1.00
C612   C     0.51512   0.60007   0.75150   0.00000  Uiso   1.00
C613   C     0.47254   0.50349   0.98791   0.00000  Uiso   1.00
C614   C     0.48819   0.51883   0.93601   0.00000  Uiso   1.00
C615   C     0.51999   0.51674   0.51760   0.00000  Uiso   1.00
C616   C     0.57967   0.54860   0.99643   0.00000  Uiso   1.00
C617   C     0.59130   0.56822   0.94741   0.00000  Uiso   1.00
C618   C     0.54596   0.55437   0.91800   0.00000  Uiso   1.00
C619   C     0.51017   0.49902   0.56756   0.00000  Uiso   1.00
C620   C     0.61582   0.54554   0.57538   0.00000  Uiso   1.00
C621   C     0.44539   0.49854   0.90352   0.00000  Uiso   1.00
C622   C     0.52365   0.65603   0.75222   0.00000  Uiso   1.00
C623   C     0.46637   0.49931   0.84729   0.00000  Uiso   1.00
C624   C     0.47638   0.34397   0.74771   0.00000  Uiso   1.00
C625   C     0.48489   0.39993   0.74848   0.00000  Uiso   1.00
C626   C     0.53436   0.50484   0.65284   0.00000  Uiso   1.00
C627   C     0.62705   0.56167   0.52477   0.00000  Uiso   1.00
C628   C     0.55568   0.51499   0.59750   0.00000  Uiso   1.00
C629   C     0.38399   0.47152   0.92483   0.00000  Uiso   1.00
C630   C     0.36624   0.46139   0.97681   0.00000  Uiso   1.00
C631   C     0.41002   0.47591   0.50792   0.00000  Uiso   1.00
Cu632  Cu    0.44043   0.49439   0.74436   0.00000  Uiso   1.00
Cu633  Cu    0.55957   0.50561   0.75565   0.00000  Uiso   1.00
H634   H     0.43082   0.65349   0.74343   0.00000  Uiso   1.00
H635   H     0.33691   0.53912   0.78973   0.00000  Uiso   1.00
H636   H     0.66309   0.46091   0.71025   0.00000  Uiso   1.00
H637   H     0.63578   0.59449   0.93163   0.00000  Uiso   1.00
H638   H     0.33930   0.58562   0.50762   0.00000  Uiso   1.00
H639   H     0.46658   0.47306   0.58471   0.00000  Uiso   1.00
H640   H     0.35013   0.45666   0.90099   0.00000  Uiso   1.00
H641   H     0.39287   0.46594   0.54763   0.00000  Uiso   1.00
H642   H     0.65194   0.44064   0.99291   0.00000  Uiso   1.00
H643   H     0.55654   0.57286   0.88130   0.00000  Uiso   1.00
H644   H     0.56922   0.34649   0.75649   0.00000  Uiso   1.00
N645   N     0.64908   0.51407   0.76416   0.00000  Uiso   1.00
N646   N     0.35092   0.48593   0.73584   0.00000  Uiso   1.00
O647   O     0.46131   0.57141   0.74633   0.00000  Uiso   1.00
O648   O     0.56191   0.58089   0.75587   0.00000  Uiso   1.00
O649   O     0.42515   0.49293   0.81839   0.00000  Uiso   1.00
O650   O     0.52575   0.50241   0.82793   0.00000  Uiso   1.00
O651   O     0.43809   0.41911   0.74414   0.00000  Uiso   1.00
O652   O     0.53869   0.42859   0.75367   0.00000  Uiso   1.00
O653   O     0.47425   0.49759   0.67207   0.00000  Uiso   1.00
O654   O     0.57485   0.50707   0.68161   0.00000  Uiso   1.00
C655   C     0.33431   0.56313   0.60478   0.00000  Uiso   1.00
H656   H     0.65215   0.58836   0.63808   0.00000  Uiso   1.00
H657   H     0.34678   0.52829   0.61802   0.00000  Uiso   1.00
H658   H     0.37794   0.58641   0.58080   0.00000  Uiso   1.00
C659   C     0.84845   0.60007   0.75150   0.00000  Uiso   1.00
C660   C     0.80587   0.50349   0.98791   0.00000  Uiso   1.00
C661   C     0.82152   0.51883   0.93601   0.00000  Uiso   1.00
C662   C     0.85332   0.51674   0.51760   0.00000  Uiso   1.00
C663   C     0.91300   0.54860   0.99643   0.00000  Uiso   1.00
C664   C     0.92463   0.56822   0.94741   0.00000  Uiso   1.00
C665   C     0.87930   0.55437   0.91800   0.00000  Uiso   1.00
C666   C     0.84350   0.49902   0.56756   0.00000  Uiso   1.00
C667   C     0.94915   0.54554   0.57538   0.00000  Uiso   1.00
C668   C     0.77872   0.49854   0.90352   0.00000  Uiso   1.00
C669   C     0.85699   0.65603   0.75222   0.00000  Uiso   1.00
C670   C     0.79970   0.49931   0.84729   0.00000  Uiso   1.00
C671   C     0.80971   0.34397   0.74771   0.00000  Uiso   1.00
C672   C     0.81822   0.39993   0.74848   0.00000  Uiso   1.00
C673   C     0.86769   0.50484   0.65284   0.00000  Uiso   1.00
C674   C     0.96038   0.56167   0.52477   0.00000  Uiso   1.00
C675   C     0.88901   0.51499   0.59750   0.00000  Uiso   1.00
C676   C     0.71733   0.47152   0.92483   0.00000  Uiso   1.00
C677   C     0.69957   0.46139   0.97681   0.00000  Uiso   1.00
C678   C     0.74336   0.47591   0.50792   0.00000  Uiso   1.00
Cu679  Cu    0.77377   0.49439   0.74436   0.00000  Uiso   1.00
Cu680  Cu    0.89290   0.50561   0.75565   0.00000  Uiso   1.00
H681   H     0.76415   0.65349   0.74343   0.00000  Uiso   1.00
H682   H     0.67024   0.53912   0.78973   0.00000  Uiso   1.00
H683   H     0.99642   0.46091   0.71025   0.00000  Uiso   1.00
H684   H     0.96912   0.59449   0.93163   0.00000  Uiso   1.00
H685   H     0.67263   0.58562   0.50762   0.00000  Uiso   1.00
H686   H     0.79991   0.47306   0.58471   0.00000  Uiso   1.00
H687   H     0.68347   0.45666   0.90099   0.00000  Uiso   1.00
H688   H     0.72621   0.46594   0.54763   0.00000  Uiso   1.00
H689   H     0.98527   0.44064   0.99291   0.00000  Uiso   1.00
H690   H     0.88987   0.57286   0.88130   0.00000  Uiso   1.00
H691   H     0.90255   0.34649   0.75649   0.00000  Uiso   1.00
N692   N     0.98241   0.51407   0.76416   0.00000  Uiso   1.00
N693   N     0.68426   0.48593   0.73584   0.00000  Uiso   1.00
O694   O     0.79464   0.57141   0.74633   0.00000  Uiso   1.00
O695   O     0.89524   0.58089   0.75587   0.00000  Uiso   1.00
O696   O     0.75848   0.49293   0.81839   0.00000  Uiso   1.00
O697   O     0.85908   0.50241   0.82793   0.00000  Uiso   1.00
O698   O     0.77142   0.41911   0.74414   0.00000  Uiso   1.00
O699   O     0.87203   0.42859   0.75367   0.00000  Uiso   1.00
O700   O     0.80758   0.49759   0.67207   0.00000  Uiso   1.00
O701   O     0.90819   0.50707   0.68161   0.00000  Uiso   1.00
C702   C     0.66765   0.56313   0.60478   0.00000  Uiso   1.00
H703   H     0.98548   0.58836   0.63808   0.00000  Uiso   1.00
H704   H     0.68011   0.52829   0.61802   0.00000  Uiso   1.00
H705   H     0.71127   0.58641   0.58080   0.00000  Uiso   1.00
C706   C     0.18179   0.93341   0.75150   0.00000  Uiso   1.00
C707   C     0.13921   0.83682   0.98791   0.00000  Uiso   1.00
C708   C     0.15485   0.85217   0.93601   0.00000  Uiso   1.00
C709   C     0.18665   0.85007   0.51760   0.00000  Uiso   1.00
C710   C     0.24634   0.88194   0.99643   0.00000  Uiso   1.00
C711   C     0.25796   0.90155   0.94741   0.00000  Uiso   1.00
C712   C     0.21263   0.88770   0.91800   0.00000  Uiso   1.00
C713   C     0.17684   0.83235   0.56756   0.00000  Uiso   1.00
C714   C     0.28248   0.87888   0.57538   0.00000  Uiso   1.00
C715   C     0.11206   0.83187   0.90352   0.00000  Uiso   1.00
C716   C     0.19032   0.98936   0.75222   0.00000  Uiso   1.00
C717   C     0.13304   0.83265   0.84729   0.00000  Uiso   1.00
C718   C     0.14304   0.67730   0.74771   0.00000  Uiso   1.00
C719   C     0.15156   0.73326   0.74848   0.00000  Uiso   1.00
C720   C     0.20103   0.83818   0.65284   0.00000  Uiso   1.00
C721   C     0.29371   0.89500   0.52477   0.00000  Uiso   1.00
C722   C     0.22235   0.84833   0.59750   0.00000  Uiso   1.00
C723   C     0.05066   0.80486   0.92483   0.00000  Uiso   1.00
C724   C     0.03291   0.79472   0.97681   0.00000  Uiso   1.00
C725   C     0.07669   0.80924   0.50792   0.00000  Uiso   1.00
Cu726  Cu    0.10710   0.82772   0.74436   0.00000  Uiso   1.00
Cu727  Cu    0.22623   0.83895   0.75565   0.00000  Uiso   1.00
H728   H     0.09748   0.98683   0.74343   0.00000  Uiso   1.00
H729   H     0.00357   0.87246   0.78973   0.00000  Uiso   1.00
H730   H     0.32976   0.79424   0.71025   0.00000  Uiso   1.00
H731   H     0.30245   0.92783   0.93163   0.00000  Uiso   1.00
H732   H     0.00596   0.91896   0.50762   0.00000  Uiso   1.00
H733   H     0.13325   0.80639   0.58471   0.00000  Uiso   1.00
H734   H     0.01680   0.79000   0.90099   0.00000  Uiso   1.00
H735   H     0.05954   0.79928   0.54763   0.00000  Uiso   1.00
H736   H     0.31861   0.77397   0.99291   0.00000  Uiso   1.00
H737   H     0.22321   0.90619   0.88130   0.00000  Uiso   1.00
H738   H     0.23588   0.67983   0.75649   0.00000  Uiso   1.00
N739   N     0.31574   0.84741   0.76416   0.00000  Uiso   1.00
N740   N     0.01759   0.81926   0.73584   0.00000  Uiso   1.00
O741   O     0.12797   0.90474   0.74633   0.00000  Uiso   1.00
O742   O     0.22858   0.91422   0.75587   0.00000  Uiso   1.00
O743   O     0.09181   0.82627   0.81839   0.00000  Uiso   1.00
O744   O     0.19242   0.83575   0.82793   0.00000  Uiso   1.00
O745   O     0.10476   0.75245   0.74414   0.00000  Uiso   1.00
O746   O     0.20536   0.76193   0.75367   0.00000  Uiso   1.00
O747   O     0.14092   0.83092   0.67207   0.00000  Uiso   1.00
O748   O     0.24152   0.84040   0.68161   0.00000  Uiso   1.00
C749   C     0.00098   0.89646   0.60478   0.00000  Uiso   1.00
H750   H     0.31881   0.92169   0.63808   0.00000  Uiso   1.00
H751   H     0.01344   0.86162   0.61802   0.00000  Uiso   1.00
H752   H     0.04460   0.91975   0.58080   0.00000  Uiso   1.00
C753   C     0.51512   0.93341   0.75150   0.00000  Uiso   1.00
C754   C     0.47254   0.83682   0.98791   0.00000  Uiso   1.00
C755   C     0.48819   0.85217   0.93601   0.00000  Uiso   1.00
C756   C     0.51999   0.85007   0.51760   0.00000  Uiso   1.00
C757   C     0.57967   0.88194   0.99643   0.00000  Uiso   1.00
C758   C     0.59130   0.90155   0.94741   0.00000  Uiso   1.00
C759   C     0.54596   0.88770   0.91800   0.00000  Uiso   1.00
C760   C     0.51017   0.83235   0.56756   0.00000  Uiso   1.00
C761   C     0.61582   0.87888   0.57538   0.00000  Uiso   1.00
C762   C     0.44539   0.83187   0.90352   0.00000  Uiso   1.00
C763   C     0.52365   0.98936   0.75222   0.00000  Uiso   1.00
C764   C     0.46637   0.83265   0.84729   0.00000  Uiso   1.00
C765   C     0.47638   0.67730   0.74771   0.00000  Uiso   1.00
C766   C     0.48489   0.73326   0.74848   0.00000  Uiso   1.00
C767   C     0.53436   0.83818   0.65284   0.00000  Uiso   1.00
C768   C     0.62705   0.89500   0.52477   0.00000  Uiso   1.00
C769   C     0.55568   0.84833   0.59750   0.00000  Uiso   1.00
C770   C     0.38399   0.80486   0.92483   0.00000  Uiso   1.00
C771   C     0.36624   0.79472   0.97681   0.00000  Uiso   1.00
C772   C     0.41002   0.80924   0.50792   0.00000  Uiso   1.00
Cu773  Cu    0.44043   0.82772   0.74436   0.00000  Uiso   1.00
Cu774  Cu    0.55957   0.83895   0.75565   0.00000  Uiso   1.00
H775   H     0.43082   0.98683   0.74343   0.00000  Uiso   1.00
H776   H     0.33691   0.87246   0.78973   0.00000  Uiso   1.00
H777   H     0.66309   0.79424   0.71025   0.00000  Uiso   1.00
H778   H     0.63578   0.92783   0.93163   0.00000  Uiso   1.00
H779   H     0.33930   0.91896   0.50762   0.00000  Uiso   1.00
H780   H     0.46658   0.80639   0.58471   0.00000  Uiso   1.00
H781   H     0.35013   0.79000   0.90099   0.00000  Uiso   1.00
H782   H     0.39287   0.79928   0.54763   0.00000  Uiso   1.00
H783   H     0.65194   0.77397   0.99291   0.00000  Uiso   1.00
H784   H     0.55654   0.90619   0.88130   0.00000  Uiso   1.00
H785   H     0.56922   0.67983   0.75649   0.00000  Uiso   1.00
N786   N     0.64908   0.84741   0.76416   0.00000  Uiso   1.00
N787   N     0.35092   0.81926   0.73584   0.00000  Uiso   1.00
O788   O     0.46131   0.90474   0.74633   0.00000  Uiso   1.00
O789   O     0.56191   0.91422   0.75587   0.00000  Uiso   1.00
O790   O     0.42515   0.82627   0.81839   0.00000  Uiso   1.00
O791   O     0.52575   0.83575   0.82793   0.00000  Uiso   1.00
O792   O     0.43809   0.75245   0.74414   0.00000  Uiso   1.00
O793   O     0.53869   0.76193   0.75367   0.00000  Uiso   1.00
O794   O     0.47425   0.83092   0.67207   0.00000  Uiso   1.00
O795   O     0.57485   0.84040   0.68161   0.00000  Uiso   1.00
C796   C     0.33431   0.89646   0.60478   0.00000  Uiso   1.00
H797   H     0.65215   0.92169   0.63808   0.00000  Uiso   1.00
H798   H     0.34678   0.86162   0.61802   0.00000  Uiso   1.00
H799   H     0.37794   0.91975   0.58080   0.00000  Uiso   1.00
C800   C     0.84845   0.93341   0.75150   0.00000  Uiso   1.00
C801   C     0.80587   0.83682   0.98791   0.00000  Uiso   1.00
C802   C     0.82152   0.85217   0.93601   0.00000  Uiso   1.00
C803   C     0.85332   0.85007   0.51760   0.00000  Uiso   1.00
C804   C     0.91300   0.88194   0.99643   0.00000  Uiso   1.00
C805   C     0.92463   0.90155   0.94741   0.00000  Uiso   1.00
C806   C     0.87930   0.88770   0.91800   0.00000  Uiso   1.00
C807   C     0.84350   0.83235   0.56756   0.00000  Uiso   1.00
C808   C     0.94915   0.87888   0.57538   0.00000  Uiso   1.00
C809   C     0.77872   0.83187   0.90352   0.00000  Uiso   1.00
C810   C     0.85699   0.98936   0.75222   0.00000  Uiso   1.00
C811   C     0.79970   0.83265   0.84729   0.00000  Uiso   1.00
C812   C     0.80971   0.67730   0.74771   0.00000  Uiso   1.00
C813   C     0.81822   0.73326   0.74848   0.00000  Uiso   1.00
C814   C     0.86769   0.83818   0.65284   0.00000  Uiso   1.00
C815   C     0.96038   0.89500   0.52477   0.00000  Uiso   1.00
C816   C     0.88901   0.84833   0.59750   0.00000  Uiso   1.00
C817   C     0.71733   0.80486   0.92483   0.00000  Uiso   1.00
C818   C     0.69957   0.79472   0.97681   0.00000  Uiso   1.00
C819   C     0.74336   0.80924   0.50792   0.00000  Uiso   1.00
Cu820  Cu    0.77377   0.82772   0.74436   0.00000  Uiso   1.00
Cu821  Cu    0.89290   0.83895   0.75565   0.00000  Uiso   1.00
H822   H     0.76415   0.98683   0.74343   0.00000  Uiso   1.00
H823   H     0.67024   0.87246   0.78973   0.00000  Uiso   1.00
H824   H     0.99642   0.79424   0.71025   0.00000  Uiso   1.00
H825   H     0.96912   0.92783   0.93163   0.00000  Uiso   1.00
H826   H     0.67263   0.91896   0.50762   0.00000  Uiso   1.00
H827   H     0.79991   0.80639   0.58471   0.00000  Uiso   1.00
H828   H     0.68347   0.79000   0.90099   0.00000  Uiso   1.00
H829   H     0.72621   0.79928   0.54763   0.00000  Uiso   1.00
H830   H     0.98527   0.77397   0.99291   0.00000  Uiso   1.00
H831   H     0.88987   0.90619   0.88130   0.00000  Uiso   1.00
H832   H     0.90255   0.67983   0.75649   0.00000  Uiso   1.00
N833   N     0.98241   0.84741   0.76416   0.00000  Uiso   1.00
N834   N     0.68426   0.81926   0.73584   0.00000  Uiso   1.00
O835   O     0.79464   0.90474   0.74633   0.00000  Uiso   1.00
O836   O     0.89524   0.91422   0.75587   0.00000  Uiso   1.00
O837   O     0.75848   0.82627   0.81839   0.00000  Uiso   1.00
O838   O     0.85908   0.83575   0.82793   0.00000  Uiso   1.00
O839   O     0.77142   0.75245   0.74414   0.00000  Uiso   1.00
O840   O     0.87203   0.76193   0.75367   0.00000  Uiso   1.00
O841   O     0.80758   0.83092   0.67207   0.00000  Uiso   1.00
O842   O     0.90819   0.84040   0.68161   0.00000  Uiso   1.00
C843   C     0.66765   0.89646   0.60478   0.00000  Uiso   1.00
H844   H     0.98548   0.92169   0.63808   0.00000  Uiso   1.00
H845   H     0.68011   0.86162   0.61802   0.00000  Uiso   1.00
H846   H     0.71127   0.91975   0.58080   0.00000  Uiso   1.00
loop_
_geom_bond_atom_site_label_1
_geom_bond_atom_site_label_2
_geom_bond_distance
_geom_bond_site_symmetry_2
_ccdc_geom_bond_type
C1     C11     1.427   .     S
C1     O37     1.285   .     A
C1     O36     1.291   .     A
C2     C3      1.420   .     A
C2     C427    1.428   .     S
C2     C443    1.418   .     S
C3     C10     1.422   .     A
C3     C7      1.411   .     A
C4     C8      1.402   .     A
C4     C425    1.428   1_554 S
C4     C428    1.417   1_554 S
C5     C6      1.392   .     A
C5     C427    1.417   .     S
C5     C439    1.401   .     S
C6     C7      1.385   .     A
C6     H26     1.084   .     S
C7     H32     1.081   .     S
C8     C17     1.402   .     A
C8     H28     1.076   .     S
C9     C17     1.417   .     A
C9     C16     1.400   .     A
C9     C91     1.509   .     S
C10    C12     1.476   .     S
C10    C18     1.401   .     A
C11    C154    1.328   .     S
C11    H174    1.088   .     S
C12    O39     1.295   .     A
C12    O38     1.303   .     A
C13    C14     1.428   .     S
C13    C293    1.328   1_545 S
C13    H305    1.088   1_545 S
C14    O41     1.291   .     A
C14    O40     1.285   .     A
C15    O42     1.298   .     A
C15    O43     1.300   .     A
C15    C17     1.477   .     S
C16    C428    1.401   1_554 S
C16    H74     1.085   .     S
C18    H29     1.083   .     S
C18    C19     1.388   .     A
C19    C443    1.392   .     S
C19    H125    1.083   1_455 S
C20    H30     1.077   .     S
C20    C425    1.418   1_554 S
C20    C442    1.392   1_554 S
Cu21   N35     2.017   .     S
Cu21   O40     1.952   .     S
Cu21   O42     1.917   .     S
Cu21   O36     1.956   .     S
Cu21   Cu22    2.685   .     S
Cu21   O38     1.939   .     S
Cu22   O39     1.917   .     S
Cu22   N34     2.017   .     S
Cu22   O41     1.956   .     S
Cu22   O37     1.952   .     S
Cu22   O43     1.939   .     S
H23    C154    1.088   .     S
H24    N128    1.029   1_455 S
H25    N82     1.029   .     S
H27    C110    1.085   1_455 S
H31    C66     1.083   .     S
H33    C293    1.088   1_545 S
N34    H71     1.029   .     S
N34    N82     1.284   .     S
N35    N128    1.284   1_455 S
N35    H119    1.029   1_455 S
C44    H47     1.111   .     S
C44    H46     1.110   .     S
C44    C103    1.509   1_455 S
C44    H139    1.110   1_455 S
H45    C91     1.110   .     S
C48    C58     1.427   .     S
C48    O84     1.285   .     A
C48    O83     1.291   .     A
C49    C50     1.420   .     A
C49    C474    1.428   .     S
C49    C490    1.418   .     S
C50    C57     1.422   .     A
C50    C54     1.411   .     A
C51    C55     1.402   .     A
C51    C472    1.428   1_554 S
C51    C475    1.417   1_554 S
C52    C53     1.392   .     A
C52    C474    1.417   .     S
C52    C486    1.401   .     S
C53    C54     1.385   .     A
C53    H73     1.084   .     S
C54    H79     1.081   .     S
C55    C64     1.402   .     A
C55    H75     1.076   .     S
C56    C64     1.417   .     A
C56    C63     1.400   .     A
C56    C138    1.509   .     S
C57    C59     1.476   .     S
C57    C65     1.401   .     A
C58    C201    1.328   .     S
C58    H221    1.088   .     S
C59    O86     1.295   .     A
C59    O85     1.303   .     A
C60    C61     1.428   .     S
C60    C340    1.328   1_545 S
C60    H352    1.088   1_545 S
C61    O88     1.291   .     A
C61    O87     1.285   .     A
C62    O89     1.298   .     A
C62    O90     1.300   .     A
C62    C64     1.477   .     S
C63    C475    1.401   1_554 S
C63    H121    1.085   .     S
C65    H76     1.083   .     S
C65    C66     1.388   .     A
C66    C490    1.392   .     S
C67    H77     1.077   .     S
C67    C472    1.418   1_554 S
C67    C489    1.392   1_554 S
Cu68   N82     2.017   .     S
Cu68   O87     1.952   .     S
Cu68   O89     1.917   .     S
Cu68   O83     1.956   .     S
Cu68   Cu69    2.685   .     S
Cu68   O85     1.939   .     S
Cu69   O86     1.917   .     S
Cu69   N81     2.017   .     S
Cu69   O88     1.956   .     S
Cu69   O84     1.952   .     S
Cu69   O90     1.939   .     S
H70    C201    1.088   .     S
H72    N129    1.029   .     S
H78    C113    1.083   .     S
H80    C340    1.088   1_545 S
N81    H118    1.029   .     S
N81    N129    1.284   .     S
C91    H94     1.111   .     S
C91    H93     1.110   .     S
H92    C138    1.110   .     S
C95    C105    1.427   .     S
C95    O131    1.285   .     A
C95    O130    1.291   .     A
C96    C97     1.420   .     A
C96    C521    1.428   .     S
C96    C537    1.418   .     S
C97    C104    1.422   .     A
C97    C101    1.411   .     A
C98    C102    1.402   .     A
C98    C519    1.428   1_554 S
C98    C522    1.417   1_554 S
C99    C100    1.392   .     A
C99    C521    1.417   .     S
C99    C533    1.401   .     S
C100   C101    1.385   .     A
C100   H120    1.084   .     S
C101   H126    1.081   .     S
C102   C111    1.402   .     A
C102   H122    1.076   .     S
C103   C111    1.417   .     A
C103   C110    1.400   .     A
C103   C44     1.509   1_655 S
C104   C106    1.476   .     S
C104   C112    1.401   .     A
C105   C248    1.328   .     S
C105   H268    1.088   .     S
C106   O133    1.295   .     A
C106   O132    1.303   .     A
C107   C108    1.428   .     S
C107   C387    1.328   1_545 S
C107   H399    1.088   1_545 S
C108   O135    1.291   .     A
C108   O134    1.285   .     A
C109   O136    1.298   .     A
C109   O137    1.300   .     A
C109   C111    1.477   .     S
C110   C522    1.401   1_554 S
C110   H27     1.085   1_655 S
C112   H123    1.083   .     S
C112   C113    1.388   .     A
C113   C537    1.392   .     S
C114   H124    1.077   .     S
C114   C519    1.418   1_554 S
C114   C536    1.392   1_554 S
Cu115  N129    2.017   .     S
Cu115  O134    1.952   .     S
Cu115  O136    1.917   .     S
Cu115  O130    1.956   .     S
Cu115  Cu116   2.685   .     S
Cu115  O132    1.939   .     S
Cu116  O133    1.917   .     S
Cu116  N128    2.017   .     S
Cu116  O135    1.956   .     S
Cu116  O131    1.952   .     S
Cu116  O137    1.939   .     S
H117   C248    1.088   .     S
H119   N35     1.029   1_655 S
H125   C19     1.083   1_655 S
H127   C387    1.088   1_545 S
N128   H24     1.029   1_655 S
N128   N35     1.284   1_655 S
C138   H141    1.111   .     S
C138   H140    1.110   .     S
H139   C44     1.110   1_655 S
C142   C152    1.427   .     S
C142   O178    1.285   .     A
C142   O177    1.291   .     A
C143   C144    1.420   .     A
C143   C568    1.428   .     S
C143   C584    1.418   .     S
C144   C151    1.422   .     A
C144   C148    1.411   .     A
C145   C149    1.402   .     A
C145   C566    1.428   1_554 S
C145   C569    1.417   1_554 S
C146   C147    1.392   .     A
C146   C568    1.417   .     S
C146   C580    1.401   .     S
C147   C148    1.385   .     A
C147   H167    1.084   .     S
C148   H173    1.081   .     S
C149   C158    1.402   .     A
C149   H169    1.076   .     S
C150   C158    1.417   .     A
C150   C157    1.400   .     A
C150   C232    1.509   .     S
C151   C153    1.476   .     S
C151   C159    1.401   .     A
C152   C295    1.328   .     S
C152   H315    1.088   .     S
C153   O180    1.295   .     A
C153   O179    1.303   .     A
C154   C155    1.428   .     S
C155   O182    1.291   .     A
C155   O181    1.285   .     A
C156   O183    1.298   .     A
C156   O184    1.300   .     A
C156   C158    1.477   .     S
C157   C569    1.401   1_554 S
C157   H215    1.085   .     S
C159   H170    1.083   .     S
C159   C160    1.388   .     A
C160   C584    1.392   .     S
C160   H266    1.083   1_455 S
C161   H171    1.077   .     S
C161   C566    1.418   1_554 S
C161   C583    1.392   1_554 S
Cu162  N176    2.017   .     S
Cu162  O181    1.952   .     S
Cu162  O183    1.917   .     S
Cu162  O177    1.956   .     S
Cu162  Cu163   2.685   .     S
Cu162  O179    1.939   .     S
Cu163  O180    1.917   .     S
Cu163  N175    2.017   .     S
Cu163  O182    1.956   .     S
Cu163  O178    1.952   .     S
Cu163  O184    1.939   .     S
H164   C295    1.088   .     S
H165   N269    1.029   1_455 S
H166   N223    1.029   .     S
H168   C251    1.085   1_455 S
H172   C207    1.083   .     S
N175   H212    1.029   .     S
N175   N223    1.284   .     S
N176   N269    1.284   1_455 S
N176   H260    1.029   1_455 S
C185   H188    1.111   .     S
C185   H187    1.110   .     S
C185   C244    1.509   1_455 S
C185   H280    1.110   1_455 S
H186   C232    1.110   .     S
C189   C199    1.427   .     S
C189   O225    1.285   .     A
C189   O224    1.291   .     A
C190   C191    1.420   .     A
C190   C615    1.428   .     S
C190   C631    1.418   .     S
C191   C198    1.422   .     A
C191   C195    1.411   .     A
C192   C196    1.402   .     A
C192   C613    1.428   1_554 S
C192   C616    1.417   1_554 S
C193   C194    1.392   .     A
C193   C615    1.417   .     S
C193   C627    1.401   .     S
C194   C195    1.385   .     A
C194   H214    1.084   .     S
C195   H220    1.081   .     S
C196   C205    1.402   .     A
C196   H216    1.076   .     S
C197   C205    1.417   .     A
C197   C204    1.400   .     A
C197   C279    1.509   .     S
C198   C200    1.476   .     S
C198   C206    1.401   .     A
C199   C342    1.328   .     S
C199   H362    1.088   .     S
C200   O227    1.295   .     A
C200   O226    1.303   .     A
C201   C202    1.428   .     S
C202   O229    1.291   .     A
C202   O228    1.285   .     A
C203   O230    1.298   .     A
C203   O231    1.300   .     A
C203   C205    1.477   .     S
C204   C616    1.401   1_554 S
C204   H262    1.085   .     S
C206   H217    1.083   .     S
C206   C207    1.388   .     A
C207   C631    1.392   .     S
C208   H218    1.077   .     S
C208   C613    1.418   1_554 S
C208   C630    1.392   1_554 S
Cu209  N223    2.017   .     S
Cu209  O228    1.952   .     S
Cu209  O230    1.917   .     S
Cu209  O224    1.956   .     S
Cu209  Cu210   2.685   .     S
Cu209  O226    1.939   .     S
Cu210  O227    1.917   .     S
Cu210  N222    2.017   .     S
Cu210  O229    1.956   .     S
Cu210  O225    1.952   .     S
Cu210  O231    1.939   .     S
H211   C342    1.088   .     S
H213   N270    1.029   .     S
H219   C254    1.083   .     S
N222   H259    1.029   .     S
N222   N270    1.284   .     S
C232   H235    1.111   .     S
C232   H234    1.110   .     S
H233   C279    1.110   .     S
C236   C246    1.427   .     S
C236   O272    1.285   .     A
C236   O271    1.291   .     A
C237   C238    1.420   .     A
C237   C662    1.428   .     S
C237   C678    1.418   .     S
C238   C245    1.422   .     A
C238   C242    1.411   .     A
C239   C243    1.402   .     A
C239   C660    1.428   1_554 S
C239   C663    1.417   1_554 S
C240   C241    1.392   .     A
C240   C662    1.417   .     S
C240   C674    1.401   .     S
C241   C242    1.385   .     A
C241   H261    1.084   .     S
C242   H267    1.081   .     S
C243   C252    1.402   .     A
C243   H263    1.076   .     S
C244   C252    1.417   .     A
C244   C251    1.400   .     A
C244   C185    1.509   1_655 S
C245   C247    1.476   .     S
C245   C253    1.401   .     A
C246   C389    1.328   .     S
C246   H409    1.088   .     S
C247   O274    1.295   .     A
C247   O273    1.303   .     A
C248   C249    1.428   .     S
C249   O276    1.291   .     A
C249   O275    1.285   .     A
C250   O277    1.298   .     A
C250   O278    1.300   .     A
C250   C252    1.477   .     S
C251   C663    1.401   1_554 S
C251   H168    1.085   1_655 S
C253   H264    1.083   .     S
C253   C254    1.388   .     A
C254   C678    1.392   .     S
C255   H265    1.077   .     S
C255   C660    1.418   1_554 S
C255   C677    1.392   1_554 S
Cu256  N270    2.017   .     S
Cu256  O275    1.952   .     S
Cu256  O277    1.917   .     S
Cu256  O271    1.956   .     S
Cu256  Cu257   2.685   .     S
Cu256  O273    1.939   .     S
Cu257  O274    1.917   .     S
Cu257  N269    2.017   .     S
Cu257  O276    1.956   .     S
Cu257  O272    1.952   .     S
Cu257  O278    1.939   .     S
H258   C389    1.088   .     S
H260   N176    1.029   1_655 S
H266   C160    1.083   1_655 S
N269   H165    1.029   1_655 S
N269   N176    1.284   1_655 S
C279   H282    1.111   .     S
C279   H281    1.110   .     S
H280   C185    1.110   1_655 S
C283   C293    1.427   .     S
C283   O319    1.285   .     A
C283   O318    1.291   .     A
C284   C285    1.420   .     A
C284   C709    1.428   .     S
C284   C725    1.418   .     S
C285   C292    1.422   .     A
C285   C289    1.411   .     A
C286   C290    1.402   .     A
C286   C707    1.428   1_554 S
C286   C710    1.417   1_554 S
C287   C288    1.392   .     A
C287   C709    1.417   .     S
C287   C721    1.401   .     S
C288   C289    1.385   .     A
C288   H308    1.084   .     S
C289   H314    1.081   .     S
C290   C299    1.402   .     A
C290   H310    1.076   .     S
C291   C299    1.417   .     A
C291   C298    1.400   .     A
C291   C373    1.509   .     S
C292   C294    1.476   .     S
C292   C300    1.401   .     A
C293   C13     1.328   1_565 S
C293   H33     1.088   1_565 S
C294   O321    1.295   .     A
C294   O320    1.303   .     A
C295   C296    1.428   .     S
C296   O323    1.291   .     A
C296   O322    1.285   .     A
C297   O324    1.298   .     A
C297   O325    1.300   .     A
C297   C299    1.477   .     S
C298   C710    1.401   1_554 S
C298   H356    1.085   .     S
C300   H311    1.083   .     S
C300   C301    1.388   .     A
C301   C725    1.392   .     S
C301   H407    1.083   1_455 S
C302   H312    1.077   .     S
C302   C707    1.418   1_554 S
C302   C724    1.392   1_554 S
Cu303  N317    2.017   .     S
Cu303  O322    1.952   .     S
Cu303  O324    1.917   .     S
Cu303  O318    1.956   .     S
Cu303  Cu304   2.685   .     S
Cu303  O320    1.939   .     S
Cu304  O321    1.917   .     S
Cu304  N316    2.017   .     S
Cu304  O323    1.956   .     S
Cu304  O319    1.952   .     S
Cu304  O325    1.939   .     S
H305   C13     1.088   1_565 S
H306   N410    1.029   1_455 S
H307   N364    1.029   .     S
H309   C392    1.085   1_455 S
H313   C348    1.083   .     S
N316   H353    1.029   .     S
N316   N364    1.284   .     S
N317   N410    1.284   1_455 S
N317   H401    1.029   1_455 S
C326   H329    1.111   .     S
C326   H328    1.110   .     S
C326   C385    1.509   1_455 S
C326   H421    1.110   1_455 S
H327   C373    1.110   .     S
C330   C340    1.427   .     S
C330   O366    1.285   .     A
C330   O365    1.291   .     A
C331   C332    1.420   .     A
C331   C756    1.428   .     S
C331   C772    1.418   .     S
C332   C339    1.422   .     A
C332   C336    1.411   .     A
C333   C337    1.402   .     A
C333   C754    1.428   1_554 S
C333   C757    1.417   1_554 S
C334   C335    1.392   .     A
C334   C756    1.417   .     S
C334   C768    1.401   .     S
C335   C336    1.385   .     A
C335   H355    1.084   .     S
C336   H361    1.081   .     S
C337   C346    1.402   .     A
C337   H357    1.076   .     S
C338   C346    1.417   .     A
C338   C345    1.400   .     A
C338   C420    1.509   .     S
C339   C341    1.476   .     S
C339   C347    1.401   .     A
C340   C60     1.328   1_565 S
C340   H80     1.088   1_565 S
C341   O368    1.295   .     A
C341   O367    1.303   .     A
C342   C343    1.428   .     S
C343   O370    1.291   .     A
C343   O369    1.285   .     A
C344   O371    1.298   .     A
C344   O372    1.300   .     A
C344   C346    1.477   .     S
C345   C757    1.401   1_554 S
C345   H403    1.085   .     S
C347   H358    1.083   .     S
C347   C348    1.388   .     A
C348   C772    1.392   .     S
C349   H359    1.077   .     S
C349   C754    1.418   1_554 S
C349   C771    1.392   1_554 S
Cu350  N364    2.017   .     S
Cu350  O369    1.952   .     S
Cu350  O371    1.917   .     S
Cu350  O365    1.956   .     S
Cu350  Cu351   2.685   .     S
Cu350  O367    1.939   .     S
Cu351  O368    1.917   .     S
Cu351  N363    2.017   .     S
Cu351  O370    1.956   .     S
Cu351  O366    1.952   .     S
Cu351  O372    1.939   .     S
H352   C60     1.088   1_565 S
H354   N411    1.029   .     S
H360   C395    1.083   .     S
N363   H400    1.029   .     S
N363   N411    1.284   .     S
C373   H376    1.111   .     S
C373   H375    1.110   .     S
H374   C420    1.110   .     S
C377   C387    1.427   .     S
C377   O413    1.285   .     A
C377   O412    1.291   .     A
C378   C379    1.420   .     A
C378   C803    1.428   .     S
C378   C819    1.418   .     S
C379   C386    1.422   .     A
C379   C383    1.411   .     A
C380   C384    1.402   .     A
C380   C801    1.428   1_554 S
C380   C804    1.417   1_554 S
C381   C382    1.392   .     A
C381   C803    1.417   .     S
C381   C815    1.401   .     S
C382   C383    1.385   .     A
C382   H402    1.084   .     S
C383   H408    1.081   .     S
C384   C393    1.402   .     A
C384   H404    1.076   .     S
C385   C393    1.417   .     A
C385   C392    1.400   .     A
C385   C326    1.509   1_655 S
C386   C388    1.476   .     S
C386   C394    1.401   .     A
C387   C107    1.328   1_565 S
C387   H127    1.088   1_565 S
C388   O415    1.295   .     A
C388   O414    1.303   .     A
C389   C390    1.428   .     S
C390   O417    1.291   .     A
C390   O416    1.285   .     A
C391   O418    1.298   .     A
C391   O419    1.300   .     A
C391   C393    1.477   .     S
C392   C804    1.401   1_554 S
C392   H309    1.085   1_655 S
C394   H405    1.083   .     S
C394   C395    1.388   .     A
C395   C819    1.392   .     S
C396   H406    1.077   .     S
C396   C801    1.418   1_554 S
C396   C818    1.392   1_554 S
Cu397  N411    2.017   .     S
Cu397  O416    1.952   .     S
Cu397  O418    1.917   .     S
Cu397  O412    1.956   .     S
Cu397  Cu398   2.685   .     S
Cu397  O414    1.939   .     S
Cu398  O415    1.917   .     S
Cu398  N410    2.017   .     S
Cu398  O417    1.956   .     S
Cu398  O413    1.952   .     S
Cu398  O419    1.939   .     S
H399   C107    1.088   1_565 S
H401   N317    1.029   1_655 S
H407   C301    1.083   1_655 S
N410   H306    1.029   1_655 S
N410   N317    1.284   1_655 S
C420   H423    1.111   .     S
C420   H422    1.110   .     S
H421   C326    1.110   1_655 S
C424   C434    1.427   .     S
C424   O460    1.285   .     A
C424   O459    1.291   .     A
C425   C426    1.420   .     A
C425   C4      1.428   1_556 S
C425   C20     1.418   1_556 S
C426   C433    1.422   .     A
C426   C430    1.411   .     A
C427   C431    1.402   .     A
C428   C429    1.392   .     A
C428   C4      1.417   1_556 S
C428   C16     1.401   1_556 S
C429   C430    1.385   .     A
C429   H449    1.084   .     S
C430   H455    1.081   .     S
C431   C440    1.402   .     A
C431   H451    1.076   .     S
C432   C440    1.417   .     A
C432   C439    1.400   .     A
C432   C514    1.509   .     S
C433   C435    1.476   .     S
C433   C441    1.401   .     A
C434   C577    1.328   .     S
C434   H597    1.088   .     S
C435   O462    1.295   .     A
C435   O461    1.303   .     A
C436   C437    1.428   .     S
C436   C716    1.328   1_545 S
C436   H728    1.088   1_545 S
C437   O464    1.291   .     A
C437   O463    1.285   .     A
C438   O465    1.298   .     A
C438   O466    1.300   .     A
C438   C440    1.477   .     S
C439   H497    1.085   .     S
C441   H452    1.083   .     S
C441   C442    1.388   .     A
C442   C20     1.392   1_556 S
C442   H548    1.083   1_455 S
C443   H453    1.077   .     S
Cu444  N458    2.017   .     S
Cu444  O463    1.952   .     S
Cu444  O465    1.917   .     S
Cu444  O459    1.956   .     S
Cu444  Cu445   2.685   .     S
Cu444  O461    1.939   .     S
Cu445  O462    1.917   .     S
Cu445  N457    2.017   .     S
Cu445  O464    1.956   .     S
Cu445  O460    1.952   .     S
Cu445  O466    1.939   .     S
H446   C577    1.088   .     S
H447   N551    1.029   1_455 S
H448   N505    1.029   .     S
H450   C533    1.085   1_455 S
H454   C489    1.083   .     S
H456   C716    1.088   1_545 S
N457   H494    1.029   .     S
N457   N505    1.284   .     S
N458   N551    1.284   1_455 S
N458   H542    1.029   1_455 S
C467   H470    1.111   .     S
C467   H469    1.110   .     S
C467   C526    1.509   1_455 S
C467   H562    1.110   1_455 S
H468   C514    1.110   .     S
C471   C481    1.427   .     S
C471   O507    1.285   .     A
C471   O506    1.291   .     A
C472   C473    1.420   .     A
C472   C51     1.428   1_556 S
C472   C67     1.418   1_556 S
C473   C480    1.422   .     A
C473   C477    1.411   .     A
C474   C478    1.402   .     A
C475   C476    1.392   .     A
C475   C51     1.417   1_556 S
C475   C63     1.401   1_556 S
C476   C477    1.385   .     A
C476   H496    1.084   .     S
C477   H502    1.081   .     S
C478   C487    1.402   .     A
C478   H498    1.076   .     S
C479   C487    1.417   .     A
C479   C486    1.400   .     A
C479   C561    1.509   .     S
C480   C482    1.476   .     S
C480   C488    1.401   .     A
C481   C624    1.328   .     S
C481   H644    1.088   .     S
C482   O509    1.295   .     A
C482   O508    1.303   .     A
C483   C484    1.428   .     S
C483   C763    1.328   1_545 S
C483   H775    1.088   1_545 S
C484   O511    1.291   .     A
C484   O510    1.285   .     A
C485   O512    1.298   .     A
C485   O513    1.300   .     A
C485   C487    1.477   .     S
C486   H544    1.085   .     S
C488   H499    1.083   .     S
C488   C489    1.388   .     A
C489   C67     1.392   1_556 S
C490   H500    1.077   .     S
Cu491  N505    2.017   .     S
Cu491  O510    1.952   .     S
Cu491  O512    1.917   .     S
Cu491  O506    1.956   .     S
Cu491  Cu492   2.685   .     S
Cu491  O508    1.939   .     S
Cu492  O509    1.917   .     S
Cu492  N504    2.017   .     S
Cu492  O511    1.956   .     S
Cu492  O507    1.952   .     S
Cu492  O513    1.939   .     S
H493   C624    1.088   .     S
H495   N552    1.029   .     S
H501   C536    1.083   .     S
H503   C763    1.088   1_545 S
N504   H541    1.029   .     S
N504   N552    1.284   .     S
C514   H517    1.111   .     S
C514   H516    1.110   .     S
H515   C561    1.110   .     S
C518   C528    1.427   .     S
C518   O554    1.285   .     A
C518   O553    1.291   .     A
C519   C520    1.420   .     A
C519   C98     1.428   1_556 S
C519   C114    1.418   1_556 S
C520   C527    1.422   .     A
C520   C524    1.411   .     A
C521   C525    1.402   .     A
C522   C523    1.392   .     A
C522   C98     1.417   1_556 S
C522   C110    1.401   1_556 S
C523   C524    1.385   .     A
C523   H543    1.084   .     S
C524   H549    1.081   .     S
C525   C534    1.402   .     A
C525   H545    1.076   .     S
C526   C534    1.417   .     A
C526   C533    1.400   .     A
C526   C467    1.509   1_655 S
C527   C529    1.476   .     S
C527   C535    1.401   .     A
C528   C671    1.328   .     S
C528   H691    1.088   .     S
C529   O556    1.295   .     A
C529   O555    1.303   .     A
C530   C531    1.428   .     S
C530   C810    1.328   1_545 S
C530   H822    1.088   1_545 S
C531   O558    1.291   .     A
C531   O557    1.285   .     A
C532   O559    1.298   .     A
C532   O560    1.300   .     A
C532   C534    1.477   .     S
C533   H450    1.085   1_655 S
C535   H546    1.083   .     S
C535   C536    1.388   .     A
C536   C114    1.392   1_556 S
C537   H547    1.077   .     S
Cu538  N552    2.017   .     S
Cu538  O557    1.952   .     S
Cu538  O559    1.917   .     S
Cu538  O553    1.956   .     S
Cu538  Cu539   2.685   .     S
Cu538  O555    1.939   .     S
Cu539  O556    1.917   .     S
Cu539  N551    2.017   .     S
Cu539  O558    1.956   .     S
Cu539  O554    1.952   .     S
Cu539  O560    1.939   .     S
H540   C671    1.088   .     S
H542   N458    1.029   1_655 S
H548   C442    1.083   1_655 S
H550   C810    1.088   1_545 S
N551   H447    1.029   1_655 S
N551   N458    1.284   1_655 S
C561   H564    1.111   .     S
C561   H563    1.110   .     S
H562   C467    1.110   1_655 S
C565   C575    1.427   .     S
C565   O601    1.285   .     A
C565   O600    1.291   .     A
C566   C567    1.420   .     A
C566   C145    1.428   1_556 S
C566   C161    1.418   1_556 S
C567   C574    1.422   .     A
C567   C571    1.411   .     A
C568   C572    1.402   .     A
C569   C570    1.392   .     A
C569   C145    1.417   1_556 S
C569   C157    1.401   1_556 S
C570   C571    1.385   .     A
C570   H590    1.084   .     S
C571   H596    1.081   .     S
C572   C581    1.402   .     A
C572   H592    1.076   .     S
C573   C581    1.417   .     A
C573   C580    1.400   .     A
C573   C655    1.509   .     S
C574   C576    1.476   .     S
C574   C582    1.401   .     A
C575   C718    1.328   .     S
C575   H738    1.088   .     S
C576   O603    1.295   .     A
C576   O602    1.303   .     A
C577   C578    1.428   .     S
C578   O605    1.291   .     A
C578   O604    1.285   .     A
C579   O606    1.298   .     A
C579   O607    1.300   .     A
C579   C581    1.477   .     S
C580   H638    1.085   .     S
C582   H593    1.083   .     S
C582   C583    1.388   .     A
C583   C161    1.392   1_556 S
C583   H689    1.083   1_455 S
C584   H594    1.077   .     S
Cu585  N599    2.017   .     S
Cu585  O604    1.952   .     S
Cu585  O606    1.917   .     S
Cu585  O600    1.956   .     S
Cu585  Cu586   2.685   .     S
Cu585  O602    1.939   .     S
Cu586  O603    1.917   .     S
Cu586  N598    2.017   .     S
Cu586  O605    1.956   .     S
Cu586  O601    1.952   .     S
Cu586  O607    1.939   .     S
H587   C718    1.088   .     S
H588   N692    1.029   1_455 S
H589   N646    1.029   .     S
H591   C674    1.085   1_455 S
H595   C630    1.083   .     S
N598   H635    1.029   .     S
N598   N646    1.284   .     S
N599   N692    1.284   1_455 S
N599   H683    1.029   1_455 S
C608   H611    1.111   .     S
C608   H610    1.110   .     S
C608   C667    1.509   1_455 S
C608   H703    1.110   1_455 S
H609   C655    1.110   .     S
C612   C622    1.427   .     S
C612   O648    1.285   .     A
C612   O647    1.291   .     A
C613   C614    1.420   .     A
C613   C192    1.428   1_556 S
C613   C208    1.418   1_556 S
C614   C621    1.422   .     A
C614   C618    1.411   .     A
C615   C619    1.402   .     A
C616   C617    1.392   .     A
C616   C192    1.417   1_556 S
C616   C204    1.401   1_556 S
C617   C618    1.385   .     A
C617   H637    1.084   .     S
C618   H643    1.081   .     S
C619   C628    1.402   .     A
C619   H639    1.076   .     S
C620   C628    1.417   .     A
C620   C627    1.400   .     A
C620   C702    1.509   .     S
C621   C623    1.476   .     S
C621   C629    1.401   .     A
C622   C765    1.328   .     S
C622   H785    1.088   .     S
C623   O650    1.295   .     A
C623   O649    1.303   .     A
C624   C625    1.428   .     S
C625   O652    1.291   .     A
C625   O651    1.285   .     A
C626   O653    1.298   .     A
C626   O654    1.300   .     A
C626   C628    1.477   .     S
C627   H685    1.085   .     S
C629   H640    1.083   .     S
C629   C630    1.388   .     A
C630   C208    1.392   1_556 S
C631   H641    1.077   .     S
Cu632  N646    2.017   .     S
Cu632  O651    1.952   .     S
Cu632  O653    1.917   .     S
Cu632  O647    1.956   .     S
Cu632  Cu633   2.685   .     S
Cu632  O649    1.939   .     S
Cu633  O650    1.917   .     S
Cu633  N645    2.017   .     S
Cu633  O652    1.956   .     S
Cu633  O648    1.952   .     S
Cu633  O654    1.939   .     S
H634   C765    1.088   .     S
H636   N693    1.029   .     S
H642   C677    1.083   .     S
N645   H682    1.029   .     S
N645   N693    1.284   .     S
C655   H658    1.111   .     S
C655   H657    1.110   .     S
H656   C702    1.110   .     S
C659   C669    1.427   .     S
C659   O695    1.285   .     A
C659   O694    1.291   .     A
C660   C661    1.420   .     A
C660   C239    1.428   1_556 S
C660   C255    1.418   1_556 S
C661   C668    1.422   .     A
C661   C665    1.411   .     A
C662   C666    1.402   .     A
C663   C664    1.392   .     A
C663   C239    1.417   1_556 S
C663   C251    1.401   1_556 S
C664   C665    1.385   .     A
C664   H684    1.084   .     S
C665   H690    1.081   .     S
C666   C675    1.402   .     A
C666   H686    1.076   .     S
C667   C675    1.417   .     A
C667   C674    1.400   .     A
C667   C608    1.509   1_655 S
C668   C670    1.476   .     S
C668   C676    1.401   .     A
C669   C812    1.328   .     S
C669   H832    1.088   .     S
C670   O697    1.295   .     A
C670   O696    1.303   .     A
C671   C672    1.428   .     S
C672   O699    1.291   .     A
C672   O698    1.285   .     A
C673   O700    1.298   .     A
C673   O701    1.300   .     A
C673   C675    1.477   .     S
C674   H591    1.085   1_655 S
C676   H687    1.083   .     S
C676   C677    1.388   .     A
C677   C255    1.392   1_556 S
C678   H688    1.077   .     S
Cu679  N693    2.017   .     S
Cu679  O698    1.952   .     S
Cu679  O700    1.917   .     S
Cu679  O694    1.956   .     S
Cu679  Cu680   2.685   .     S
Cu679  O696    1.939   .     S
Cu680  O697    1.917   .     S
Cu680  N692    2.017   .     S
Cu680  O699    1.956   .     S
Cu680  O695    1.952   .     S
Cu680  O701    1.939   .     S
H681   C812    1.088   .     S
H683   N599    1.029   1_655 S
H689   C583    1.083   1_655 S
N692   H588    1.029   1_655 S
N692   N599    1.284   1_655 S
C702   H705    1.111   .     S
C702   H704    1.110   .     S
H703   C608    1.110   1_655 S
C706   C716    1.427   .     S
C706   O742    1.285   .     A
C706   O741    1.291   .     A
C707   C708    1.420   .     A
C707   C286    1.428   1_556 S
C707   C302    1.418   1_556 S
C708   C715    1.422   .     A
C708   C712    1.411   .     A
C709   C713    1.402   .     A
C710   C711    1.392   .     A
C710   C286    1.417   1_556 S
C710   C298    1.401   1_556 S
C711   C712    1.385   .     A
C711   H731    1.084   .     S
C712   H737    1.081   .     S
C713   C722    1.402   .     A
C713   H733    1.076   .     S
C714   C722    1.417   .     A
C714   C721    1.400   .     A
C714   C796    1.509   .     S
C715   C717    1.476   .     S
C715   C723    1.401   .     A
C716   C436    1.328   1_565 S
C716   H456    1.088   1_565 S
C717   O744    1.295   .     A
C717   O743    1.303   .     A
C718   C719    1.428   .     S
C719   O746    1.291   .     A
C719   O745    1.285   .     A
C720   O747    1.298   .     A
C720   O748    1.300   .     A
C720   C722    1.477   .     S
C721   H779    1.085   .     S
C723   H734    1.083   .     S
C723   C724    1.388   .     A
C724   C302    1.392   1_556 S
C724   H830    1.083   1_455 S
C725   H735    1.077   .     S
Cu726  N740    2.017   .     S
Cu726  O745    1.952   .     S
Cu726  O747    1.917   .     S
Cu726  O741    1.956   .     S
Cu726  Cu727   2.685   .     S
Cu726  O743    1.939   .     S
Cu727  O744    1.917   .     S
Cu727  N739    2.017   .     S
Cu727  O746    1.956   .     S
Cu727  O742    1.952   .     S
Cu727  O748    1.939   .     S
H728   C436    1.088   1_565 S
H729   N833    1.029   1_455 S
H730   N787    1.029   .     S
H732   C815    1.085   1_455 S
H736   C771    1.083   .     S
N739   H776    1.029   .     S
N739   N787    1.284   .     S
N740   N833    1.284   1_455 S
N740   H824    1.029   1_455 S
C749   H752    1.111   .     S
C749   H751    1.110   .     S
C749   C808    1.509   1_455 S
C749   H844    1.110   1_455 S
H750   C796    1.110   .     S
C753   C763    1.427   .     S
C753   O789    1.285   .     A
C753   O788    1.291   .     A
C754   C755    1.420   .     A
C754   C333    1.428   1_556 S
C754   C349    1.418   1_556 S
C755   C762    1.422   .     A
C755   C759    1.411   .     A
C756   C760    1.402   .     A
C757   C758    1.392   .     A
C757   C333    1.417   1_556 S
C757   C345    1.401   1_556 S
C758   C759    1.385   .     A
C758   H778    1.084   .     S
C759   H784    1.081   .     S
C760   C769    1.402   .     A
C760   H780    1.076   .     S
C761   C769    1.417   .     A
C761   C768    1.400   .     A
C761   C843    1.509   .     S
C762   C764    1.476   .     S
C762   C770    1.401   .     A
C763   C483    1.328   1_565 S
C763   H503    1.088   1_565 S
C764   O791    1.295   .     A
C764   O790    1.303   .     A
C765   C766    1.428   .     S
C766   O793    1.291   .     A
C766   O792    1.285   .     A
C767   O794    1.298   .     A
C767   O795    1.300   .     A
C767   C769    1.477   .     S
C768   H826    1.085   .     S
C770   H781    1.083   .     S
C770   C771    1.388   .     A
C771   C349    1.392   1_556 S
C772   H782    1.077   .     S
Cu773  N787    2.017   .     S
Cu773  O792    1.952   .     S
Cu773  O794    1.917   .     S
Cu773  O788    1.956   .     S
Cu773  Cu774   2.685   .     S
Cu773  O790    1.939   .     S
Cu774  O791    1.917   .     S
Cu774  N786    2.017   .     S
Cu774  O793    1.956   .     S
Cu774  O789    1.952   .     S
Cu774  O795    1.939   .     S
H775   C483    1.088   1_565 S
H777   N834    1.029   .     S
H783   C818    1.083   .     S
N786   H823    1.029   .     S
N786   N834    1.284   .     S
C796   H799    1.111   .     S
C796   H798    1.110   .     S
H797   C843    1.110   .     S
C800   C810    1.427   .     S
C800   O836    1.285   .     A
C800   O835    1.291   .     A
C801   C802    1.420   .     A
C801   C380    1.428   1_556 S
C801   C396    1.418   1_556 S
C802   C809    1.422   .     A
C802   C806    1.411   .     A
C803   C807    1.402   .     A
C804   C805    1.392   .     A
C804   C380    1.417   1_556 S
C804   C392    1.401   1_556 S
C805   C806    1.385   .     A
C805   H825    1.084   .     S
C806   H831    1.081   .     S
C807   C816    1.402   .     A
C807   H827    1.076   .     S
C808   C816    1.417   .     A
C808   C815    1.400   .     A
C808   C749    1.509   1_655 S
C809   C811    1.476   .     S
C809   C817    1.401   .     A
C810   C530    1.328   1_565 S
C810   H550    1.088   1_565 S
C811   O838    1.295   .     A
C811   O837    1.303   .     A
C812   C813    1.428   .     S
C813   O840    1.291   .     A
C813   O839    1.285   .     A
C814   O841    1.298   .     A
C814   O842    1.300   .     A
C814   C816    1.477   .     S
C815   H732    1.085   1_655 S
C817   H828    1.083   .     S
C817   C818    1.388   .     A
C818   C396    1.392   1_556 S
C819   H829    1.077   .     S
Cu820  N834    2.017   .     S
Cu820  O839    1.952   .     S
Cu820  O841    1.917   .     S
Cu820  O835    1.956   .     S
Cu820  Cu821   2.685   .     S
Cu820  O837    1.939   .     S
Cu821  O838    1.917   .     S
Cu821  N833    2.017   .     S
Cu821  O840    1.956   .     S
Cu821  O836    1.952   .     S
Cu821  O842    1.939   .     S
H822   C530    1.088   1_565 S
H824   N740    1.029   1_655 S
H830   C724    1.083   1_655 S
N833   H729    1.029   1_655 S
N833   N740    1.284   1_655 S
C843   H846    1.111   .     S
C843   H845    1.110   .     S
H844   C749    1.110   1_655 S
