data_str_m2_o1_o10_pcu_sym.139
_audit_creation_date              2020-01-03
_audit_creation_method            'Materials Studio'
_symmetry_space_group_name_H-M    'P1'
_symmetry_Int_Tables_number       1
_symmetry_cell_setting            triclinic
loop_
_symmetry_equiv_pos_as_xyz
  x,y,z
_cell_length_a                    26.0428
_cell_length_b                    32.7624
_cell_length_c                    29.0169
_cell_angle_alpha                 89.1456
_cell_angle_beta                  94.9099
_cell_angle_gamma                 94.6326
loop_
_atom_site_label
_atom_site_type_symbol
_atom_site_fract_x
_atom_site_fract_y
_atom_site_fract_z
_atom_site_U_iso_or_equiv
_atom_site_adp_type
_atom_site_occupancy
C1     C     0.16982   0.08775   0.16733   0.00000  Uiso   1.00
C2     C     0.16353   0.24558   0.16601   0.00000  Uiso   1.00
C3     C     0.06850   0.16089   0.15640   0.00000  Uiso   1.00
C4     C     0.26484   0.17243   0.17693   0.00000  Uiso   1.00
C5     C     0.01297   0.15214   0.15723   0.00000  Uiso   1.00
C6     C     0.32036   0.18119   0.17608   0.00000  Uiso   1.00
C7     C     0.18158   0.02252   0.12766   0.00000  Uiso   1.00
C8     C     0.15179   0.31082   0.20568   0.00000  Uiso   1.00
C9     C     0.17127   0.31349   0.12476   0.00000  Uiso   1.00
C10    C     0.16210   0.01984   0.20858   0.00000  Uiso   1.00
C11    C     0.16050   0.29034   0.16492   0.00000  Uiso   1.00
C12    C     0.17286   0.04299   0.16842   0.00000  Uiso   1.00
C13    C     0.13521   0.13908   0.02271   0.00000  Uiso   1.00
C14    C     0.19812   0.19425   0.31062   0.00000  Uiso   1.00
C15    C     0.13251   0.14062   0.30667   0.00000  Uiso   1.00
C16    C     0.20082   0.19271   0.02667   0.00000  Uiso   1.00
Cu17   Cu    0.16667   0.16667   0.21355   0.00000  Uiso   1.00
Cu18   Cu    0.16667   0.16666   0.11978   0.00000  Uiso   1.00
N19    N     0.16668   0.16668   0.28403   0.00000  Uiso   1.00
N20    N     0.16665   0.16666   0.04931   0.00000  Uiso   1.00
O21    O     0.16666   0.10655   0.20625   0.00000  Uiso   1.00
O22    O     0.16667   0.22678   0.12709   0.00000  Uiso   1.00
O23    O     0.16666   0.10654   0.12706   0.00000  Uiso   1.00
O24    O     0.16667   0.22679   0.20628   0.00000  Uiso   1.00
O25    O     0.09161   0.16667   0.19712   0.00000  Uiso   1.00
O26    O     0.24172   0.16666   0.13621   0.00000  Uiso   1.00
O27    O     0.09161   0.16666   0.11793   0.00000  Uiso   1.00
O28    O     0.24172   0.16667   0.21540   0.00000  Uiso   1.00
C29    C     0.32562   0.10698   0.15899   0.00000  Uiso   1.00
C30    C     0.01471   0.08038   0.12492   0.00000  Uiso   1.00
H31    H     0.00827   0.09344   0.08956   0.00000  Uiso   1.00
H32    H     0.05639   0.07823   0.13532   0.00000  Uiso   1.00
H33    H     0.32850   0.04897   0.12544   0.00000  Uiso   1.00
H34    H     0.00144   0.09456   0.19420   0.00000  Uiso   1.00
H35    H     0.28311   0.10268   0.15157   0.00000  Uiso   1.00
C36    C     0.00768   0.22635   0.17428   0.00000  Uiso   1.00
C37    C     0.31879   0.25291   0.20852   0.00000  Uiso   1.00
H38    H     0.27711   0.25515   0.19820   0.00000  Uiso   1.00
H39    H     0.32525   0.23976   0.24383   0.00000  Uiso   1.00
H40    H     0.00508   0.28429   0.20805   0.00000  Uiso   1.00
H41    H     0.05020   0.23068   0.18146   0.00000  Uiso   1.00
H42    H     0.33160   0.23879   0.13913   0.00000  Uiso   1.00
C43    C     0.20535   0.04404   0.08968   0.00000  Uiso   1.00
N44    N     0.22459   0.06107   0.05959   0.00000  Uiso   1.00
C45    C     0.12803   0.28930   0.24367   0.00000  Uiso   1.00
N46    N     0.10881   0.27227   0.27377   0.00000  Uiso   1.00
C47    C     0.16631   0.29547   0.07906   0.00000  Uiso   1.00
N48    N     0.16146   0.28178   0.04229   0.00000  Uiso   1.00
C49    C     0.16706   0.03787   0.25428   0.00000  Uiso   1.00
N50    N     0.17193   0.05156   0.29105   0.00000  Uiso   1.00
C51    C     0.11028   0.10368   0.04374   0.00000  Uiso   1.00
N52    N     0.09118   0.07372   0.05829   0.00000  Uiso   1.00
C53    C     0.22308   0.22964   0.28960   0.00000  Uiso   1.00
N54    N     0.24221   0.25960   0.27506   0.00000  Uiso   1.00
C55    C     0.08726   0.11605   0.28067   0.00000  Uiso   1.00
C56    C     0.03697   0.13628   0.28541   0.00000  Uiso   1.00
H57    H     0.02947   0.13844   0.32235   0.00000  Uiso   1.00
H58    H     0.03914   0.16761   0.27022   0.00000  Uiso   1.00
H59    H     0.00374   0.11781   0.26772   0.00000  Uiso   1.00
H60    H     0.08272   0.08430   0.29436   0.00000  Uiso   1.00
H61    H     0.09249   0.11138   0.24428   0.00000  Uiso   1.00
C62    C     0.24609   0.21727   0.05267   0.00000  Uiso   1.00
C63    C     0.29636   0.19701   0.04794   0.00000  Uiso   1.00
H64    H     0.29415   0.16568   0.06311   0.00000  Uiso   1.00
H65    H     0.30389   0.19487   0.01100   0.00000  Uiso   1.00
H66    H     0.32959   0.21546   0.06566   0.00000  Uiso   1.00
H67    H     0.25065   0.24902   0.03897   0.00000  Uiso   1.00
H68    H     0.24084   0.22195   0.08905   0.00000  Uiso   1.00
C69    C     0.50315   0.08775   0.16733   0.00000  Uiso   1.00
C70    C     0.49686   0.24558   0.16601   0.00000  Uiso   1.00
C71    C     0.40183   0.16089   0.15640   0.00000  Uiso   1.00
C72    C     0.59817   0.17243   0.17693   0.00000  Uiso   1.00
C73    C     0.34630   0.15214   0.15723   0.00000  Uiso   1.00
C74    C     0.65370   0.18119   0.17608   0.00000  Uiso   1.00
C75    C     0.51491   0.02252   0.12766   0.00000  Uiso   1.00
C76    C     0.48512   0.31082   0.20568   0.00000  Uiso   1.00
C77    C     0.50460   0.31349   0.12476   0.00000  Uiso   1.00
C78    C     0.49544   0.01984   0.20858   0.00000  Uiso   1.00
C79    C     0.49384   0.29034   0.16492   0.00000  Uiso   1.00
C80    C     0.50619   0.04299   0.16842   0.00000  Uiso   1.00
C81    C     0.46855   0.13908   0.02271   0.00000  Uiso   1.00
C82    C     0.53146   0.19425   0.31062   0.00000  Uiso   1.00
C83    C     0.46585   0.14062   0.30667   0.00000  Uiso   1.00
C84    C     0.53415   0.19271   0.02667   0.00000  Uiso   1.00
Cu85   Cu    0.50000   0.16667   0.21355   0.00000  Uiso   1.00
Cu86   Cu    0.50000   0.16666   0.11978   0.00000  Uiso   1.00
N87    N     0.50001   0.16668   0.28403   0.00000  Uiso   1.00
N88    N     0.49999   0.16666   0.04931   0.00000  Uiso   1.00
O89    O     0.50000   0.10655   0.20625   0.00000  Uiso   1.00
O90    O     0.50000   0.22678   0.12709   0.00000  Uiso   1.00
O91    O     0.50000   0.10654   0.12706   0.00000  Uiso   1.00
O92    O     0.50000   0.22679   0.20628   0.00000  Uiso   1.00
O93    O     0.42495   0.16667   0.19712   0.00000  Uiso   1.00
O94    O     0.57505   0.16666   0.13621   0.00000  Uiso   1.00
O95    O     0.42494   0.16666   0.11793   0.00000  Uiso   1.00
O96    O     0.57506   0.16667   0.21540   0.00000  Uiso   1.00
C97    C     0.65895   0.10698   0.15899   0.00000  Uiso   1.00
C98    C     0.34804   0.08038   0.12492   0.00000  Uiso   1.00
H99    H     0.34161   0.09344   0.08956   0.00000  Uiso   1.00
H100   H     0.38972   0.07823   0.13532   0.00000  Uiso   1.00
H101   H     0.66183   0.04897   0.12544   0.00000  Uiso   1.00
H102   H     0.33478   0.09456   0.19420   0.00000  Uiso   1.00
H103   H     0.61644   0.10268   0.15157   0.00000  Uiso   1.00
C104   C     0.34101   0.22635   0.17428   0.00000  Uiso   1.00
C105   C     0.65212   0.25291   0.20852   0.00000  Uiso   1.00
H106   H     0.61045   0.25515   0.19820   0.00000  Uiso   1.00
H107   H     0.65858   0.23976   0.24383   0.00000  Uiso   1.00
H108   H     0.33842   0.28429   0.20805   0.00000  Uiso   1.00
H109   H     0.38354   0.23068   0.18146   0.00000  Uiso   1.00
H110   H     0.66494   0.23879   0.13913   0.00000  Uiso   1.00
C111   C     0.53868   0.04404   0.08968   0.00000  Uiso   1.00
N112   N     0.55792   0.06107   0.05959   0.00000  Uiso   1.00
C113   C     0.46137   0.28930   0.24367   0.00000  Uiso   1.00
N114   N     0.44214   0.27227   0.27377   0.00000  Uiso   1.00
C115   C     0.49965   0.29547   0.07906   0.00000  Uiso   1.00
N116   N     0.49479   0.28178   0.04229   0.00000  Uiso   1.00
C117   C     0.50040   0.03787   0.25428   0.00000  Uiso   1.00
N118   N     0.50526   0.05156   0.29105   0.00000  Uiso   1.00
C119   C     0.44362   0.10368   0.04374   0.00000  Uiso   1.00
N120   N     0.42451   0.07372   0.05829   0.00000  Uiso   1.00
C121   C     0.55641   0.22964   0.28960   0.00000  Uiso   1.00
N122   N     0.57554   0.25960   0.27506   0.00000  Uiso   1.00
C123   C     0.42059   0.11605   0.28067   0.00000  Uiso   1.00
C124   C     0.37030   0.13628   0.28541   0.00000  Uiso   1.00
H125   H     0.36280   0.13844   0.32235   0.00000  Uiso   1.00
H126   H     0.37247   0.16761   0.27022   0.00000  Uiso   1.00
H127   H     0.33708   0.11781   0.26772   0.00000  Uiso   1.00
H128   H     0.41605   0.08430   0.29436   0.00000  Uiso   1.00
H129   H     0.42583   0.11138   0.24428   0.00000  Uiso   1.00
C130   C     0.57942   0.21727   0.05267   0.00000  Uiso   1.00
C131   C     0.62970   0.19701   0.04794   0.00000  Uiso   1.00
H132   H     0.62749   0.16568   0.06311   0.00000  Uiso   1.00
H133   H     0.63722   0.19487   0.01100   0.00000  Uiso   1.00
H134   H     0.66292   0.21546   0.06566   0.00000  Uiso   1.00
H135   H     0.58398   0.24902   0.03897   0.00000  Uiso   1.00
H136   H     0.57417   0.22195   0.08905   0.00000  Uiso   1.00
C137   C     0.83648   0.08775   0.16733   0.00000  Uiso   1.00
C138   C     0.83019   0.24558   0.16601   0.00000  Uiso   1.00
C139   C     0.73516   0.16089   0.15640   0.00000  Uiso   1.00
C140   C     0.93151   0.17243   0.17693   0.00000  Uiso   1.00
C141   C     0.67964   0.15214   0.15723   0.00000  Uiso   1.00
C142   C     0.98703   0.18119   0.17608   0.00000  Uiso   1.00
C143   C     0.84824   0.02252   0.12766   0.00000  Uiso   1.00
C144   C     0.81846   0.31082   0.20568   0.00000  Uiso   1.00
C145   C     0.83793   0.31349   0.12476   0.00000  Uiso   1.00
C146   C     0.82877   0.01984   0.20858   0.00000  Uiso   1.00
C147   C     0.82717   0.29034   0.16492   0.00000  Uiso   1.00
C148   C     0.83952   0.04299   0.16842   0.00000  Uiso   1.00
C149   C     0.80188   0.13908   0.02271   0.00000  Uiso   1.00
C150   C     0.86479   0.19425   0.31062   0.00000  Uiso   1.00
C151   C     0.79918   0.14062   0.30667   0.00000  Uiso   1.00
C152   C     0.86749   0.19271   0.02667   0.00000  Uiso   1.00
Cu153  Cu    0.83333   0.16667   0.21355   0.00000  Uiso   1.00
Cu154  Cu    0.83333   0.16666   0.11978   0.00000  Uiso   1.00
N155   N     0.83335   0.16668   0.28403   0.00000  Uiso   1.00
N156   N     0.83332   0.16666   0.04931   0.00000  Uiso   1.00
O157   O     0.83333   0.10655   0.20625   0.00000  Uiso   1.00
O158   O     0.83334   0.22678   0.12709   0.00000  Uiso   1.00
O159   O     0.83333   0.10654   0.12706   0.00000  Uiso   1.00
O160   O     0.83334   0.22679   0.20628   0.00000  Uiso   1.00
O161   O     0.75828   0.16667   0.19712   0.00000  Uiso   1.00
O162   O     0.90839   0.16666   0.13621   0.00000  Uiso   1.00
O163   O     0.75828   0.16666   0.11793   0.00000  Uiso   1.00
O164   O     0.90839   0.16667   0.21540   0.00000  Uiso   1.00
C165   C     0.99228   0.10698   0.15899   0.00000  Uiso   1.00
C166   C     0.68138   0.08038   0.12492   0.00000  Uiso   1.00
H167   H     0.67494   0.09344   0.08956   0.00000  Uiso   1.00
H168   H     0.72305   0.07823   0.13532   0.00000  Uiso   1.00
H169   H     0.99516   0.04897   0.12544   0.00000  Uiso   1.00
H170   H     0.66811   0.09456   0.19420   0.00000  Uiso   1.00
H171   H     0.94978   0.10268   0.15157   0.00000  Uiso   1.00
C172   C     0.67435   0.22635   0.17428   0.00000  Uiso   1.00
C173   C     0.98546   0.25291   0.20852   0.00000  Uiso   1.00
H174   H     0.94378   0.25515   0.19820   0.00000  Uiso   1.00
H175   H     0.99192   0.23976   0.24383   0.00000  Uiso   1.00
H176   H     0.67175   0.28429   0.20805   0.00000  Uiso   1.00
H177   H     0.71687   0.23068   0.18146   0.00000  Uiso   1.00
H178   H     0.99827   0.23879   0.13913   0.00000  Uiso   1.00
C179   C     0.87201   0.04404   0.08968   0.00000  Uiso   1.00
N180   N     0.89125   0.06107   0.05959   0.00000  Uiso   1.00
C181   C     0.79470   0.28930   0.24367   0.00000  Uiso   1.00
N182   N     0.77547   0.27227   0.27377   0.00000  Uiso   1.00
C183   C     0.83298   0.29547   0.07906   0.00000  Uiso   1.00
N184   N     0.82812   0.28178   0.04229   0.00000  Uiso   1.00
C185   C     0.83373   0.03787   0.25428   0.00000  Uiso   1.00
N186   N     0.83859   0.05156   0.29105   0.00000  Uiso   1.00
C187   C     0.77695   0.10368   0.04374   0.00000  Uiso   1.00
N188   N     0.75784   0.07372   0.05829   0.00000  Uiso   1.00
C189   C     0.88974   0.22964   0.28960   0.00000  Uiso   1.00
N190   N     0.90887   0.25960   0.27506   0.00000  Uiso   1.00
C191   C     0.75392   0.11605   0.28067   0.00000  Uiso   1.00
C192   C     0.70363   0.13628   0.28541   0.00000  Uiso   1.00
H193   H     0.69613   0.13844   0.32235   0.00000  Uiso   1.00
H194   H     0.70581   0.16761   0.27022   0.00000  Uiso   1.00
H195   H     0.67041   0.11781   0.26772   0.00000  Uiso   1.00
H196   H     0.74938   0.08430   0.29436   0.00000  Uiso   1.00
H197   H     0.75916   0.11138   0.24428   0.00000  Uiso   1.00
C198   C     0.91275   0.21727   0.05267   0.00000  Uiso   1.00
C199   C     0.96303   0.19701   0.04794   0.00000  Uiso   1.00
H200   H     0.96082   0.16568   0.06311   0.00000  Uiso   1.00
H201   H     0.97055   0.19487   0.01100   0.00000  Uiso   1.00
H202   H     0.99625   0.21546   0.06566   0.00000  Uiso   1.00
H203   H     0.91732   0.24902   0.03897   0.00000  Uiso   1.00
H204   H     0.90751   0.22195   0.08905   0.00000  Uiso   1.00
C205   C     0.16982   0.42109   0.16733   0.00000  Uiso   1.00
C206   C     0.16353   0.57892   0.16601   0.00000  Uiso   1.00
C207   C     0.06850   0.49423   0.15640   0.00000  Uiso   1.00
C208   C     0.26484   0.50576   0.17693   0.00000  Uiso   1.00
C209   C     0.01297   0.48547   0.15723   0.00000  Uiso   1.00
C210   C     0.32036   0.51452   0.17608   0.00000  Uiso   1.00
C211   C     0.18158   0.35585   0.12766   0.00000  Uiso   1.00
C212   C     0.15179   0.64415   0.20568   0.00000  Uiso   1.00
C213   C     0.17127   0.64683   0.12476   0.00000  Uiso   1.00
C214   C     0.16210   0.35318   0.20858   0.00000  Uiso   1.00
C215   C     0.16050   0.62368   0.16492   0.00000  Uiso   1.00
C216   C     0.17286   0.37633   0.16842   0.00000  Uiso   1.00
C217   C     0.13521   0.47242   0.02271   0.00000  Uiso   1.00
C218   C     0.19812   0.52758   0.31062   0.00000  Uiso   1.00
C219   C     0.13251   0.47395   0.30667   0.00000  Uiso   1.00
C220   C     0.20082   0.52604   0.02667   0.00000  Uiso   1.00
Cu221  Cu    0.16667   0.50001   0.21355   0.00000  Uiso   1.00
Cu222  Cu    0.16667   0.49999   0.11978   0.00000  Uiso   1.00
N223   N     0.16668   0.50001   0.28403   0.00000  Uiso   1.00
N224   N     0.16665   0.49999   0.04931   0.00000  Uiso   1.00
O225   O     0.16666   0.43989   0.20625   0.00000  Uiso   1.00
O226   O     0.16667   0.56011   0.12709   0.00000  Uiso   1.00
O227   O     0.16666   0.43988   0.12706   0.00000  Uiso   1.00
O228   O     0.16667   0.56012   0.20628   0.00000  Uiso   1.00
O229   O     0.09161   0.50000   0.19712   0.00000  Uiso   1.00
O230   O     0.24172   0.50000   0.13621   0.00000  Uiso   1.00
O231   O     0.09161   0.49999   0.11793   0.00000  Uiso   1.00
O232   O     0.24172   0.50001   0.21540   0.00000  Uiso   1.00
C233   C     0.32562   0.44031   0.15899   0.00000  Uiso   1.00
C234   C     0.01471   0.41371   0.12492   0.00000  Uiso   1.00
H235   H     0.00827   0.42677   0.08956   0.00000  Uiso   1.00
H236   H     0.05639   0.41157   0.13532   0.00000  Uiso   1.00
H237   H     0.32850   0.38231   0.12544   0.00000  Uiso   1.00
H238   H     0.00144   0.42790   0.19420   0.00000  Uiso   1.00
H239   H     0.28311   0.43601   0.15157   0.00000  Uiso   1.00
C240   C     0.00768   0.55969   0.17428   0.00000  Uiso   1.00
C241   C     0.31879   0.58624   0.20852   0.00000  Uiso   1.00
H242   H     0.27711   0.58848   0.19820   0.00000  Uiso   1.00
H243   H     0.32525   0.57309   0.24383   0.00000  Uiso   1.00
H244   H     0.00508   0.61762   0.20805   0.00000  Uiso   1.00
H245   H     0.05020   0.56401   0.18146   0.00000  Uiso   1.00
H246   H     0.33160   0.57212   0.13913   0.00000  Uiso   1.00
C247   C     0.20535   0.37737   0.08968   0.00000  Uiso   1.00
N248   N     0.22459   0.39440   0.05959   0.00000  Uiso   1.00
C249   C     0.12803   0.62263   0.24367   0.00000  Uiso   1.00
N250   N     0.10881   0.60561   0.27377   0.00000  Uiso   1.00
C251   C     0.16631   0.62881   0.07906   0.00000  Uiso   1.00
N252   N     0.16146   0.61511   0.04229   0.00000  Uiso   1.00
C253   C     0.16706   0.37120   0.25428   0.00000  Uiso   1.00
N254   N     0.17193   0.38490   0.29105   0.00000  Uiso   1.00
C255   C     0.11028   0.43702   0.04374   0.00000  Uiso   1.00
N256   N     0.09118   0.40705   0.05829   0.00000  Uiso   1.00
C257   C     0.22308   0.56297   0.28960   0.00000  Uiso   1.00
N258   N     0.24221   0.59293   0.27506   0.00000  Uiso   1.00
C259   C     0.08726   0.44938   0.28067   0.00000  Uiso   1.00
C260   C     0.03697   0.46962   0.28541   0.00000  Uiso   1.00
H261   H     0.02947   0.47177   0.32235   0.00000  Uiso   1.00
H262   H     0.03914   0.50094   0.27022   0.00000  Uiso   1.00
H263   H     0.00374   0.45115   0.26772   0.00000  Uiso   1.00
H264   H     0.08272   0.41763   0.29436   0.00000  Uiso   1.00
H265   H     0.09249   0.44471   0.24428   0.00000  Uiso   1.00
C266   C     0.24609   0.55061   0.05267   0.00000  Uiso   1.00
C267   C     0.29636   0.53035   0.04794   0.00000  Uiso   1.00
H268   H     0.29415   0.49902   0.06311   0.00000  Uiso   1.00
H269   H     0.30389   0.52820   0.01100   0.00000  Uiso   1.00
H270   H     0.32959   0.54879   0.06566   0.00000  Uiso   1.00
H271   H     0.25065   0.58235   0.03897   0.00000  Uiso   1.00
H272   H     0.24084   0.55529   0.08905   0.00000  Uiso   1.00
C273   C     0.50315   0.42109   0.16733   0.00000  Uiso   1.00
C274   C     0.49686   0.57892   0.16601   0.00000  Uiso   1.00
C275   C     0.40183   0.49423   0.15640   0.00000  Uiso   1.00
C276   C     0.59817   0.50576   0.17693   0.00000  Uiso   1.00
C277   C     0.34630   0.48547   0.15723   0.00000  Uiso   1.00
C278   C     0.65370   0.51452   0.17608   0.00000  Uiso   1.00
C279   C     0.51491   0.35585   0.12766   0.00000  Uiso   1.00
C280   C     0.48512   0.64415   0.20568   0.00000  Uiso   1.00
C281   C     0.50460   0.64683   0.12476   0.00000  Uiso   1.00
C282   C     0.49544   0.35318   0.20858   0.00000  Uiso   1.00
C283   C     0.49384   0.62368   0.16492   0.00000  Uiso   1.00
C284   C     0.50619   0.37633   0.16842   0.00000  Uiso   1.00
C285   C     0.46855   0.47242   0.02271   0.00000  Uiso   1.00
C286   C     0.53146   0.52758   0.31062   0.00000  Uiso   1.00
C287   C     0.46585   0.47395   0.30667   0.00000  Uiso   1.00
C288   C     0.53415   0.52604   0.02667   0.00000  Uiso   1.00
Cu289  Cu    0.50000   0.50001   0.21355   0.00000  Uiso   1.00
Cu290  Cu    0.50000   0.49999   0.11978   0.00000  Uiso   1.00
N291   N     0.50001   0.50001   0.28403   0.00000  Uiso   1.00
N292   N     0.49999   0.49999   0.04931   0.00000  Uiso   1.00
O293   O     0.50000   0.43989   0.20625   0.00000  Uiso   1.00
O294   O     0.50000   0.56011   0.12709   0.00000  Uiso   1.00
O295   O     0.50000   0.43988   0.12706   0.00000  Uiso   1.00
O296   O     0.50000   0.56012   0.20628   0.00000  Uiso   1.00
O297   O     0.42495   0.50000   0.19712   0.00000  Uiso   1.00
O298   O     0.57505   0.50000   0.13621   0.00000  Uiso   1.00
O299   O     0.42494   0.49999   0.11793   0.00000  Uiso   1.00
O300   O     0.57506   0.50001   0.21540   0.00000  Uiso   1.00
C301   C     0.65895   0.44031   0.15899   0.00000  Uiso   1.00
C302   C     0.34804   0.41371   0.12492   0.00000  Uiso   1.00
H303   H     0.34161   0.42677   0.08956   0.00000  Uiso   1.00
H304   H     0.38972   0.41157   0.13532   0.00000  Uiso   1.00
H305   H     0.66183   0.38231   0.12544   0.00000  Uiso   1.00
H306   H     0.33478   0.42790   0.19420   0.00000  Uiso   1.00
H307   H     0.61644   0.43601   0.15157   0.00000  Uiso   1.00
C308   C     0.34101   0.55969   0.17428   0.00000  Uiso   1.00
C309   C     0.65212   0.58624   0.20852   0.00000  Uiso   1.00
H310   H     0.61045   0.58848   0.19820   0.00000  Uiso   1.00
H311   H     0.65858   0.57309   0.24383   0.00000  Uiso   1.00
H312   H     0.33842   0.61762   0.20805   0.00000  Uiso   1.00
H313   H     0.38354   0.56401   0.18146   0.00000  Uiso   1.00
H314   H     0.66494   0.57212   0.13913   0.00000  Uiso   1.00
C315   C     0.53868   0.37737   0.08968   0.00000  Uiso   1.00
N316   N     0.55792   0.39440   0.05959   0.00000  Uiso   1.00
C317   C     0.46137   0.62263   0.24367   0.00000  Uiso   1.00
N318   N     0.44214   0.60561   0.27377   0.00000  Uiso   1.00
C319   C     0.49965   0.62881   0.07906   0.00000  Uiso   1.00
N320   N     0.49479   0.61511   0.04229   0.00000  Uiso   1.00
C321   C     0.50040   0.37120   0.25428   0.00000  Uiso   1.00
N322   N     0.50526   0.38490   0.29105   0.00000  Uiso   1.00
C323   C     0.44362   0.43702   0.04374   0.00000  Uiso   1.00
N324   N     0.42451   0.40705   0.05829   0.00000  Uiso   1.00
C325   C     0.55641   0.56297   0.28960   0.00000  Uiso   1.00
N326   N     0.57554   0.59293   0.27506   0.00000  Uiso   1.00
C327   C     0.42059   0.44938   0.28067   0.00000  Uiso   1.00
C328   C     0.37030   0.46962   0.28541   0.00000  Uiso   1.00
H329   H     0.36280   0.47177   0.32235   0.00000  Uiso   1.00
H330   H     0.37247   0.50094   0.27022   0.00000  Uiso   1.00
H331   H     0.33708   0.45115   0.26772   0.00000  Uiso   1.00
H332   H     0.41605   0.41763   0.29436   0.00000  Uiso   1.00
H333   H     0.42583   0.44471   0.24428   0.00000  Uiso   1.00
C334   C     0.57942   0.55061   0.05267   0.00000  Uiso   1.00
C335   C     0.62970   0.53035   0.04794   0.00000  Uiso   1.00
H336   H     0.62749   0.49902   0.06311   0.00000  Uiso   1.00
H337   H     0.63722   0.52820   0.01100   0.00000  Uiso   1.00
H338   H     0.66292   0.54879   0.06566   0.00000  Uiso   1.00
H339   H     0.58398   0.58235   0.03897   0.00000  Uiso   1.00
H340   H     0.57417   0.55529   0.08905   0.00000  Uiso   1.00
C341   C     0.83648   0.42109   0.16733   0.00000  Uiso   1.00
C342   C     0.83019   0.57892   0.16601   0.00000  Uiso   1.00
C343   C     0.73516   0.49423   0.15640   0.00000  Uiso   1.00
C344   C     0.93151   0.50576   0.17693   0.00000  Uiso   1.00
C345   C     0.67964   0.48547   0.15723   0.00000  Uiso   1.00
C346   C     0.98703   0.51452   0.17608   0.00000  Uiso   1.00
C347   C     0.84824   0.35585   0.12766   0.00000  Uiso   1.00
C348   C     0.81846   0.64415   0.20568   0.00000  Uiso   1.00
C349   C     0.83793   0.64683   0.12476   0.00000  Uiso   1.00
C350   C     0.82877   0.35318   0.20858   0.00000  Uiso   1.00
C351   C     0.82717   0.62368   0.16492   0.00000  Uiso   1.00
C352   C     0.83952   0.37633   0.16842   0.00000  Uiso   1.00
C353   C     0.80188   0.47242   0.02271   0.00000  Uiso   1.00
C354   C     0.86479   0.52758   0.31062   0.00000  Uiso   1.00
C355   C     0.79918   0.47395   0.30667   0.00000  Uiso   1.00
C356   C     0.86749   0.52604   0.02667   0.00000  Uiso   1.00
Cu357  Cu    0.83333   0.50001   0.21355   0.00000  Uiso   1.00
Cu358  Cu    0.83333   0.49999   0.11978   0.00000  Uiso   1.00
N359   N     0.83335   0.50001   0.28403   0.00000  Uiso   1.00
N360   N     0.83332   0.49999   0.04931   0.00000  Uiso   1.00
O361   O     0.83333   0.43989   0.20625   0.00000  Uiso   1.00
O362   O     0.83334   0.56011   0.12709   0.00000  Uiso   1.00
O363   O     0.83333   0.43988   0.12706   0.00000  Uiso   1.00
O364   O     0.83334   0.56012   0.20628   0.00000  Uiso   1.00
O365   O     0.75828   0.50000   0.19712   0.00000  Uiso   1.00
O366   O     0.90839   0.50000   0.13621   0.00000  Uiso   1.00
O367   O     0.75828   0.49999   0.11793   0.00000  Uiso   1.00
O368   O     0.90839   0.50001   0.21540   0.00000  Uiso   1.00
C369   C     0.99228   0.44031   0.15899   0.00000  Uiso   1.00
C370   C     0.68138   0.41371   0.12492   0.00000  Uiso   1.00
H371   H     0.67494   0.42677   0.08956   0.00000  Uiso   1.00
H372   H     0.72305   0.41157   0.13532   0.00000  Uiso   1.00
H373   H     0.99516   0.38231   0.12544   0.00000  Uiso   1.00
H374   H     0.66811   0.42790   0.19420   0.00000  Uiso   1.00
H375   H     0.94978   0.43601   0.15157   0.00000  Uiso   1.00
C376   C     0.67435   0.55969   0.17428   0.00000  Uiso   1.00
C377   C     0.98546   0.58624   0.20852   0.00000  Uiso   1.00
H378   H     0.94378   0.58848   0.19820   0.00000  Uiso   1.00
H379   H     0.99192   0.57309   0.24383   0.00000  Uiso   1.00
H380   H     0.67175   0.61762   0.20805   0.00000  Uiso   1.00
H381   H     0.71687   0.56401   0.18146   0.00000  Uiso   1.00
H382   H     0.99827   0.57212   0.13913   0.00000  Uiso   1.00
C383   C     0.87201   0.37737   0.08968   0.00000  Uiso   1.00
N384   N     0.89125   0.39440   0.05959   0.00000  Uiso   1.00
C385   C     0.79470   0.62263   0.24367   0.00000  Uiso   1.00
N386   N     0.77547   0.60561   0.27377   0.00000  Uiso   1.00
C387   C     0.83298   0.62881   0.07906   0.00000  Uiso   1.00
N388   N     0.82812   0.61511   0.04229   0.00000  Uiso   1.00
C389   C     0.83373   0.37120   0.25428   0.00000  Uiso   1.00
N390   N     0.83859   0.38490   0.29105   0.00000  Uiso   1.00
C391   C     0.77695   0.43702   0.04374   0.00000  Uiso   1.00
N392   N     0.75784   0.40705   0.05829   0.00000  Uiso   1.00
C393   C     0.88974   0.56297   0.28960   0.00000  Uiso   1.00
N394   N     0.90887   0.59293   0.27506   0.00000  Uiso   1.00
C395   C     0.75392   0.44938   0.28067   0.00000  Uiso   1.00
C396   C     0.70363   0.46962   0.28541   0.00000  Uiso   1.00
H397   H     0.69613   0.47177   0.32235   0.00000  Uiso   1.00
H398   H     0.70581   0.50094   0.27022   0.00000  Uiso   1.00
H399   H     0.67041   0.45115   0.26772   0.00000  Uiso   1.00
H400   H     0.74938   0.41763   0.29436   0.00000  Uiso   1.00
H401   H     0.75916   0.44471   0.24428   0.00000  Uiso   1.00
C402   C     0.91275   0.55061   0.05267   0.00000  Uiso   1.00
C403   C     0.96303   0.53035   0.04794   0.00000  Uiso   1.00
H404   H     0.96082   0.49902   0.06311   0.00000  Uiso   1.00
H405   H     0.97055   0.52820   0.01100   0.00000  Uiso   1.00
H406   H     0.99625   0.54879   0.06566   0.00000  Uiso   1.00
H407   H     0.91732   0.58235   0.03897   0.00000  Uiso   1.00
H408   H     0.90751   0.55529   0.08905   0.00000  Uiso   1.00
C409   C     0.16982   0.75442   0.16733   0.00000  Uiso   1.00
C410   C     0.16353   0.91225   0.16601   0.00000  Uiso   1.00
C411   C     0.06850   0.82756   0.15640   0.00000  Uiso   1.00
C412   C     0.26484   0.83910   0.17693   0.00000  Uiso   1.00
C413   C     0.01297   0.81881   0.15723   0.00000  Uiso   1.00
C414   C     0.32036   0.84785   0.17608   0.00000  Uiso   1.00
C415   C     0.18158   0.68918   0.12766   0.00000  Uiso   1.00
C416   C     0.15179   0.97749   0.20568   0.00000  Uiso   1.00
C417   C     0.17127   0.98016   0.12476   0.00000  Uiso   1.00
C418   C     0.16210   0.68651   0.20858   0.00000  Uiso   1.00
C419   C     0.16050   0.95701   0.16492   0.00000  Uiso   1.00
C420   C     0.17286   0.70966   0.16842   0.00000  Uiso   1.00
C421   C     0.13521   0.80575   0.02271   0.00000  Uiso   1.00
C422   C     0.19812   0.86091   0.31062   0.00000  Uiso   1.00
C423   C     0.13251   0.80729   0.30667   0.00000  Uiso   1.00
C424   C     0.20082   0.85938   0.02667   0.00000  Uiso   1.00
Cu425  Cu    0.16667   0.83334   0.21355   0.00000  Uiso   1.00
Cu426  Cu    0.16667   0.83333   0.11978   0.00000  Uiso   1.00
N427   N     0.16668   0.83334   0.28403   0.00000  Uiso   1.00
N428   N     0.16665   0.83332   0.04931   0.00000  Uiso   1.00
O429   O     0.16666   0.77322   0.20625   0.00000  Uiso   1.00
O430   O     0.16667   0.89345   0.12709   0.00000  Uiso   1.00
O431   O     0.16666   0.77321   0.12706   0.00000  Uiso   1.00
O432   O     0.16667   0.89346   0.20628   0.00000  Uiso   1.00
O433   O     0.09161   0.83334   0.19712   0.00000  Uiso   1.00
O434   O     0.24172   0.83333   0.13621   0.00000  Uiso   1.00
O435   O     0.09161   0.83333   0.11793   0.00000  Uiso   1.00
O436   O     0.24172   0.83334   0.21540   0.00000  Uiso   1.00
C437   C     0.32562   0.77365   0.15899   0.00000  Uiso   1.00
C438   C     0.01471   0.74705   0.12492   0.00000  Uiso   1.00
H439   H     0.00827   0.76010   0.08956   0.00000  Uiso   1.00
H440   H     0.05639   0.74490   0.13532   0.00000  Uiso   1.00
H441   H     0.32850   0.71564   0.12544   0.00000  Uiso   1.00
H442   H     0.00144   0.76123   0.19420   0.00000  Uiso   1.00
H443   H     0.28311   0.76935   0.15157   0.00000  Uiso   1.00
C444   C     0.00768   0.89302   0.17428   0.00000  Uiso   1.00
C445   C     0.31879   0.91958   0.20852   0.00000  Uiso   1.00
H446   H     0.27711   0.92182   0.19820   0.00000  Uiso   1.00
H447   H     0.32525   0.90642   0.24383   0.00000  Uiso   1.00
H448   H     0.00508   0.95095   0.20805   0.00000  Uiso   1.00
H449   H     0.05020   0.89735   0.18146   0.00000  Uiso   1.00
H450   H     0.33160   0.90545   0.13913   0.00000  Uiso   1.00
C451   C     0.20535   0.71071   0.08968   0.00000  Uiso   1.00
N452   N     0.22459   0.72773   0.05959   0.00000  Uiso   1.00
C453   C     0.12803   0.95597   0.24367   0.00000  Uiso   1.00
N454   N     0.10881   0.93894   0.27377   0.00000  Uiso   1.00
C455   C     0.16631   0.96214   0.07906   0.00000  Uiso   1.00
N456   N     0.16146   0.94844   0.04229   0.00000  Uiso   1.00
C457   C     0.16706   0.70453   0.25428   0.00000  Uiso   1.00
N458   N     0.17193   0.71823   0.29105   0.00000  Uiso   1.00
C459   C     0.11028   0.77035   0.04374   0.00000  Uiso   1.00
N460   N     0.09118   0.74038   0.05829   0.00000  Uiso   1.00
C461   C     0.22308   0.89630   0.28960   0.00000  Uiso   1.00
N462   N     0.24221   0.92626   0.27506   0.00000  Uiso   1.00
C463   C     0.08726   0.78271   0.28067   0.00000  Uiso   1.00
C464   C     0.03697   0.80295   0.28541   0.00000  Uiso   1.00
H465   H     0.02947   0.80511   0.32235   0.00000  Uiso   1.00
H466   H     0.03914   0.83428   0.27022   0.00000  Uiso   1.00
H467   H     0.00374   0.78448   0.26772   0.00000  Uiso   1.00
H468   H     0.08272   0.75097   0.29436   0.00000  Uiso   1.00
H469   H     0.09249   0.77804   0.24428   0.00000  Uiso   1.00
C470   C     0.24609   0.88394   0.05267   0.00000  Uiso   1.00
C471   C     0.29636   0.86368   0.04794   0.00000  Uiso   1.00
H472   H     0.29415   0.83235   0.06311   0.00000  Uiso   1.00
H473   H     0.30389   0.86153   0.01100   0.00000  Uiso   1.00
H474   H     0.32959   0.88212   0.06566   0.00000  Uiso   1.00
H475   H     0.25065   0.91568   0.03897   0.00000  Uiso   1.00
H476   H     0.24084   0.88862   0.08905   0.00000  Uiso   1.00
C477   C     0.50315   0.75442   0.16733   0.00000  Uiso   1.00
C478   C     0.49686   0.91225   0.16601   0.00000  Uiso   1.00
C479   C     0.40183   0.82756   0.15640   0.00000  Uiso   1.00
C480   C     0.59817   0.83910   0.17693   0.00000  Uiso   1.00
C481   C     0.34630   0.81881   0.15723   0.00000  Uiso   1.00
C482   C     0.65370   0.84785   0.17608   0.00000  Uiso   1.00
C483   C     0.51491   0.68918   0.12766   0.00000  Uiso   1.00
C484   C     0.48512   0.97749   0.20568   0.00000  Uiso   1.00
C485   C     0.50460   0.98016   0.12476   0.00000  Uiso   1.00
C486   C     0.49544   0.68651   0.20858   0.00000  Uiso   1.00
C487   C     0.49384   0.95701   0.16492   0.00000  Uiso   1.00
C488   C     0.50619   0.70966   0.16842   0.00000  Uiso   1.00
C489   C     0.46855   0.80575   0.02271   0.00000  Uiso   1.00
C490   C     0.53146   0.86091   0.31062   0.00000  Uiso   1.00
C491   C     0.46585   0.80729   0.30667   0.00000  Uiso   1.00
C492   C     0.53415   0.85938   0.02667   0.00000  Uiso   1.00
Cu493  Cu    0.50000   0.83334   0.21355   0.00000  Uiso   1.00
Cu494  Cu    0.50000   0.83333   0.11978   0.00000  Uiso   1.00
N495   N     0.50001   0.83334   0.28403   0.00000  Uiso   1.00
N496   N     0.49999   0.83332   0.04931   0.00000  Uiso   1.00
O497   O     0.50000   0.77322   0.20625   0.00000  Uiso   1.00
O498   O     0.50000   0.89345   0.12709   0.00000  Uiso   1.00
O499   O     0.50000   0.77321   0.12706   0.00000  Uiso   1.00
O500   O     0.50000   0.89346   0.20628   0.00000  Uiso   1.00
O501   O     0.42495   0.83334   0.19712   0.00000  Uiso   1.00
O502   O     0.57505   0.83333   0.13621   0.00000  Uiso   1.00
O503   O     0.42494   0.83333   0.11793   0.00000  Uiso   1.00
O504   O     0.57506   0.83334   0.21540   0.00000  Uiso   1.00
C505   C     0.65895   0.77365   0.15899   0.00000  Uiso   1.00
C506   C     0.34804   0.74705   0.12492   0.00000  Uiso   1.00
H507   H     0.34161   0.76010   0.08956   0.00000  Uiso   1.00
H508   H     0.38972   0.74490   0.13532   0.00000  Uiso   1.00
H509   H     0.66183   0.71564   0.12544   0.00000  Uiso   1.00
H510   H     0.33478   0.76123   0.19420   0.00000  Uiso   1.00
H511   H     0.61644   0.76935   0.15157   0.00000  Uiso   1.00
C512   C     0.34101   0.89302   0.17428   0.00000  Uiso   1.00
C513   C     0.65212   0.91958   0.20852   0.00000  Uiso   1.00
H514   H     0.61045   0.92182   0.19820   0.00000  Uiso   1.00
H515   H     0.65858   0.90642   0.24383   0.00000  Uiso   1.00
H516   H     0.33842   0.95095   0.20805   0.00000  Uiso   1.00
H517   H     0.38354   0.89735   0.18146   0.00000  Uiso   1.00
H518   H     0.66494   0.90545   0.13913   0.00000  Uiso   1.00
C519   C     0.53868   0.71071   0.08968   0.00000  Uiso   1.00
N520   N     0.55792   0.72773   0.05959   0.00000  Uiso   1.00
C521   C     0.46137   0.95597   0.24367   0.00000  Uiso   1.00
N522   N     0.44214   0.93894   0.27377   0.00000  Uiso   1.00
C523   C     0.49965   0.96214   0.07906   0.00000  Uiso   1.00
N524   N     0.49479   0.94844   0.04229   0.00000  Uiso   1.00
C525   C     0.50040   0.70453   0.25428   0.00000  Uiso   1.00
N526   N     0.50526   0.71823   0.29105   0.00000  Uiso   1.00
C527   C     0.44362   0.77035   0.04374   0.00000  Uiso   1.00
N528   N     0.42451   0.74038   0.05829   0.00000  Uiso   1.00
C529   C     0.55641   0.89630   0.28960   0.00000  Uiso   1.00
N530   N     0.57554   0.92626   0.27506   0.00000  Uiso   1.00
C531   C     0.42059   0.78271   0.28067   0.00000  Uiso   1.00
C532   C     0.37030   0.80295   0.28541   0.00000  Uiso   1.00
H533   H     0.36280   0.80511   0.32235   0.00000  Uiso   1.00
H534   H     0.37247   0.83428   0.27022   0.00000  Uiso   1.00
H535   H     0.33708   0.78448   0.26772   0.00000  Uiso   1.00
H536   H     0.41605   0.75097   0.29436   0.00000  Uiso   1.00
H537   H     0.42583   0.77804   0.24428   0.00000  Uiso   1.00
C538   C     0.57942   0.88394   0.05267   0.00000  Uiso   1.00
C539   C     0.62970   0.86368   0.04794   0.00000  Uiso   1.00
H540   H     0.62749   0.83235   0.06311   0.00000  Uiso   1.00
H541   H     0.63722   0.86153   0.01100   0.00000  Uiso   1.00
H542   H     0.66292   0.88212   0.06566   0.00000  Uiso   1.00
H543   H     0.58398   0.91568   0.03897   0.00000  Uiso   1.00
H544   H     0.57417   0.88862   0.08905   0.00000  Uiso   1.00
C545   C     0.83648   0.75442   0.16733   0.00000  Uiso   1.00
C546   C     0.83019   0.91225   0.16601   0.00000  Uiso   1.00
C547   C     0.73516   0.82756   0.15640   0.00000  Uiso   1.00
C548   C     0.93151   0.83910   0.17693   0.00000  Uiso   1.00
C549   C     0.67964   0.81881   0.15723   0.00000  Uiso   1.00
C550   C     0.98703   0.84785   0.17608   0.00000  Uiso   1.00
C551   C     0.84824   0.68918   0.12766   0.00000  Uiso   1.00
C552   C     0.81846   0.97749   0.20568   0.00000  Uiso   1.00
C553   C     0.83793   0.98016   0.12476   0.00000  Uiso   1.00
C554   C     0.82877   0.68651   0.20858   0.00000  Uiso   1.00
C555   C     0.82717   0.95701   0.16492   0.00000  Uiso   1.00
C556   C     0.83952   0.70966   0.16842   0.00000  Uiso   1.00
C557   C     0.80188   0.80575   0.02271   0.00000  Uiso   1.00
C558   C     0.86479   0.86091   0.31062   0.00000  Uiso   1.00
C559   C     0.79918   0.80729   0.30667   0.00000  Uiso   1.00
C560   C     0.86749   0.85938   0.02667   0.00000  Uiso   1.00
Cu561  Cu    0.83333   0.83334   0.21355   0.00000  Uiso   1.00
Cu562  Cu    0.83333   0.83333   0.11978   0.00000  Uiso   1.00
N563   N     0.83335   0.83334   0.28403   0.00000  Uiso   1.00
N564   N     0.83332   0.83332   0.04931   0.00000  Uiso   1.00
O565   O     0.83333   0.77322   0.20625   0.00000  Uiso   1.00
O566   O     0.83334   0.89345   0.12709   0.00000  Uiso   1.00
O567   O     0.83333   0.77321   0.12706   0.00000  Uiso   1.00
O568   O     0.83334   0.89346   0.20628   0.00000  Uiso   1.00
O569   O     0.75828   0.83334   0.19712   0.00000  Uiso   1.00
O570   O     0.90839   0.83333   0.13621   0.00000  Uiso   1.00
O571   O     0.75828   0.83333   0.11793   0.00000  Uiso   1.00
O572   O     0.90839   0.83334   0.21540   0.00000  Uiso   1.00
C573   C     0.99228   0.77365   0.15899   0.00000  Uiso   1.00
C574   C     0.68138   0.74705   0.12492   0.00000  Uiso   1.00
H575   H     0.67494   0.76010   0.08956   0.00000  Uiso   1.00
H576   H     0.72305   0.74490   0.13532   0.00000  Uiso   1.00
H577   H     0.99516   0.71564   0.12544   0.00000  Uiso   1.00
H578   H     0.66811   0.76123   0.19420   0.00000  Uiso   1.00
H579   H     0.94978   0.76935   0.15157   0.00000  Uiso   1.00
C580   C     0.67435   0.89302   0.17428   0.00000  Uiso   1.00
C581   C     0.98546   0.91958   0.20852   0.00000  Uiso   1.00
H582   H     0.94378   0.92182   0.19820   0.00000  Uiso   1.00
H583   H     0.99192   0.90642   0.24383   0.00000  Uiso   1.00
H584   H     0.67175   0.95095   0.20805   0.00000  Uiso   1.00
H585   H     0.71687   0.89735   0.18146   0.00000  Uiso   1.00
H586   H     0.99827   0.90545   0.13913   0.00000  Uiso   1.00
C587   C     0.87201   0.71071   0.08968   0.00000  Uiso   1.00
N588   N     0.89125   0.72773   0.05959   0.00000  Uiso   1.00
C589   C     0.79470   0.95597   0.24367   0.00000  Uiso   1.00
N590   N     0.77547   0.93894   0.27377   0.00000  Uiso   1.00
C591   C     0.83298   0.96214   0.07906   0.00000  Uiso   1.00
N592   N     0.82812   0.94844   0.04229   0.00000  Uiso   1.00
C593   C     0.83373   0.70453   0.25428   0.00000  Uiso   1.00
N594   N     0.83859   0.71823   0.29105   0.00000  Uiso   1.00
C595   C     0.77695   0.77035   0.04374   0.00000  Uiso   1.00
N596   N     0.75784   0.74038   0.05829   0.00000  Uiso   1.00
C597   C     0.88974   0.89630   0.28960   0.00000  Uiso   1.00
N598   N     0.90887   0.92626   0.27506   0.00000  Uiso   1.00
C599   C     0.75392   0.78271   0.28067   0.00000  Uiso   1.00
C600   C     0.70363   0.80295   0.28541   0.00000  Uiso   1.00
H601   H     0.69613   0.80511   0.32235   0.00000  Uiso   1.00
H602   H     0.70581   0.83428   0.27022   0.00000  Uiso   1.00
H603   H     0.67041   0.78448   0.26772   0.00000  Uiso   1.00
H604   H     0.74938   0.75097   0.29436   0.00000  Uiso   1.00
H605   H     0.75916   0.77804   0.24428   0.00000  Uiso   1.00
C606   C     0.91275   0.88394   0.05267   0.00000  Uiso   1.00
C607   C     0.96303   0.86368   0.04794   0.00000  Uiso   1.00
H608   H     0.96082   0.83235   0.06311   0.00000  Uiso   1.00
H609   H     0.97055   0.86153   0.01100   0.00000  Uiso   1.00
H610   H     0.99625   0.88212   0.06566   0.00000  Uiso   1.00
H611   H     0.91732   0.91568   0.03897   0.00000  Uiso   1.00
H612   H     0.90751   0.88862   0.08905   0.00000  Uiso   1.00
C613   C     0.16982   0.08775   0.50066   0.00000  Uiso   1.00
C614   C     0.16353   0.24558   0.49934   0.00000  Uiso   1.00
C615   C     0.06850   0.16089   0.48974   0.00000  Uiso   1.00
C616   C     0.26484   0.17243   0.51026   0.00000  Uiso   1.00
C617   C     0.01297   0.15214   0.49057   0.00000  Uiso   1.00
C618   C     0.32036   0.18119   0.50942   0.00000  Uiso   1.00
C619   C     0.18158   0.02252   0.46099   0.00000  Uiso   1.00
C620   C     0.15179   0.31082   0.53901   0.00000  Uiso   1.00
C621   C     0.17127   0.31349   0.45810   0.00000  Uiso   1.00
C622   C     0.16210   0.01984   0.54191   0.00000  Uiso   1.00
C623   C     0.16050   0.29034   0.49825   0.00000  Uiso   1.00
C624   C     0.17286   0.04299   0.50175   0.00000  Uiso   1.00
C625   C     0.13521   0.13908   0.35605   0.00000  Uiso   1.00
C626   C     0.19812   0.19425   0.64396   0.00000  Uiso   1.00
C627   C     0.13251   0.14062   0.64000   0.00000  Uiso   1.00
C628   C     0.20082   0.19271   0.36000   0.00000  Uiso   1.00
Cu629  Cu    0.16667   0.16667   0.54689   0.00000  Uiso   1.00
Cu630  Cu    0.16667   0.16666   0.45311   0.00000  Uiso   1.00
N631   N     0.16668   0.16668   0.61736   0.00000  Uiso   1.00
N632   N     0.16665   0.16666   0.38264   0.00000  Uiso   1.00
O633   O     0.16666   0.10655   0.53958   0.00000  Uiso   1.00
O634   O     0.16667   0.22678   0.46042   0.00000  Uiso   1.00
O635   O     0.16666   0.10654   0.46039   0.00000  Uiso   1.00
O636   O     0.16667   0.22679   0.53961   0.00000  Uiso   1.00
O637   O     0.09161   0.16667   0.53046   0.00000  Uiso   1.00
O638   O     0.24172   0.16666   0.46954   0.00000  Uiso   1.00
O639   O     0.09161   0.16666   0.45127   0.00000  Uiso   1.00
O640   O     0.24172   0.16667   0.54873   0.00000  Uiso   1.00
C641   C     0.32562   0.10698   0.49233   0.00000  Uiso   1.00
C642   C     0.01471   0.08038   0.45825   0.00000  Uiso   1.00
H643   H     0.00827   0.09344   0.42289   0.00000  Uiso   1.00
H644   H     0.05639   0.07823   0.46865   0.00000  Uiso   1.00
H645   H     0.32850   0.04897   0.45878   0.00000  Uiso   1.00
H646   H     0.00144   0.09456   0.52753   0.00000  Uiso   1.00
H647   H     0.28311   0.10268   0.48491   0.00000  Uiso   1.00
C648   C     0.00768   0.22635   0.50761   0.00000  Uiso   1.00
C649   C     0.31879   0.25291   0.54185   0.00000  Uiso   1.00
H650   H     0.27711   0.25515   0.53153   0.00000  Uiso   1.00
H651   H     0.32525   0.23976   0.57716   0.00000  Uiso   1.00
H652   H     0.00508   0.28429   0.54139   0.00000  Uiso   1.00
H653   H     0.05020   0.23068   0.51479   0.00000  Uiso   1.00
H654   H     0.33160   0.23879   0.47246   0.00000  Uiso   1.00
C655   C     0.20535   0.04404   0.42301   0.00000  Uiso   1.00
N656   N     0.22459   0.06107   0.39292   0.00000  Uiso   1.00
C657   C     0.12803   0.28930   0.57700   0.00000  Uiso   1.00
N658   N     0.10881   0.27227   0.60710   0.00000  Uiso   1.00
C659   C     0.16631   0.29547   0.41239   0.00000  Uiso   1.00
N660   N     0.16146   0.28178   0.37562   0.00000  Uiso   1.00
C661   C     0.16706   0.03787   0.58761   0.00000  Uiso   1.00
N662   N     0.17193   0.05156   0.62439   0.00000  Uiso   1.00
C663   C     0.11028   0.10368   0.37707   0.00000  Uiso   1.00
N664   N     0.09118   0.07372   0.39162   0.00000  Uiso   1.00
C665   C     0.22308   0.22964   0.62293   0.00000  Uiso   1.00
N666   N     0.24221   0.25960   0.60839   0.00000  Uiso   1.00
C667   C     0.08726   0.11605   0.61400   0.00000  Uiso   1.00
C668   C     0.03697   0.13628   0.61874   0.00000  Uiso   1.00
H669   H     0.02947   0.13844   0.65568   0.00000  Uiso   1.00
H670   H     0.03914   0.16761   0.60355   0.00000  Uiso   1.00
H671   H     0.00374   0.11781   0.60105   0.00000  Uiso   1.00
H672   H     0.08272   0.08430   0.62770   0.00000  Uiso   1.00
H673   H     0.09249   0.11138   0.57762   0.00000  Uiso   1.00
C674   C     0.24609   0.21727   0.38600   0.00000  Uiso   1.00
C675   C     0.29636   0.19701   0.38127   0.00000  Uiso   1.00
H676   H     0.29415   0.16568   0.39644   0.00000  Uiso   1.00
H677   H     0.30389   0.19487   0.34434   0.00000  Uiso   1.00
H678   H     0.32959   0.21546   0.39899   0.00000  Uiso   1.00
H679   H     0.25065   0.24902   0.37230   0.00000  Uiso   1.00
H680   H     0.24084   0.22195   0.42238   0.00000  Uiso   1.00
C681   C     0.50315   0.08775   0.50066   0.00000  Uiso   1.00
C682   C     0.49686   0.24558   0.49934   0.00000  Uiso   1.00
C683   C     0.40183   0.16089   0.48974   0.00000  Uiso   1.00
C684   C     0.59817   0.17243   0.51026   0.00000  Uiso   1.00
C685   C     0.34630   0.15214   0.49057   0.00000  Uiso   1.00
C686   C     0.65370   0.18119   0.50942   0.00000  Uiso   1.00
C687   C     0.51491   0.02252   0.46099   0.00000  Uiso   1.00
C688   C     0.48512   0.31082   0.53901   0.00000  Uiso   1.00
C689   C     0.50460   0.31349   0.45810   0.00000  Uiso   1.00
C690   C     0.49544   0.01984   0.54191   0.00000  Uiso   1.00
C691   C     0.49384   0.29034   0.49825   0.00000  Uiso   1.00
C692   C     0.50619   0.04299   0.50175   0.00000  Uiso   1.00
C693   C     0.46855   0.13908   0.35605   0.00000  Uiso   1.00
C694   C     0.53146   0.19425   0.64396   0.00000  Uiso   1.00
C695   C     0.46585   0.14062   0.64000   0.00000  Uiso   1.00
C696   C     0.53415   0.19271   0.36000   0.00000  Uiso   1.00
Cu697  Cu    0.50000   0.16667   0.54689   0.00000  Uiso   1.00
Cu698  Cu    0.50000   0.16666   0.45311   0.00000  Uiso   1.00
N699   N     0.50001   0.16668   0.61736   0.00000  Uiso   1.00
N700   N     0.49999   0.16666   0.38264   0.00000  Uiso   1.00
O701   O     0.50000   0.10655   0.53958   0.00000  Uiso   1.00
O702   O     0.50000   0.22678   0.46042   0.00000  Uiso   1.00
O703   O     0.50000   0.10654   0.46039   0.00000  Uiso   1.00
O704   O     0.50000   0.22679   0.53961   0.00000  Uiso   1.00
O705   O     0.42495   0.16667   0.53046   0.00000  Uiso   1.00
O706   O     0.57505   0.16666   0.46954   0.00000  Uiso   1.00
O707   O     0.42494   0.16666   0.45127   0.00000  Uiso   1.00
O708   O     0.57506   0.16667   0.54873   0.00000  Uiso   1.00
C709   C     0.65895   0.10698   0.49233   0.00000  Uiso   1.00
C710   C     0.34804   0.08038   0.45825   0.00000  Uiso   1.00
H711   H     0.34161   0.09344   0.42289   0.00000  Uiso   1.00
H712   H     0.38972   0.07823   0.46865   0.00000  Uiso   1.00
H713   H     0.66183   0.04897   0.45878   0.00000  Uiso   1.00
H714   H     0.33478   0.09456   0.52753   0.00000  Uiso   1.00
H715   H     0.61644   0.10268   0.48491   0.00000  Uiso   1.00
C716   C     0.34101   0.22635   0.50761   0.00000  Uiso   1.00
C717   C     0.65212   0.25291   0.54185   0.00000  Uiso   1.00
H718   H     0.61045   0.25515   0.53153   0.00000  Uiso   1.00
H719   H     0.65858   0.23976   0.57716   0.00000  Uiso   1.00
H720   H     0.33842   0.28429   0.54139   0.00000  Uiso   1.00
H721   H     0.38354   0.23068   0.51479   0.00000  Uiso   1.00
H722   H     0.66494   0.23879   0.47246   0.00000  Uiso   1.00
C723   C     0.53868   0.04404   0.42301   0.00000  Uiso   1.00
N724   N     0.55792   0.06107   0.39292   0.00000  Uiso   1.00
C725   C     0.46137   0.28930   0.57700   0.00000  Uiso   1.00
N726   N     0.44214   0.27227   0.60710   0.00000  Uiso   1.00
C727   C     0.49965   0.29547   0.41239   0.00000  Uiso   1.00
N728   N     0.49479   0.28178   0.37562   0.00000  Uiso   1.00
C729   C     0.50040   0.03787   0.58761   0.00000  Uiso   1.00
N730   N     0.50526   0.05156   0.62439   0.00000  Uiso   1.00
C731   C     0.44362   0.10368   0.37707   0.00000  Uiso   1.00
N732   N     0.42451   0.07372   0.39162   0.00000  Uiso   1.00
C733   C     0.55641   0.22964   0.62293   0.00000  Uiso   1.00
N734   N     0.57554   0.25960   0.60839   0.00000  Uiso   1.00
C735   C     0.42059   0.11605   0.61400   0.00000  Uiso   1.00
C736   C     0.37030   0.13628   0.61874   0.00000  Uiso   1.00
H737   H     0.36280   0.13844   0.65568   0.00000  Uiso   1.00
H738   H     0.37247   0.16761   0.60355   0.00000  Uiso   1.00
H739   H     0.33708   0.11781   0.60105   0.00000  Uiso   1.00
H740   H     0.41605   0.08430   0.62770   0.00000  Uiso   1.00
H741   H     0.42583   0.11138   0.57762   0.00000  Uiso   1.00
C742   C     0.57942   0.21727   0.38600   0.00000  Uiso   1.00
C743   C     0.62970   0.19701   0.38127   0.00000  Uiso   1.00
H744   H     0.62749   0.16568   0.39644   0.00000  Uiso   1.00
H745   H     0.63722   0.19487   0.34434   0.00000  Uiso   1.00
H746   H     0.66292   0.21546   0.39899   0.00000  Uiso   1.00
H747   H     0.58398   0.24902   0.37230   0.00000  Uiso   1.00
H748   H     0.57417   0.22195   0.42238   0.00000  Uiso   1.00
C749   C     0.83648   0.08775   0.50066   0.00000  Uiso   1.00
C750   C     0.83019   0.24558   0.49934   0.00000  Uiso   1.00
C751   C     0.73516   0.16089   0.48974   0.00000  Uiso   1.00
C752   C     0.93151   0.17243   0.51026   0.00000  Uiso   1.00
C753   C     0.67964   0.15214   0.49057   0.00000  Uiso   1.00
C754   C     0.98703   0.18119   0.50942   0.00000  Uiso   1.00
C755   C     0.84824   0.02252   0.46099   0.00000  Uiso   1.00
C756   C     0.81846   0.31082   0.53901   0.00000  Uiso   1.00
C757   C     0.83793   0.31349   0.45810   0.00000  Uiso   1.00
C758   C     0.82877   0.01984   0.54191   0.00000  Uiso   1.00
C759   C     0.82717   0.29034   0.49825   0.00000  Uiso   1.00
C760   C     0.83952   0.04299   0.50175   0.00000  Uiso   1.00
C761   C     0.80188   0.13908   0.35605   0.00000  Uiso   1.00
C762   C     0.86479   0.19425   0.64396   0.00000  Uiso   1.00
C763   C     0.79918   0.14062   0.64000   0.00000  Uiso   1.00
C764   C     0.86749   0.19271   0.36000   0.00000  Uiso   1.00
Cu765  Cu    0.83333   0.16667   0.54689   0.00000  Uiso   1.00
Cu766  Cu    0.83333   0.16666   0.45311   0.00000  Uiso   1.00
N767   N     0.83335   0.16668   0.61736   0.00000  Uiso   1.00
N768   N     0.83332   0.16666   0.38264   0.00000  Uiso   1.00
O769   O     0.83333   0.10655   0.53958   0.00000  Uiso   1.00
O770   O     0.83334   0.22678   0.46042   0.00000  Uiso   1.00
O771   O     0.83333   0.10654   0.46039   0.00000  Uiso   1.00
O772   O     0.83334   0.22679   0.53961   0.00000  Uiso   1.00
O773   O     0.75828   0.16667   0.53046   0.00000  Uiso   1.00
O774   O     0.90839   0.16666   0.46954   0.00000  Uiso   1.00
O775   O     0.75828   0.16666   0.45127   0.00000  Uiso   1.00
O776   O     0.90839   0.16667   0.54873   0.00000  Uiso   1.00
C777   C     0.99228   0.10698   0.49233   0.00000  Uiso   1.00
C778   C     0.68138   0.08038   0.45825   0.00000  Uiso   1.00
H779   H     0.67494   0.09344   0.42289   0.00000  Uiso   1.00
H780   H     0.72305   0.07823   0.46865   0.00000  Uiso   1.00
H781   H     0.99516   0.04897   0.45878   0.00000  Uiso   1.00
H782   H     0.66811   0.09456   0.52753   0.00000  Uiso   1.00
H783   H     0.94978   0.10268   0.48491   0.00000  Uiso   1.00
C784   C     0.67435   0.22635   0.50761   0.00000  Uiso   1.00
C785   C     0.98546   0.25291   0.54185   0.00000  Uiso   1.00
H786   H     0.94378   0.25515   0.53153   0.00000  Uiso   1.00
H787   H     0.99192   0.23976   0.57716   0.00000  Uiso   1.00
H788   H     0.67175   0.28429   0.54139   0.00000  Uiso   1.00
H789   H     0.71687   0.23068   0.51479   0.00000  Uiso   1.00
H790   H     0.99827   0.23879   0.47246   0.00000  Uiso   1.00
C791   C     0.87201   0.04404   0.42301   0.00000  Uiso   1.00
N792   N     0.89125   0.06107   0.39292   0.00000  Uiso   1.00
C793   C     0.79470   0.28930   0.57700   0.00000  Uiso   1.00
N794   N     0.77547   0.27227   0.60710   0.00000  Uiso   1.00
C795   C     0.83298   0.29547   0.41239   0.00000  Uiso   1.00
N796   N     0.82812   0.28178   0.37562   0.00000  Uiso   1.00
C797   C     0.83373   0.03787   0.58761   0.00000  Uiso   1.00
N798   N     0.83859   0.05156   0.62439   0.00000  Uiso   1.00
C799   C     0.77695   0.10368   0.37707   0.00000  Uiso   1.00
N800   N     0.75784   0.07372   0.39162   0.00000  Uiso   1.00
C801   C     0.88974   0.22964   0.62293   0.00000  Uiso   1.00
N802   N     0.90887   0.25960   0.60839   0.00000  Uiso   1.00
C803   C     0.75392   0.11605   0.61400   0.00000  Uiso   1.00
C804   C     0.70363   0.13628   0.61874   0.00000  Uiso   1.00
H805   H     0.69613   0.13844   0.65568   0.00000  Uiso   1.00
H806   H     0.70581   0.16761   0.60355   0.00000  Uiso   1.00
H807   H     0.67041   0.11781   0.60105   0.00000  Uiso   1.00
H808   H     0.74938   0.08430   0.62770   0.00000  Uiso   1.00
H809   H     0.75916   0.11138   0.57762   0.00000  Uiso   1.00
C810   C     0.91275   0.21727   0.38600   0.00000  Uiso   1.00
C811   C     0.96303   0.19701   0.38127   0.00000  Uiso   1.00
H812   H     0.96082   0.16568   0.39644   0.00000  Uiso   1.00
H813   H     0.97055   0.19487   0.34434   0.00000  Uiso   1.00
H814   H     0.99625   0.21546   0.39899   0.00000  Uiso   1.00
H815   H     0.91732   0.24902   0.37230   0.00000  Uiso   1.00
H816   H     0.90751   0.22195   0.42238   0.00000  Uiso   1.00
C817   C     0.16982   0.42109   0.50066   0.00000  Uiso   1.00
C818   C     0.16353   0.57892   0.49934   0.00000  Uiso   1.00
C819   C     0.06850   0.49423   0.48974   0.00000  Uiso   1.00
C820   C     0.26484   0.50576   0.51026   0.00000  Uiso   1.00
C821   C     0.01297   0.48547   0.49057   0.00000  Uiso   1.00
C822   C     0.32036   0.51452   0.50942   0.00000  Uiso   1.00
C823   C     0.18158   0.35585   0.46099   0.00000  Uiso   1.00
C824   C     0.15179   0.64415   0.53901   0.00000  Uiso   1.00
C825   C     0.17127   0.64683   0.45810   0.00000  Uiso   1.00
C826   C     0.16210   0.35318   0.54191   0.00000  Uiso   1.00
C827   C     0.16050   0.62368   0.49825   0.00000  Uiso   1.00
C828   C     0.17286   0.37633   0.50175   0.00000  Uiso   1.00
C829   C     0.13521   0.47242   0.35605   0.00000  Uiso   1.00
C830   C     0.19812   0.52758   0.64396   0.00000  Uiso   1.00
C831   C     0.13251   0.47395   0.64000   0.00000  Uiso   1.00
C832   C     0.20082   0.52604   0.36000   0.00000  Uiso   1.00
Cu833  Cu    0.16667   0.50001   0.54689   0.00000  Uiso   1.00
Cu834  Cu    0.16667   0.49999   0.45311   0.00000  Uiso   1.00
N835   N     0.16668   0.50001   0.61736   0.00000  Uiso   1.00
N836   N     0.16665   0.49999   0.38264   0.00000  Uiso   1.00
O837   O     0.16666   0.43989   0.53958   0.00000  Uiso   1.00
O838   O     0.16667   0.56011   0.46042   0.00000  Uiso   1.00
O839   O     0.16666   0.43988   0.46039   0.00000  Uiso   1.00
O840   O     0.16667   0.56012   0.53961   0.00000  Uiso   1.00
O841   O     0.09161   0.50000   0.53046   0.00000  Uiso   1.00
O842   O     0.24172   0.50000   0.46954   0.00000  Uiso   1.00
O843   O     0.09161   0.49999   0.45127   0.00000  Uiso   1.00
O844   O     0.24172   0.50001   0.54873   0.00000  Uiso   1.00
C845   C     0.32562   0.44031   0.49233   0.00000  Uiso   1.00
C846   C     0.01471   0.41371   0.45825   0.00000  Uiso   1.00
H847   H     0.00827   0.42677   0.42289   0.00000  Uiso   1.00
H848   H     0.05639   0.41157   0.46865   0.00000  Uiso   1.00
H849   H     0.32850   0.38231   0.45878   0.00000  Uiso   1.00
H850   H     0.00144   0.42790   0.52753   0.00000  Uiso   1.00
H851   H     0.28311   0.43601   0.48491   0.00000  Uiso   1.00
C852   C     0.00768   0.55969   0.50761   0.00000  Uiso   1.00
C853   C     0.31879   0.58624   0.54185   0.00000  Uiso   1.00
H854   H     0.27711   0.58848   0.53153   0.00000  Uiso   1.00
H855   H     0.32525   0.57309   0.57716   0.00000  Uiso   1.00
H856   H     0.00508   0.61762   0.54139   0.00000  Uiso   1.00
H857   H     0.05020   0.56401   0.51479   0.00000  Uiso   1.00
H858   H     0.33160   0.57212   0.47246   0.00000  Uiso   1.00
C859   C     0.20535   0.37737   0.42301   0.00000  Uiso   1.00
N860   N     0.22459   0.39440   0.39292   0.00000  Uiso   1.00
C861   C     0.12803   0.62263   0.57700   0.00000  Uiso   1.00
N862   N     0.10881   0.60561   0.60710   0.00000  Uiso   1.00
C863   C     0.16631   0.62881   0.41239   0.00000  Uiso   1.00
N864   N     0.16146   0.61511   0.37562   0.00000  Uiso   1.00
C865   C     0.16706   0.37120   0.58761   0.00000  Uiso   1.00
N866   N     0.17193   0.38490   0.62439   0.00000  Uiso   1.00
C867   C     0.11028   0.43702   0.37707   0.00000  Uiso   1.00
N868   N     0.09118   0.40705   0.39162   0.00000  Uiso   1.00
C869   C     0.22308   0.56297   0.62293   0.00000  Uiso   1.00
N870   N     0.24221   0.59293   0.60839   0.00000  Uiso   1.00
C871   C     0.08726   0.44938   0.61400   0.00000  Uiso   1.00
C872   C     0.03697   0.46962   0.61874   0.00000  Uiso   1.00
H873   H     0.02947   0.47177   0.65568   0.00000  Uiso   1.00
H874   H     0.03914   0.50094   0.60355   0.00000  Uiso   1.00
H875   H     0.00374   0.45115   0.60105   0.00000  Uiso   1.00
H876   H     0.08272   0.41763   0.62770   0.00000  Uiso   1.00
H877   H     0.09249   0.44471   0.57762   0.00000  Uiso   1.00
C878   C     0.24609   0.55061   0.38600   0.00000  Uiso   1.00
C879   C     0.29636   0.53035   0.38127   0.00000  Uiso   1.00
H880   H     0.29415   0.49902   0.39644   0.00000  Uiso   1.00
H881   H     0.30389   0.52820   0.34434   0.00000  Uiso   1.00
H882   H     0.32959   0.54879   0.39899   0.00000  Uiso   1.00
H883   H     0.25065   0.58235   0.37230   0.00000  Uiso   1.00
H884   H     0.24084   0.55529   0.42238   0.00000  Uiso   1.00
C885   C     0.50315   0.42109   0.50066   0.00000  Uiso   1.00
C886   C     0.49686   0.57892   0.49934   0.00000  Uiso   1.00
C887   C     0.40183   0.49423   0.48974   0.00000  Uiso   1.00
C888   C     0.59817   0.50576   0.51026   0.00000  Uiso   1.00
C889   C     0.34630   0.48547   0.49057   0.00000  Uiso   1.00
C890   C     0.65370   0.51452   0.50942   0.00000  Uiso   1.00
C891   C     0.51491   0.35585   0.46099   0.00000  Uiso   1.00
C892   C     0.48512   0.64415   0.53901   0.00000  Uiso   1.00
C893   C     0.50460   0.64683   0.45810   0.00000  Uiso   1.00
C894   C     0.49544   0.35318   0.54191   0.00000  Uiso   1.00
C895   C     0.49384   0.62368   0.49825   0.00000  Uiso   1.00
C896   C     0.50619   0.37633   0.50175   0.00000  Uiso   1.00
C897   C     0.46855   0.47242   0.35605   0.00000  Uiso   1.00
C898   C     0.53146   0.52758   0.64396   0.00000  Uiso   1.00
C899   C     0.46585   0.47395   0.64000   0.00000  Uiso   1.00
C900   C     0.53415   0.52604   0.36000   0.00000  Uiso   1.00
Cu901  Cu    0.50000   0.50001   0.54689   0.00000  Uiso   1.00
Cu902  Cu    0.50000   0.49999   0.45311   0.00000  Uiso   1.00
N903   N     0.50001   0.50001   0.61736   0.00000  Uiso   1.00
N904   N     0.49999   0.49999   0.38264   0.00000  Uiso   1.00
O905   O     0.50000   0.43989   0.53958   0.00000  Uiso   1.00
O906   O     0.50000   0.56011   0.46042   0.00000  Uiso   1.00
O907   O     0.50000   0.43988   0.46039   0.00000  Uiso   1.00
O908   O     0.50000   0.56012   0.53961   0.00000  Uiso   1.00
O909   O     0.42495   0.50000   0.53046   0.00000  Uiso   1.00
O910   O     0.57505   0.50000   0.46954   0.00000  Uiso   1.00
O911   O     0.42494   0.49999   0.45127   0.00000  Uiso   1.00
O912   O     0.57506   0.50001   0.54873   0.00000  Uiso   1.00
C913   C     0.65895   0.44031   0.49233   0.00000  Uiso   1.00
C914   C     0.34804   0.41371   0.45825   0.00000  Uiso   1.00
H915   H     0.34161   0.42677   0.42289   0.00000  Uiso   1.00
H916   H     0.38972   0.41157   0.46865   0.00000  Uiso   1.00
H917   H     0.66183   0.38231   0.45878   0.00000  Uiso   1.00
H918   H     0.33478   0.42790   0.52753   0.00000  Uiso   1.00
H919   H     0.61644   0.43601   0.48491   0.00000  Uiso   1.00
C920   C     0.34101   0.55969   0.50761   0.00000  Uiso   1.00
C921   C     0.65212   0.58624   0.54185   0.00000  Uiso   1.00
H922   H     0.61045   0.58848   0.53153   0.00000  Uiso   1.00
H923   H     0.65858   0.57309   0.57716   0.00000  Uiso   1.00
H924   H     0.33842   0.61762   0.54139   0.00000  Uiso   1.00
H925   H     0.38354   0.56401   0.51479   0.00000  Uiso   1.00
H926   H     0.66494   0.57212   0.47246   0.00000  Uiso   1.00
C927   C     0.53868   0.37737   0.42301   0.00000  Uiso   1.00
N928   N     0.55792   0.39440   0.39292   0.00000  Uiso   1.00
C929   C     0.46137   0.62263   0.57700   0.00000  Uiso   1.00
N930   N     0.44214   0.60561   0.60710   0.00000  Uiso   1.00
C931   C     0.49965   0.62881   0.41239   0.00000  Uiso   1.00
N932   N     0.49479   0.61511   0.37562   0.00000  Uiso   1.00
C933   C     0.50040   0.37120   0.58761   0.00000  Uiso   1.00
N934   N     0.50526   0.38490   0.62439   0.00000  Uiso   1.00
C935   C     0.44362   0.43702   0.37707   0.00000  Uiso   1.00
N936   N     0.42451   0.40705   0.39162   0.00000  Uiso   1.00
C937   C     0.55641   0.56297   0.62293   0.00000  Uiso   1.00
N938   N     0.57554   0.59293   0.60839   0.00000  Uiso   1.00
C939   C     0.42059   0.44938   0.61400   0.00000  Uiso   1.00
C940   C     0.37030   0.46962   0.61874   0.00000  Uiso   1.00
H941   H     0.36280   0.47177   0.65568   0.00000  Uiso   1.00
H942   H     0.37247   0.50094   0.60355   0.00000  Uiso   1.00
H943   H     0.33708   0.45115   0.60105   0.00000  Uiso   1.00
H944   H     0.41605   0.41763   0.62770   0.00000  Uiso   1.00
H945   H     0.42583   0.44471   0.57762   0.00000  Uiso   1.00
C946   C     0.57942   0.55061   0.38600   0.00000  Uiso   1.00
C947   C     0.62970   0.53035   0.38127   0.00000  Uiso   1.00
H948   H     0.62749   0.49902   0.39644   0.00000  Uiso   1.00
H949   H     0.63722   0.52820   0.34434   0.00000  Uiso   1.00
H950   H     0.66292   0.54879   0.39899   0.00000  Uiso   1.00
H951   H     0.58398   0.58235   0.37230   0.00000  Uiso   1.00
H952   H     0.57417   0.55529   0.42238   0.00000  Uiso   1.00
C953   C     0.83648   0.42109   0.50066   0.00000  Uiso   1.00
C954   C     0.83019   0.57892   0.49934   0.00000  Uiso   1.00
C955   C     0.73516   0.49423   0.48974   0.00000  Uiso   1.00
C956   C     0.93151   0.50576   0.51026   0.00000  Uiso   1.00
C957   C     0.67964   0.48547   0.49057   0.00000  Uiso   1.00
C958   C     0.98703   0.51452   0.50942   0.00000  Uiso   1.00
C959   C     0.84824   0.35585   0.46099   0.00000  Uiso   1.00
C960   C     0.81846   0.64415   0.53901   0.00000  Uiso   1.00
C961   C     0.83793   0.64683   0.45810   0.00000  Uiso   1.00
C962   C     0.82877   0.35318   0.54191   0.00000  Uiso   1.00
C963   C     0.82717   0.62368   0.49825   0.00000  Uiso   1.00
C964   C     0.83952   0.37633   0.50175   0.00000  Uiso   1.00
C965   C     0.80188   0.47242   0.35605   0.00000  Uiso   1.00
C966   C     0.86479   0.52758   0.64396   0.00000  Uiso   1.00
C967   C     0.79918   0.47395   0.64000   0.00000  Uiso   1.00
C968   C     0.86749   0.52604   0.36000   0.00000  Uiso   1.00
Cu969  Cu    0.83333   0.50001   0.54689   0.00000  Uiso   1.00
Cu970  Cu    0.83333   0.49999   0.45311   0.00000  Uiso   1.00
N971   N     0.83335   0.50001   0.61736   0.00000  Uiso   1.00
N972   N     0.83332   0.49999   0.38264   0.00000  Uiso   1.00
O973   O     0.83333   0.43989   0.53958   0.00000  Uiso   1.00
O974   O     0.83334   0.56011   0.46042   0.00000  Uiso   1.00
O975   O     0.83333   0.43988   0.46039   0.00000  Uiso   1.00
O976   O     0.83334   0.56012   0.53961   0.00000  Uiso   1.00
O977   O     0.75828   0.50000   0.53046   0.00000  Uiso   1.00
O978   O     0.90839   0.50000   0.46954   0.00000  Uiso   1.00
O979   O     0.75828   0.49999   0.45127   0.00000  Uiso   1.00
O980   O     0.90839   0.50001   0.54873   0.00000  Uiso   1.00
C981   C     0.99228   0.44031   0.49233   0.00000  Uiso   1.00
C982   C     0.68138   0.41371   0.45825   0.00000  Uiso   1.00
H983   H     0.67494   0.42677   0.42289   0.00000  Uiso   1.00
H984   H     0.72305   0.41157   0.46865   0.00000  Uiso   1.00
H985   H     0.99516   0.38231   0.45878   0.00000  Uiso   1.00
H986   H     0.66811   0.42790   0.52753   0.00000  Uiso   1.00
H987   H     0.94978   0.43601   0.48491   0.00000  Uiso   1.00
C988   C     0.67435   0.55969   0.50761   0.00000  Uiso   1.00
C989   C     0.98546   0.58624   0.54185   0.00000  Uiso   1.00
H990   H     0.94378   0.58848   0.53153   0.00000  Uiso   1.00
H991   H     0.99192   0.57309   0.57716   0.00000  Uiso   1.00
H992   H     0.67175   0.61762   0.54139   0.00000  Uiso   1.00
H993   H     0.71687   0.56401   0.51479   0.00000  Uiso   1.00
H994   H     0.99827   0.57212   0.47246   0.00000  Uiso   1.00
C995   C     0.87201   0.37737   0.42301   0.00000  Uiso   1.00
N996   N     0.89125   0.39440   0.39292   0.00000  Uiso   1.00
C997   C     0.79470   0.62263   0.57700   0.00000  Uiso   1.00
N998   N     0.77547   0.60561   0.60710   0.00000  Uiso   1.00
C999   C     0.83298   0.62881   0.41239   0.00000  Uiso   1.00
N1000  N     0.82812   0.61511   0.37562   0.00000  Uiso   1.00
C1001  C     0.83373   0.37120   0.58761   0.00000  Uiso   1.00
N1002  N     0.83859   0.38490   0.62439   0.00000  Uiso   1.00
C1003  C     0.77695   0.43702   0.37707   0.00000  Uiso   1.00
N1004  N     0.75784   0.40705   0.39162   0.00000  Uiso   1.00
C1005  C     0.88974   0.56297   0.62293   0.00000  Uiso   1.00
N1006  N     0.90887   0.59293   0.60839   0.00000  Uiso   1.00
C1007  C     0.75392   0.44938   0.61400   0.00000  Uiso   1.00
C1008  C     0.70363   0.46962   0.61874   0.00000  Uiso   1.00
H1009  H     0.69613   0.47177   0.65568   0.00000  Uiso   1.00
H1010  H     0.70581   0.50094   0.60355   0.00000  Uiso   1.00
H1011  H     0.67041   0.45115   0.60105   0.00000  Uiso   1.00
H1012  H     0.74938   0.41763   0.62770   0.00000  Uiso   1.00
H1013  H     0.75916   0.44471   0.57762   0.00000  Uiso   1.00
C1014  C     0.91275   0.55061   0.38600   0.00000  Uiso   1.00
C1015  C     0.96303   0.53035   0.38127   0.00000  Uiso   1.00
H1016  H     0.96082   0.49902   0.39644   0.00000  Uiso   1.00
H1017  H     0.97055   0.52820   0.34434   0.00000  Uiso   1.00
H1018  H     0.99625   0.54879   0.39899   0.00000  Uiso   1.00
H1019  H     0.91732   0.58235   0.37230   0.00000  Uiso   1.00
H1020  H     0.90751   0.55529   0.42238   0.00000  Uiso   1.00
C1021  C     0.16982   0.75442   0.50066   0.00000  Uiso   1.00
C1022  C     0.16353   0.91225   0.49934   0.00000  Uiso   1.00
C1023  C     0.06850   0.82756   0.48974   0.00000  Uiso   1.00
C1024  C     0.26484   0.83910   0.51026   0.00000  Uiso   1.00
C1025  C     0.01297   0.81881   0.49057   0.00000  Uiso   1.00
C1026  C     0.32036   0.84785   0.50942   0.00000  Uiso   1.00
C1027  C     0.18158   0.68918   0.46099   0.00000  Uiso   1.00
C1028  C     0.15179   0.97749   0.53901   0.00000  Uiso   1.00
C1029  C     0.17127   0.98016   0.45810   0.00000  Uiso   1.00
C1030  C     0.16210   0.68651   0.54191   0.00000  Uiso   1.00
C1031  C     0.16050   0.95701   0.49825   0.00000  Uiso   1.00
C1032  C     0.17286   0.70966   0.50175   0.00000  Uiso   1.00
C1033  C     0.13521   0.80575   0.35605   0.00000  Uiso   1.00
C1034  C     0.19812   0.86091   0.64396   0.00000  Uiso   1.00
C1035  C     0.13251   0.80729   0.64000   0.00000  Uiso   1.00
C1036  C     0.20082   0.85938   0.36000   0.00000  Uiso   1.00
Cu1037 Cu    0.16667   0.83334   0.54689   0.00000  Uiso   1.00
Cu1038 Cu    0.16667   0.83333   0.45311   0.00000  Uiso   1.00
N1039  N     0.16668   0.83334   0.61736   0.00000  Uiso   1.00
N1040  N     0.16665   0.83332   0.38264   0.00000  Uiso   1.00
O1041  O     0.16666   0.77322   0.53958   0.00000  Uiso   1.00
O1042  O     0.16667   0.89345   0.46042   0.00000  Uiso   1.00
O1043  O     0.16666   0.77321   0.46039   0.00000  Uiso   1.00
O1044  O     0.16667   0.89346   0.53961   0.00000  Uiso   1.00
O1045  O     0.09161   0.83334   0.53046   0.00000  Uiso   1.00
O1046  O     0.24172   0.83333   0.46954   0.00000  Uiso   1.00
O1047  O     0.09161   0.83333   0.45127   0.00000  Uiso   1.00
O1048  O     0.24172   0.83334   0.54873   0.00000  Uiso   1.00
C1049  C     0.32562   0.77365   0.49233   0.00000  Uiso   1.00
C1050  C     0.01471   0.74705   0.45825   0.00000  Uiso   1.00
H1051  H     0.00827   0.76010   0.42289   0.00000  Uiso   1.00
H1052  H     0.05639   0.74490   0.46865   0.00000  Uiso   1.00
H1053  H     0.32850   0.71564   0.45878   0.00000  Uiso   1.00
H1054  H     0.00144   0.76123   0.52753   0.00000  Uiso   1.00
H1055  H     0.28311   0.76935   0.48491   0.00000  Uiso   1.00
C1056  C     0.00768   0.89302   0.50761   0.00000  Uiso   1.00
C1057  C     0.31879   0.91958   0.54185   0.00000  Uiso   1.00
H1058  H     0.27711   0.92182   0.53153   0.00000  Uiso   1.00
H1059  H     0.32525   0.90642   0.57716   0.00000  Uiso   1.00
H1060  H     0.00508   0.95095   0.54139   0.00000  Uiso   1.00
H1061  H     0.05020   0.89735   0.51479   0.00000  Uiso   1.00
H1062  H     0.33160   0.90545   0.47246   0.00000  Uiso   1.00
C1063  C     0.20535   0.71071   0.42301   0.00000  Uiso   1.00
N1064  N     0.22459   0.72773   0.39292   0.00000  Uiso   1.00
C1065  C     0.12803   0.95597   0.57700   0.00000  Uiso   1.00
N1066  N     0.10881   0.93894   0.60710   0.00000  Uiso   1.00
C1067  C     0.16631   0.96214   0.41239   0.00000  Uiso   1.00
N1068  N     0.16146   0.94844   0.37562   0.00000  Uiso   1.00
C1069  C     0.16706   0.70453   0.58761   0.00000  Uiso   1.00
N1070  N     0.17193   0.71823   0.62439   0.00000  Uiso   1.00
C1071  C     0.11028   0.77035   0.37707   0.00000  Uiso   1.00
N1072  N     0.09118   0.74038   0.39162   0.00000  Uiso   1.00
C1073  C     0.22308   0.89630   0.62293   0.00000  Uiso   1.00
N1074  N     0.24221   0.92626   0.60839   0.00000  Uiso   1.00
C1075  C     0.08726   0.78271   0.61400   0.00000  Uiso   1.00
C1076  C     0.03697   0.80295   0.61874   0.00000  Uiso   1.00
H1077  H     0.02947   0.80511   0.65568   0.00000  Uiso   1.00
H1078  H     0.03914   0.83428   0.60355   0.00000  Uiso   1.00
H1079  H     0.00374   0.78448   0.60105   0.00000  Uiso   1.00
H1080  H     0.08272   0.75097   0.62770   0.00000  Uiso   1.00
H1081  H     0.09249   0.77804   0.57762   0.00000  Uiso   1.00
C1082  C     0.24609   0.88394   0.38600   0.00000  Uiso   1.00
C1083  C     0.29636   0.86368   0.38127   0.00000  Uiso   1.00
H1084  H     0.29415   0.83235   0.39644   0.00000  Uiso   1.00
H1085  H     0.30389   0.86153   0.34434   0.00000  Uiso   1.00
H1086  H     0.32959   0.88212   0.39899   0.00000  Uiso   1.00
H1087  H     0.25065   0.91568   0.37230   0.00000  Uiso   1.00
H1088  H     0.24084   0.88862   0.42238   0.00000  Uiso   1.00
C1089  C     0.50315   0.75442   0.50066   0.00000  Uiso   1.00
C1090  C     0.49686   0.91225   0.49934   0.00000  Uiso   1.00
C1091  C     0.40183   0.82756   0.48974   0.00000  Uiso   1.00
C1092  C     0.59817   0.83910   0.51026   0.00000  Uiso   1.00
C1093  C     0.34630   0.81881   0.49057   0.00000  Uiso   1.00
C1094  C     0.65370   0.84785   0.50942   0.00000  Uiso   1.00
C1095  C     0.51491   0.68918   0.46099   0.00000  Uiso   1.00
C1096  C     0.48512   0.97749   0.53901   0.00000  Uiso   1.00
C1097  C     0.50460   0.98016   0.45810   0.00000  Uiso   1.00
C1098  C     0.49544   0.68651   0.54191   0.00000  Uiso   1.00
C1099  C     0.49384   0.95701   0.49825   0.00000  Uiso   1.00
C1100  C     0.50619   0.70966   0.50175   0.00000  Uiso   1.00
C1101  C     0.46855   0.80575   0.35605   0.00000  Uiso   1.00
C1102  C     0.53146   0.86091   0.64396   0.00000  Uiso   1.00
C1103  C     0.46585   0.80729   0.64000   0.00000  Uiso   1.00
C1104  C     0.53415   0.85938   0.36000   0.00000  Uiso   1.00
Cu1105 Cu    0.50000   0.83334   0.54689   0.00000  Uiso   1.00
Cu1106 Cu    0.50000   0.83333   0.45311   0.00000  Uiso   1.00
N1107  N     0.50001   0.83334   0.61736   0.00000  Uiso   1.00
N1108  N     0.49999   0.83332   0.38264   0.00000  Uiso   1.00
O1109  O     0.50000   0.77322   0.53958   0.00000  Uiso   1.00
O1110  O     0.50000   0.89345   0.46042   0.00000  Uiso   1.00
O1111  O     0.50000   0.77321   0.46039   0.00000  Uiso   1.00
O1112  O     0.50000   0.89346   0.53961   0.00000  Uiso   1.00
O1113  O     0.42495   0.83334   0.53046   0.00000  Uiso   1.00
O1114  O     0.57505   0.83333   0.46954   0.00000  Uiso   1.00
O1115  O     0.42494   0.83333   0.45127   0.00000  Uiso   1.00
O1116  O     0.57506   0.83334   0.54873   0.00000  Uiso   1.00
C1117  C     0.65895   0.77365   0.49233   0.00000  Uiso   1.00
C1118  C     0.34804   0.74705   0.45825   0.00000  Uiso   1.00
H1119  H     0.34161   0.76010   0.42289   0.00000  Uiso   1.00
H1120  H     0.38972   0.74490   0.46865   0.00000  Uiso   1.00
H1121  H     0.66183   0.71564   0.45878   0.00000  Uiso   1.00
H1122  H     0.33478   0.76123   0.52753   0.00000  Uiso   1.00
H1123  H     0.61644   0.76935   0.48491   0.00000  Uiso   1.00
C1124  C     0.34101   0.89302   0.50761   0.00000  Uiso   1.00
C1125  C     0.65212   0.91958   0.54185   0.00000  Uiso   1.00
H1126  H     0.61045   0.92182   0.53153   0.00000  Uiso   1.00
H1127  H     0.65858   0.90642   0.57716   0.00000  Uiso   1.00
H1128  H     0.33842   0.95095   0.54139   0.00000  Uiso   1.00
H1129  H     0.38354   0.89735   0.51479   0.00000  Uiso   1.00
H1130  H     0.66494   0.90545   0.47246   0.00000  Uiso   1.00
C1131  C     0.53868   0.71071   0.42301   0.00000  Uiso   1.00
N1132  N     0.55792   0.72773   0.39292   0.00000  Uiso   1.00
C1133  C     0.46137   0.95597   0.57700   0.00000  Uiso   1.00
N1134  N     0.44214   0.93894   0.60710   0.00000  Uiso   1.00
C1135  C     0.49965   0.96214   0.41239   0.00000  Uiso   1.00
N1136  N     0.49479   0.94844   0.37562   0.00000  Uiso   1.00
C1137  C     0.50040   0.70453   0.58761   0.00000  Uiso   1.00
N1138  N     0.50526   0.71823   0.62439   0.00000  Uiso   1.00
C1139  C     0.44362   0.77035   0.37707   0.00000  Uiso   1.00
N1140  N     0.42451   0.74038   0.39162   0.00000  Uiso   1.00
C1141  C     0.55641   0.89630   0.62293   0.00000  Uiso   1.00
N1142  N     0.57554   0.92626   0.60839   0.00000  Uiso   1.00
C1143  C     0.42059   0.78271   0.61400   0.00000  Uiso   1.00
C1144  C     0.37030   0.80295   0.61874   0.00000  Uiso   1.00
H1145  H     0.36280   0.80511   0.65568   0.00000  Uiso   1.00
H1146  H     0.37247   0.83428   0.60355   0.00000  Uiso   1.00
H1147  H     0.33708   0.78448   0.60105   0.00000  Uiso   1.00
H1148  H     0.41605   0.75097   0.62770   0.00000  Uiso   1.00
H1149  H     0.42583   0.77804   0.57762   0.00000  Uiso   1.00
C1150  C     0.57942   0.88394   0.38600   0.00000  Uiso   1.00
C1151  C     0.62970   0.86368   0.38127   0.00000  Uiso   1.00
H1152  H     0.62749   0.83235   0.39644   0.00000  Uiso   1.00
H1153  H     0.63722   0.86153   0.34434   0.00000  Uiso   1.00
H1154  H     0.66292   0.88212   0.39899   0.00000  Uiso   1.00
H1155  H     0.58398   0.91568   0.37230   0.00000  Uiso   1.00
H1156  H     0.57417   0.88862   0.42238   0.00000  Uiso   1.00
C1157  C     0.83648   0.75442   0.50066   0.00000  Uiso   1.00
C1158  C     0.83019   0.91225   0.49934   0.00000  Uiso   1.00
C1159  C     0.73516   0.82756   0.48974   0.00000  Uiso   1.00
C1160  C     0.93151   0.83910   0.51026   0.00000  Uiso   1.00
C1161  C     0.67964   0.81881   0.49057   0.00000  Uiso   1.00
C1162  C     0.98703   0.84785   0.50942   0.00000  Uiso   1.00
C1163  C     0.84824   0.68918   0.46099   0.00000  Uiso   1.00
C1164  C     0.81846   0.97749   0.53901   0.00000  Uiso   1.00
C1165  C     0.83793   0.98016   0.45810   0.00000  Uiso   1.00
C1166  C     0.82877   0.68651   0.54191   0.00000  Uiso   1.00
C1167  C     0.82717   0.95701   0.49825   0.00000  Uiso   1.00
C1168  C     0.83952   0.70966   0.50175   0.00000  Uiso   1.00
C1169  C     0.80188   0.80575   0.35605   0.00000  Uiso   1.00
C1170  C     0.86479   0.86091   0.64396   0.00000  Uiso   1.00
C1171  C     0.79918   0.80729   0.64000   0.00000  Uiso   1.00
C1172  C     0.86749   0.85938   0.36000   0.00000  Uiso   1.00
Cu1173 Cu    0.83333   0.83334   0.54689   0.00000  Uiso   1.00
Cu1174 Cu    0.83333   0.83333   0.45311   0.00000  Uiso   1.00
N1175  N     0.83335   0.83334   0.61736   0.00000  Uiso   1.00
N1176  N     0.83332   0.83332   0.38264   0.00000  Uiso   1.00
O1177  O     0.83333   0.77322   0.53958   0.00000  Uiso   1.00
O1178  O     0.83334   0.89345   0.46042   0.00000  Uiso   1.00
O1179  O     0.83333   0.77321   0.46039   0.00000  Uiso   1.00
O1180  O     0.83334   0.89346   0.53961   0.00000  Uiso   1.00
O1181  O     0.75828   0.83334   0.53046   0.00000  Uiso   1.00
O1182  O     0.90839   0.83333   0.46954   0.00000  Uiso   1.00
O1183  O     0.75828   0.83333   0.45127   0.00000  Uiso   1.00
O1184  O     0.90839   0.83334   0.54873   0.00000  Uiso   1.00
C1185  C     0.99228   0.77365   0.49233   0.00000  Uiso   1.00
C1186  C     0.68138   0.74705   0.45825   0.00000  Uiso   1.00
H1187  H     0.67494   0.76010   0.42289   0.00000  Uiso   1.00
H1188  H     0.72305   0.74490   0.46865   0.00000  Uiso   1.00
H1189  H     0.99516   0.71564   0.45878   0.00000  Uiso   1.00
H1190  H     0.66811   0.76123   0.52753   0.00000  Uiso   1.00
H1191  H     0.94978   0.76935   0.48491   0.00000  Uiso   1.00
C1192  C     0.67435   0.89302   0.50761   0.00000  Uiso   1.00
C1193  C     0.98546   0.91958   0.54185   0.00000  Uiso   1.00
H1194  H     0.94378   0.92182   0.53153   0.00000  Uiso   1.00
H1195  H     0.99192   0.90642   0.57716   0.00000  Uiso   1.00
H1196  H     0.67175   0.95095   0.54139   0.00000  Uiso   1.00
H1197  H     0.71687   0.89735   0.51479   0.00000  Uiso   1.00
H1198  H     0.99827   0.90545   0.47246   0.00000  Uiso   1.00
C1199  C     0.87201   0.71071   0.42301   0.00000  Uiso   1.00
N1200  N     0.89125   0.72773   0.39292   0.00000  Uiso   1.00
C1201  C     0.79470   0.95597   0.57700   0.00000  Uiso   1.00
N1202  N     0.77547   0.93894   0.60710   0.00000  Uiso   1.00
C1203  C     0.83298   0.96214   0.41239   0.00000  Uiso   1.00
N1204  N     0.82812   0.94844   0.37562   0.00000  Uiso   1.00
C1205  C     0.83373   0.70453   0.58761   0.00000  Uiso   1.00
N1206  N     0.83859   0.71823   0.62439   0.00000  Uiso   1.00
C1207  C     0.77695   0.77035   0.37707   0.00000  Uiso   1.00
N1208  N     0.75784   0.74038   0.39162   0.00000  Uiso   1.00
C1209  C     0.88974   0.89630   0.62293   0.00000  Uiso   1.00
N1210  N     0.90887   0.92626   0.60839   0.00000  Uiso   1.00
C1211  C     0.75392   0.78271   0.61400   0.00000  Uiso   1.00
C1212  C     0.70363   0.80295   0.61874   0.00000  Uiso   1.00
H1213  H     0.69613   0.80511   0.65568   0.00000  Uiso   1.00
H1214  H     0.70581   0.83428   0.60355   0.00000  Uiso   1.00
H1215  H     0.67041   0.78448   0.60105   0.00000  Uiso   1.00
H1216  H     0.74938   0.75097   0.62770   0.00000  Uiso   1.00
H1217  H     0.75916   0.77804   0.57762   0.00000  Uiso   1.00
C1218  C     0.91275   0.88394   0.38600   0.00000  Uiso   1.00
C1219  C     0.96303   0.86368   0.38127   0.00000  Uiso   1.00
H1220  H     0.96082   0.83235   0.39644   0.00000  Uiso   1.00
H1221  H     0.97055   0.86153   0.34434   0.00000  Uiso   1.00
H1222  H     0.99625   0.88212   0.39899   0.00000  Uiso   1.00
H1223  H     0.91732   0.91568   0.37230   0.00000  Uiso   1.00
H1224  H     0.90751   0.88862   0.42238   0.00000  Uiso   1.00
C1225  C     0.16982   0.08775   0.83399   0.00000  Uiso   1.00
C1226  C     0.16353   0.24558   0.83267   0.00000  Uiso   1.00
C1227  C     0.06850   0.16089   0.82307   0.00000  Uiso   1.00
C1228  C     0.26484   0.17243   0.84359   0.00000  Uiso   1.00
C1229  C     0.01297   0.15214   0.82390   0.00000  Uiso   1.00
C1230  C     0.32036   0.18119   0.84275   0.00000  Uiso   1.00
C1231  C     0.18158   0.02252   0.79433   0.00000  Uiso   1.00
C1232  C     0.15179   0.31082   0.87235   0.00000  Uiso   1.00
C1233  C     0.17127   0.31349   0.79143   0.00000  Uiso   1.00
C1234  C     0.16210   0.01984   0.87524   0.00000  Uiso   1.00
C1235  C     0.16050   0.29034   0.83158   0.00000  Uiso   1.00
C1236  C     0.17286   0.04299   0.83509   0.00000  Uiso   1.00
C1237  C     0.13521   0.13908   0.68938   0.00000  Uiso   1.00
C1238  C     0.19812   0.19425   0.97729   0.00000  Uiso   1.00
C1239  C     0.13251   0.14062   0.97333   0.00000  Uiso   1.00
C1240  C     0.20082   0.19271   0.69333   0.00000  Uiso   1.00
Cu1241 Cu    0.16667   0.16667   0.88022   0.00000  Uiso   1.00
Cu1242 Cu    0.16667   0.16666   0.78645   0.00000  Uiso   1.00
N1243  N     0.16668   0.16668   0.95069   0.00000  Uiso   1.00
N1244  N     0.16665   0.16666   0.71597   0.00000  Uiso   1.00
O1245  O     0.16666   0.10655   0.87291   0.00000  Uiso   1.00
O1246  O     0.16667   0.22678   0.79375   0.00000  Uiso   1.00
O1247  O     0.16666   0.10654   0.79372   0.00000  Uiso   1.00
O1248  O     0.16667   0.22679   0.87294   0.00000  Uiso   1.00
O1249  O     0.09161   0.16667   0.86379   0.00000  Uiso   1.00
O1250  O     0.24172   0.16666   0.80288   0.00000  Uiso   1.00
O1251  O     0.09161   0.16666   0.78460   0.00000  Uiso   1.00
O1252  O     0.24172   0.16667   0.88207   0.00000  Uiso   1.00
C1253  C     0.32562   0.10698   0.82566   0.00000  Uiso   1.00
C1254  C     0.01471   0.08038   0.79158   0.00000  Uiso   1.00
H1255  H     0.00827   0.09344   0.75622   0.00000  Uiso   1.00
H1256  H     0.05639   0.07823   0.80198   0.00000  Uiso   1.00
H1257  H     0.32850   0.04897   0.79211   0.00000  Uiso   1.00
H1258  H     0.00144   0.09456   0.86087   0.00000  Uiso   1.00
H1259  H     0.28311   0.10268   0.81824   0.00000  Uiso   1.00
C1260  C     0.00768   0.22635   0.84094   0.00000  Uiso   1.00
C1261  C     0.31879   0.25291   0.87518   0.00000  Uiso   1.00
H1262  H     0.27711   0.25515   0.86487   0.00000  Uiso   1.00
H1263  H     0.32525   0.23976   0.91049   0.00000  Uiso   1.00
H1264  H     0.00508   0.28429   0.87472   0.00000  Uiso   1.00
H1265  H     0.05020   0.23068   0.84812   0.00000  Uiso   1.00
H1266  H     0.33160   0.23879   0.80580   0.00000  Uiso   1.00
C1267  C     0.20535   0.04404   0.75635   0.00000  Uiso   1.00
N1268  N     0.22459   0.06107   0.72625   0.00000  Uiso   1.00
C1269  C     0.12803   0.28930   0.91033   0.00000  Uiso   1.00
N1270  N     0.10881   0.27227   0.94043   0.00000  Uiso   1.00
C1271  C     0.16631   0.29547   0.74573   0.00000  Uiso   1.00
N1272  N     0.16146   0.28178   0.70895   0.00000  Uiso   1.00
C1273  C     0.16706   0.03787   0.92095   0.00000  Uiso   1.00
N1274  N     0.17193   0.05156   0.95772   0.00000  Uiso   1.00
C1275  C     0.11028   0.10368   0.71040   0.00000  Uiso   1.00
N1276  N     0.09118   0.07372   0.72495   0.00000  Uiso   1.00
C1277  C     0.22308   0.22964   0.95627   0.00000  Uiso   1.00
N1278  N     0.24221   0.25960   0.94173   0.00000  Uiso   1.00
C1279  C     0.08726   0.11605   0.94733   0.00000  Uiso   1.00
C1280  C     0.03697   0.13628   0.95208   0.00000  Uiso   1.00
H1281  H     0.02947   0.13844   0.98902   0.00000  Uiso   1.00
H1282  H     0.03914   0.16761   0.93688   0.00000  Uiso   1.00
H1283  H     0.00374   0.11781   0.93438   0.00000  Uiso   1.00
H1284  H     0.08272   0.08430   0.96103   0.00000  Uiso   1.00
H1285  H     0.09249   0.11138   0.91095   0.00000  Uiso   1.00
C1286  C     0.24609   0.21727   0.71934   0.00000  Uiso   1.00
C1287  C     0.29636   0.19701   0.71461   0.00000  Uiso   1.00
H1288  H     0.29415   0.16568   0.72978   0.00000  Uiso   1.00
H1289  H     0.30389   0.19487   0.67767   0.00000  Uiso   1.00
H1290  H     0.32959   0.21546   0.73233   0.00000  Uiso   1.00
H1291  H     0.25065   0.24902   0.70564   0.00000  Uiso   1.00
H1292  H     0.24084   0.22195   0.75572   0.00000  Uiso   1.00
C1293  C     0.50315   0.08775   0.83399   0.00000  Uiso   1.00
C1294  C     0.49686   0.24558   0.83267   0.00000  Uiso   1.00
C1295  C     0.40183   0.16089   0.82307   0.00000  Uiso   1.00
C1296  C     0.59817   0.17243   0.84359   0.00000  Uiso   1.00
C1297  C     0.34630   0.15214   0.82390   0.00000  Uiso   1.00
C1298  C     0.65370   0.18119   0.84275   0.00000  Uiso   1.00
C1299  C     0.51491   0.02252   0.79433   0.00000  Uiso   1.00
C1300  C     0.48512   0.31082   0.87235   0.00000  Uiso   1.00
C1301  C     0.50460   0.31349   0.79143   0.00000  Uiso   1.00
C1302  C     0.49544   0.01984   0.87524   0.00000  Uiso   1.00
C1303  C     0.49384   0.29034   0.83158   0.00000  Uiso   1.00
C1304  C     0.50619   0.04299   0.83509   0.00000  Uiso   1.00
C1305  C     0.46855   0.13908   0.68938   0.00000  Uiso   1.00
C1306  C     0.53146   0.19425   0.97729   0.00000  Uiso   1.00
C1307  C     0.46585   0.14062   0.97333   0.00000  Uiso   1.00
C1308  C     0.53415   0.19271   0.69333   0.00000  Uiso   1.00
Cu1309 Cu    0.50000   0.16667   0.88022   0.00000  Uiso   1.00
Cu1310 Cu    0.50000   0.16666   0.78645   0.00000  Uiso   1.00
N1311  N     0.50001   0.16668   0.95069   0.00000  Uiso   1.00
N1312  N     0.49999   0.16666   0.71597   0.00000  Uiso   1.00
O1313  O     0.50000   0.10655   0.87291   0.00000  Uiso   1.00
O1314  O     0.50000   0.22678   0.79375   0.00000  Uiso   1.00
O1315  O     0.50000   0.10654   0.79372   0.00000  Uiso   1.00
O1316  O     0.50000   0.22679   0.87294   0.00000  Uiso   1.00
O1317  O     0.42495   0.16667   0.86379   0.00000  Uiso   1.00
O1318  O     0.57505   0.16666   0.80288   0.00000  Uiso   1.00
O1319  O     0.42494   0.16666   0.78460   0.00000  Uiso   1.00
O1320  O     0.57506   0.16667   0.88207   0.00000  Uiso   1.00
C1321  C     0.65895   0.10698   0.82566   0.00000  Uiso   1.00
C1322  C     0.34804   0.08038   0.79158   0.00000  Uiso   1.00
H1323  H     0.34161   0.09344   0.75622   0.00000  Uiso   1.00
H1324  H     0.38972   0.07823   0.80198   0.00000  Uiso   1.00
H1325  H     0.66183   0.04897   0.79211   0.00000  Uiso   1.00
H1326  H     0.33478   0.09456   0.86087   0.00000  Uiso   1.00
H1327  H     0.61644   0.10268   0.81824   0.00000  Uiso   1.00
C1328  C     0.34101   0.22635   0.84094   0.00000  Uiso   1.00
C1329  C     0.65212   0.25291   0.87518   0.00000  Uiso   1.00
H1330  H     0.61045   0.25515   0.86487   0.00000  Uiso   1.00
H1331  H     0.65858   0.23976   0.91049   0.00000  Uiso   1.00
H1332  H     0.33842   0.28429   0.87472   0.00000  Uiso   1.00
H1333  H     0.38354   0.23068   0.84812   0.00000  Uiso   1.00
H1334  H     0.66494   0.23879   0.80580   0.00000  Uiso   1.00
C1335  C     0.53868   0.04404   0.75635   0.00000  Uiso   1.00
N1336  N     0.55792   0.06107   0.72625   0.00000  Uiso   1.00
C1337  C     0.46137   0.28930   0.91033   0.00000  Uiso   1.00
N1338  N     0.44214   0.27227   0.94043   0.00000  Uiso   1.00
C1339  C     0.49965   0.29547   0.74573   0.00000  Uiso   1.00
N1340  N     0.49479   0.28178   0.70895   0.00000  Uiso   1.00
C1341  C     0.50040   0.03787   0.92095   0.00000  Uiso   1.00
N1342  N     0.50526   0.05156   0.95772   0.00000  Uiso   1.00
C1343  C     0.44362   0.10368   0.71040   0.00000  Uiso   1.00
N1344  N     0.42451   0.07372   0.72495   0.00000  Uiso   1.00
C1345  C     0.55641   0.22964   0.95627   0.00000  Uiso   1.00
N1346  N     0.57554   0.25960   0.94173   0.00000  Uiso   1.00
C1347  C     0.42059   0.11605   0.94733   0.00000  Uiso   1.00
C1348  C     0.37030   0.13628   0.95208   0.00000  Uiso   1.00
H1349  H     0.36280   0.13844   0.98902   0.00000  Uiso   1.00
H1350  H     0.37247   0.16761   0.93688   0.00000  Uiso   1.00
H1351  H     0.33708   0.11781   0.93438   0.00000  Uiso   1.00
H1352  H     0.41605   0.08430   0.96103   0.00000  Uiso   1.00
H1353  H     0.42583   0.11138   0.91095   0.00000  Uiso   1.00
C1354  C     0.57942   0.21727   0.71934   0.00000  Uiso   1.00
C1355  C     0.62970   0.19701   0.71461   0.00000  Uiso   1.00
H1356  H     0.62749   0.16568   0.72978   0.00000  Uiso   1.00
H1357  H     0.63722   0.19487   0.67767   0.00000  Uiso   1.00
H1358  H     0.66292   0.21546   0.73233   0.00000  Uiso   1.00
H1359  H     0.58398   0.24902   0.70564   0.00000  Uiso   1.00
H1360  H     0.57417   0.22195   0.75572   0.00000  Uiso   1.00
C1361  C     0.83648   0.08775   0.83399   0.00000  Uiso   1.00
C1362  C     0.83019   0.24558   0.83267   0.00000  Uiso   1.00
C1363  C     0.73516   0.16089   0.82307   0.00000  Uiso   1.00
C1364  C     0.93151   0.17243   0.84359   0.00000  Uiso   1.00
C1365  C     0.67964   0.15214   0.82390   0.00000  Uiso   1.00
C1366  C     0.98703   0.18119   0.84275   0.00000  Uiso   1.00
C1367  C     0.84824   0.02252   0.79433   0.00000  Uiso   1.00
C1368  C     0.81846   0.31082   0.87235   0.00000  Uiso   1.00
C1369  C     0.83793   0.31349   0.79143   0.00000  Uiso   1.00
C1370  C     0.82877   0.01984   0.87524   0.00000  Uiso   1.00
C1371  C     0.82717   0.29034   0.83158   0.00000  Uiso   1.00
C1372  C     0.83952   0.04299   0.83509   0.00000  Uiso   1.00
C1373  C     0.80188   0.13908   0.68938   0.00000  Uiso   1.00
C1374  C     0.86479   0.19425   0.97729   0.00000  Uiso   1.00
C1375  C     0.79918   0.14062   0.97333   0.00000  Uiso   1.00
C1376  C     0.86749   0.19271   0.69333   0.00000  Uiso   1.00
Cu1377 Cu    0.83333   0.16667   0.88022   0.00000  Uiso   1.00
Cu1378 Cu    0.83333   0.16666   0.78645   0.00000  Uiso   1.00
N1379  N     0.83335   0.16668   0.95069   0.00000  Uiso   1.00
N1380  N     0.83332   0.16666   0.71597   0.00000  Uiso   1.00
O1381  O     0.83333   0.10655   0.87291   0.00000  Uiso   1.00
O1382  O     0.83334   0.22678   0.79375   0.00000  Uiso   1.00
O1383  O     0.83333   0.10654   0.79372   0.00000  Uiso   1.00
O1384  O     0.83334   0.22679   0.87294   0.00000  Uiso   1.00
O1385  O     0.75828   0.16667   0.86379   0.00000  Uiso   1.00
O1386  O     0.90839   0.16666   0.80288   0.00000  Uiso   1.00
O1387  O     0.75828   0.16666   0.78460   0.00000  Uiso   1.00
O1388  O     0.90839   0.16667   0.88207   0.00000  Uiso   1.00
C1389  C     0.99228   0.10698   0.82566   0.00000  Uiso   1.00
C1390  C     0.68138   0.08038   0.79158   0.00000  Uiso   1.00
H1391  H     0.67494   0.09344   0.75622   0.00000  Uiso   1.00
H1392  H     0.72305   0.07823   0.80198   0.00000  Uiso   1.00
H1393  H     0.99516   0.04897   0.79211   0.00000  Uiso   1.00
H1394  H     0.66811   0.09456   0.86087   0.00000  Uiso   1.00
H1395  H     0.94978   0.10268   0.81824   0.00000  Uiso   1.00
C1396  C     0.67435   0.22635   0.84094   0.00000  Uiso   1.00
C1397  C     0.98546   0.25291   0.87518   0.00000  Uiso   1.00
H1398  H     0.94378   0.25515   0.86487   0.00000  Uiso   1.00
H1399  H     0.99192   0.23976   0.91049   0.00000  Uiso   1.00
H1400  H     0.67175   0.28429   0.87472   0.00000  Uiso   1.00
H1401  H     0.71687   0.23068   0.84812   0.00000  Uiso   1.00
H1402  H     0.99827   0.23879   0.80580   0.00000  Uiso   1.00
C1403  C     0.87201   0.04404   0.75635   0.00000  Uiso   1.00
N1404  N     0.89125   0.06107   0.72625   0.00000  Uiso   1.00
C1405  C     0.79470   0.28930   0.91033   0.00000  Uiso   1.00
N1406  N     0.77547   0.27227   0.94043   0.00000  Uiso   1.00
C1407  C     0.83298   0.29547   0.74573   0.00000  Uiso   1.00
N1408  N     0.82812   0.28178   0.70895   0.00000  Uiso   1.00
C1409  C     0.83373   0.03787   0.92095   0.00000  Uiso   1.00
N1410  N     0.83859   0.05156   0.95772   0.00000  Uiso   1.00
C1411  C     0.77695   0.10368   0.71040   0.00000  Uiso   1.00
N1412  N     0.75784   0.07372   0.72495   0.00000  Uiso   1.00
C1413  C     0.88974   0.22964   0.95627   0.00000  Uiso   1.00
N1414  N     0.90887   0.25960   0.94173   0.00000  Uiso   1.00
C1415  C     0.75392   0.11605   0.94733   0.00000  Uiso   1.00
C1416  C     0.70363   0.13628   0.95208   0.00000  Uiso   1.00
H1417  H     0.69613   0.13844   0.98902   0.00000  Uiso   1.00
H1418  H     0.70581   0.16761   0.93688   0.00000  Uiso   1.00
H1419  H     0.67041   0.11781   0.93438   0.00000  Uiso   1.00
H1420  H     0.74938   0.08430   0.96103   0.00000  Uiso   1.00
H1421  H     0.75916   0.11138   0.91095   0.00000  Uiso   1.00
C1422  C     0.91275   0.21727   0.71934   0.00000  Uiso   1.00
C1423  C     0.96303   0.19701   0.71461   0.00000  Uiso   1.00
H1424  H     0.96082   0.16568   0.72978   0.00000  Uiso   1.00
H1425  H     0.97055   0.19487   0.67767   0.00000  Uiso   1.00
H1426  H     0.99625   0.21546   0.73233   0.00000  Uiso   1.00
H1427  H     0.91732   0.24902   0.70564   0.00000  Uiso   1.00
H1428  H     0.90751   0.22195   0.75572   0.00000  Uiso   1.00
C1429  C     0.16982   0.42109   0.83399   0.00000  Uiso   1.00
C1430  C     0.16353   0.57892   0.83267   0.00000  Uiso   1.00
C1431  C     0.06850   0.49423   0.82307   0.00000  Uiso   1.00
C1432  C     0.26484   0.50576   0.84359   0.00000  Uiso   1.00
C1433  C     0.01297   0.48547   0.82390   0.00000  Uiso   1.00
C1434  C     0.32036   0.51452   0.84275   0.00000  Uiso   1.00
C1435  C     0.18158   0.35585   0.79433   0.00000  Uiso   1.00
C1436  C     0.15179   0.64415   0.87235   0.00000  Uiso   1.00
C1437  C     0.17127   0.64683   0.79143   0.00000  Uiso   1.00
C1438  C     0.16210   0.35318   0.87524   0.00000  Uiso   1.00
C1439  C     0.16050   0.62368   0.83158   0.00000  Uiso   1.00
C1440  C     0.17286   0.37633   0.83509   0.00000  Uiso   1.00
C1441  C     0.13521   0.47242   0.68938   0.00000  Uiso   1.00
C1442  C     0.19812   0.52758   0.97729   0.00000  Uiso   1.00
C1443  C     0.13251   0.47395   0.97333   0.00000  Uiso   1.00
C1444  C     0.20082   0.52604   0.69333   0.00000  Uiso   1.00
Cu1445 Cu    0.16667   0.50001   0.88022   0.00000  Uiso   1.00
Cu1446 Cu    0.16667   0.49999   0.78645   0.00000  Uiso   1.00
N1447  N     0.16668   0.50001   0.95069   0.00000  Uiso   1.00
N1448  N     0.16665   0.49999   0.71597   0.00000  Uiso   1.00
O1449  O     0.16666   0.43989   0.87291   0.00000  Uiso   1.00
O1450  O     0.16667   0.56011   0.79375   0.00000  Uiso   1.00
O1451  O     0.16666   0.43988   0.79372   0.00000  Uiso   1.00
O1452  O     0.16667   0.56012   0.87294   0.00000  Uiso   1.00
O1453  O     0.09161   0.50000   0.86379   0.00000  Uiso   1.00
O1454  O     0.24172   0.50000   0.80288   0.00000  Uiso   1.00
O1455  O     0.09161   0.49999   0.78460   0.00000  Uiso   1.00
O1456  O     0.24172   0.50001   0.88207   0.00000  Uiso   1.00
C1457  C     0.32562   0.44031   0.82566   0.00000  Uiso   1.00
C1458  C     0.01471   0.41371   0.79158   0.00000  Uiso   1.00
H1459  H     0.00827   0.42677   0.75622   0.00000  Uiso   1.00
H1460  H     0.05639   0.41157   0.80198   0.00000  Uiso   1.00
H1461  H     0.32850   0.38231   0.79211   0.00000  Uiso   1.00
H1462  H     0.00144   0.42790   0.86087   0.00000  Uiso   1.00
H1463  H     0.28311   0.43601   0.81824   0.00000  Uiso   1.00
C1464  C     0.00768   0.55969   0.84094   0.00000  Uiso   1.00
C1465  C     0.31879   0.58624   0.87518   0.00000  Uiso   1.00
H1466  H     0.27711   0.58848   0.86487   0.00000  Uiso   1.00
H1467  H     0.32525   0.57309   0.91049   0.00000  Uiso   1.00
H1468  H     0.00508   0.61762   0.87472   0.00000  Uiso   1.00
H1469  H     0.05020   0.56401   0.84812   0.00000  Uiso   1.00
H1470  H     0.33160   0.57212   0.80580   0.00000  Uiso   1.00
C1471  C     0.20535   0.37737   0.75635   0.00000  Uiso   1.00
N1472  N     0.22459   0.39440   0.72625   0.00000  Uiso   1.00
C1473  C     0.12803   0.62263   0.91033   0.00000  Uiso   1.00
N1474  N     0.10881   0.60561   0.94043   0.00000  Uiso   1.00
C1475  C     0.16631   0.62881   0.74573   0.00000  Uiso   1.00
N1476  N     0.16146   0.61511   0.70895   0.00000  Uiso   1.00
C1477  C     0.16706   0.37120   0.92095   0.00000  Uiso   1.00
N1478  N     0.17193   0.38490   0.95772   0.00000  Uiso   1.00
C1479  C     0.11028   0.43702   0.71040   0.00000  Uiso   1.00
N1480  N     0.09118   0.40705   0.72495   0.00000  Uiso   1.00
C1481  C     0.22308   0.56297   0.95627   0.00000  Uiso   1.00
N1482  N     0.24221   0.59293   0.94173   0.00000  Uiso   1.00
C1483  C     0.08726   0.44938   0.94733   0.00000  Uiso   1.00
C1484  C     0.03697   0.46962   0.95208   0.00000  Uiso   1.00
H1485  H     0.02947   0.47177   0.98902   0.00000  Uiso   1.00
H1486  H     0.03914   0.50094   0.93688   0.00000  Uiso   1.00
H1487  H     0.00374   0.45115   0.93438   0.00000  Uiso   1.00
H1488  H     0.08272   0.41763   0.96103   0.00000  Uiso   1.00
H1489  H     0.09249   0.44471   0.91095   0.00000  Uiso   1.00
C1490  C     0.24609   0.55061   0.71934   0.00000  Uiso   1.00
C1491  C     0.29636   0.53035   0.71461   0.00000  Uiso   1.00
H1492  H     0.29415   0.49902   0.72978   0.00000  Uiso   1.00
H1493  H     0.30389   0.52820   0.67767   0.00000  Uiso   1.00
H1494  H     0.32959   0.54879   0.73233   0.00000  Uiso   1.00
H1495  H     0.25065   0.58235   0.70564   0.00000  Uiso   1.00
H1496  H     0.24084   0.55529   0.75572   0.00000  Uiso   1.00
C1497  C     0.50315   0.42109   0.83399   0.00000  Uiso   1.00
C1498  C     0.49686   0.57892   0.83267   0.00000  Uiso   1.00
C1499  C     0.40183   0.49423   0.82307   0.00000  Uiso   1.00
C1500  C     0.59817   0.50576   0.84359   0.00000  Uiso   1.00
C1501  C     0.34630   0.48547   0.82390   0.00000  Uiso   1.00
C1502  C     0.65370   0.51452   0.84275   0.00000  Uiso   1.00
C1503  C     0.51491   0.35585   0.79433   0.00000  Uiso   1.00
C1504  C     0.48512   0.64415   0.87235   0.00000  Uiso   1.00
C1505  C     0.50460   0.64683   0.79143   0.00000  Uiso   1.00
C1506  C     0.49544   0.35318   0.87524   0.00000  Uiso   1.00
C1507  C     0.49384   0.62368   0.83158   0.00000  Uiso   1.00
C1508  C     0.50619   0.37633   0.83509   0.00000  Uiso   1.00
C1509  C     0.46855   0.47242   0.68938   0.00000  Uiso   1.00
C1510  C     0.53146   0.52758   0.97729   0.00000  Uiso   1.00
C1511  C     0.46585   0.47395   0.97333   0.00000  Uiso   1.00
C1512  C     0.53415   0.52604   0.69333   0.00000  Uiso   1.00
Cu1513 Cu    0.50000   0.50001   0.88022   0.00000  Uiso   1.00
Cu1514 Cu    0.50000   0.49999   0.78645   0.00000  Uiso   1.00
N1515  N     0.50001   0.50001   0.95069   0.00000  Uiso   1.00
N1516  N     0.49999   0.49999   0.71597   0.00000  Uiso   1.00
O1517  O     0.50000   0.43989   0.87291   0.00000  Uiso   1.00
O1518  O     0.50000   0.56011   0.79375   0.00000  Uiso   1.00
O1519  O     0.50000   0.43988   0.79372   0.00000  Uiso   1.00
O1520  O     0.50000   0.56012   0.87294   0.00000  Uiso   1.00
O1521  O     0.42495   0.50000   0.86379   0.00000  Uiso   1.00
O1522  O     0.57505   0.50000   0.80288   0.00000  Uiso   1.00
O1523  O     0.42494   0.49999   0.78460   0.00000  Uiso   1.00
O1524  O     0.57506   0.50001   0.88207   0.00000  Uiso   1.00
C1525  C     0.65895   0.44031   0.82566   0.00000  Uiso   1.00
C1526  C     0.34804   0.41371   0.79158   0.00000  Uiso   1.00
H1527  H     0.34161   0.42677   0.75622   0.00000  Uiso   1.00
H1528  H     0.38972   0.41157   0.80198   0.00000  Uiso   1.00
H1529  H     0.66183   0.38231   0.79211   0.00000  Uiso   1.00
H1530  H     0.33478   0.42790   0.86087   0.00000  Uiso   1.00
H1531  H     0.61644   0.43601   0.81824   0.00000  Uiso   1.00
C1532  C     0.34101   0.55969   0.84094   0.00000  Uiso   1.00
C1533  C     0.65212   0.58624   0.87518   0.00000  Uiso   1.00
H1534  H     0.61045   0.58848   0.86487   0.00000  Uiso   1.00
H1535  H     0.65858   0.57309   0.91049   0.00000  Uiso   1.00
H1536  H     0.33842   0.61762   0.87472   0.00000  Uiso   1.00
H1537  H     0.38354   0.56401   0.84812   0.00000  Uiso   1.00
H1538  H     0.66494   0.57212   0.80580   0.00000  Uiso   1.00
C1539  C     0.53868   0.37737   0.75635   0.00000  Uiso   1.00
N1540  N     0.55792   0.39440   0.72625   0.00000  Uiso   1.00
C1541  C     0.46137   0.62263   0.91033   0.00000  Uiso   1.00
N1542  N     0.44214   0.60561   0.94043   0.00000  Uiso   1.00
C1543  C     0.49965   0.62881   0.74573   0.00000  Uiso   1.00
N1544  N     0.49479   0.61511   0.70895   0.00000  Uiso   1.00
C1545  C     0.50040   0.37120   0.92095   0.00000  Uiso   1.00
N1546  N     0.50526   0.38490   0.95772   0.00000  Uiso   1.00
C1547  C     0.44362   0.43702   0.71040   0.00000  Uiso   1.00
N1548  N     0.42451   0.40705   0.72495   0.00000  Uiso   1.00
C1549  C     0.55641   0.56297   0.95627   0.00000  Uiso   1.00
N1550  N     0.57554   0.59293   0.94173   0.00000  Uiso   1.00
C1551  C     0.42059   0.44938   0.94733   0.00000  Uiso   1.00
C1552  C     0.37030   0.46962   0.95208   0.00000  Uiso   1.00
H1553  H     0.36280   0.47177   0.98902   0.00000  Uiso   1.00
H1554  H     0.37247   0.50094   0.93688   0.00000  Uiso   1.00
H1555  H     0.33708   0.45115   0.93438   0.00000  Uiso   1.00
H1556  H     0.41605   0.41763   0.96103   0.00000  Uiso   1.00
H1557  H     0.42583   0.44471   0.91095   0.00000  Uiso   1.00
C1558  C     0.57942   0.55061   0.71934   0.00000  Uiso   1.00
C1559  C     0.62970   0.53035   0.71461   0.00000  Uiso   1.00
H1560  H     0.62749   0.49902   0.72978   0.00000  Uiso   1.00
H1561  H     0.63722   0.52820   0.67767   0.00000  Uiso   1.00
H1562  H     0.66292   0.54879   0.73233   0.00000  Uiso   1.00
H1563  H     0.58398   0.58235   0.70564   0.00000  Uiso   1.00
H1564  H     0.57417   0.55529   0.75572   0.00000  Uiso   1.00
C1565  C     0.83648   0.42109   0.83399   0.00000  Uiso   1.00
C1566  C     0.83019   0.57892   0.83267   0.00000  Uiso   1.00
C1567  C     0.73516   0.49423   0.82307   0.00000  Uiso   1.00
C1568  C     0.93151   0.50576   0.84359   0.00000  Uiso   1.00
C1569  C     0.67964   0.48547   0.82390   0.00000  Uiso   1.00
C1570  C     0.98703   0.51452   0.84275   0.00000  Uiso   1.00
C1571  C     0.84824   0.35585   0.79433   0.00000  Uiso   1.00
C1572  C     0.81846   0.64415   0.87235   0.00000  Uiso   1.00
C1573  C     0.83793   0.64683   0.79143   0.00000  Uiso   1.00
C1574  C     0.82877   0.35318   0.87524   0.00000  Uiso   1.00
C1575  C     0.82717   0.62368   0.83158   0.00000  Uiso   1.00
C1576  C     0.83952   0.37633   0.83509   0.00000  Uiso   1.00
C1577  C     0.80188   0.47242   0.68938   0.00000  Uiso   1.00
C1578  C     0.86479   0.52758   0.97729   0.00000  Uiso   1.00
C1579  C     0.79918   0.47395   0.97333   0.00000  Uiso   1.00
C1580  C     0.86749   0.52604   0.69333   0.00000  Uiso   1.00
Cu1581 Cu    0.83333   0.50001   0.88022   0.00000  Uiso   1.00
Cu1582 Cu    0.83333   0.49999   0.78645   0.00000  Uiso   1.00
N1583  N     0.83335   0.50001   0.95069   0.00000  Uiso   1.00
N1584  N     0.83332   0.49999   0.71597   0.00000  Uiso   1.00
O1585  O     0.83333   0.43989   0.87291   0.00000  Uiso   1.00
O1586  O     0.83334   0.56011   0.79375   0.00000  Uiso   1.00
O1587  O     0.83333   0.43988   0.79372   0.00000  Uiso   1.00
O1588  O     0.83334   0.56012   0.87294   0.00000  Uiso   1.00
O1589  O     0.75828   0.50000   0.86379   0.00000  Uiso   1.00
O1590  O     0.90839   0.50000   0.80288   0.00000  Uiso   1.00
O1591  O     0.75828   0.49999   0.78460   0.00000  Uiso   1.00
O1592  O     0.90839   0.50001   0.88207   0.00000  Uiso   1.00
C1593  C     0.99228   0.44031   0.82566   0.00000  Uiso   1.00
C1594  C     0.68138   0.41371   0.79158   0.00000  Uiso   1.00
H1595  H     0.67494   0.42677   0.75622   0.00000  Uiso   1.00
H1596  H     0.72305   0.41157   0.80198   0.00000  Uiso   1.00
H1597  H     0.99516   0.38231   0.79211   0.00000  Uiso   1.00
H1598  H     0.66811   0.42790   0.86087   0.00000  Uiso   1.00
H1599  H     0.94978   0.43601   0.81824   0.00000  Uiso   1.00
C1600  C     0.67435   0.55969   0.84094   0.00000  Uiso   1.00
C1601  C     0.98546   0.58624   0.87518   0.00000  Uiso   1.00
H1602  H     0.94378   0.58848   0.86487   0.00000  Uiso   1.00
H1603  H     0.99192   0.57309   0.91049   0.00000  Uiso   1.00
H1604  H     0.67175   0.61762   0.87472   0.00000  Uiso   1.00
H1605  H     0.71687   0.56401   0.84812   0.00000  Uiso   1.00
H1606  H     0.99827   0.57212   0.80580   0.00000  Uiso   1.00
C1607  C     0.87201   0.37737   0.75635   0.00000  Uiso   1.00
N1608  N     0.89125   0.39440   0.72625   0.00000  Uiso   1.00
C1609  C     0.79470   0.62263   0.91033   0.00000  Uiso   1.00
N1610  N     0.77547   0.60561   0.94043   0.00000  Uiso   1.00
C1611  C     0.83298   0.62881   0.74573   0.00000  Uiso   1.00
N1612  N     0.82812   0.61511   0.70895   0.00000  Uiso   1.00
C1613  C     0.83373   0.37120   0.92095   0.00000  Uiso   1.00
N1614  N     0.83859   0.38490   0.95772   0.00000  Uiso   1.00
C1615  C     0.77695   0.43702   0.71040   0.00000  Uiso   1.00
N1616  N     0.75784   0.40705   0.72495   0.00000  Uiso   1.00
C1617  C     0.88974   0.56297   0.95627   0.00000  Uiso   1.00
N1618  N     0.90887   0.59293   0.94173   0.00000  Uiso   1.00
C1619  C     0.75392   0.44938   0.94733   0.00000  Uiso   1.00
C1620  C     0.70363   0.46962   0.95208   0.00000  Uiso   1.00
H1621  H     0.69613   0.47177   0.98902   0.00000  Uiso   1.00
H1622  H     0.70581   0.50094   0.93688   0.00000  Uiso   1.00
H1623  H     0.67041   0.45115   0.93438   0.00000  Uiso   1.00
H1624  H     0.74938   0.41763   0.96103   0.00000  Uiso   1.00
H1625  H     0.75916   0.44471   0.91095   0.00000  Uiso   1.00
C1626  C     0.91275   0.55061   0.71934   0.00000  Uiso   1.00
C1627  C     0.96303   0.53035   0.71461   0.00000  Uiso   1.00
H1628  H     0.96082   0.49902   0.72978   0.00000  Uiso   1.00
H1629  H     0.97055   0.52820   0.67767   0.00000  Uiso   1.00
H1630  H     0.99625   0.54879   0.73233   0.00000  Uiso   1.00
H1631  H     0.91732   0.58235   0.70564   0.00000  Uiso   1.00
H1632  H     0.90751   0.55529   0.75572   0.00000  Uiso   1.00
C1633  C     0.16982   0.75442   0.83399   0.00000  Uiso   1.00
C1634  C     0.16353   0.91225   0.83267   0.00000  Uiso   1.00
C1635  C     0.06850   0.82756   0.82307   0.00000  Uiso   1.00
C1636  C     0.26484   0.83910   0.84359   0.00000  Uiso   1.00
C1637  C     0.01297   0.81881   0.82390   0.00000  Uiso   1.00
C1638  C     0.32036   0.84785   0.84275   0.00000  Uiso   1.00
C1639  C     0.18158   0.68918   0.79433   0.00000  Uiso   1.00
C1640  C     0.15179   0.97749   0.87235   0.00000  Uiso   1.00
C1641  C     0.17127   0.98016   0.79143   0.00000  Uiso   1.00
C1642  C     0.16210   0.68651   0.87524   0.00000  Uiso   1.00
C1643  C     0.16050   0.95701   0.83158   0.00000  Uiso   1.00
C1644  C     0.17286   0.70966   0.83509   0.00000  Uiso   1.00
C1645  C     0.13521   0.80575   0.68938   0.00000  Uiso   1.00
C1646  C     0.19812   0.86091   0.97729   0.00000  Uiso   1.00
C1647  C     0.13251   0.80729   0.97333   0.00000  Uiso   1.00
C1648  C     0.20082   0.85938   0.69333   0.00000  Uiso   1.00
Cu1649 Cu    0.16667   0.83334   0.88022   0.00000  Uiso   1.00
Cu1650 Cu    0.16667   0.83333   0.78645   0.00000  Uiso   1.00
N1651  N     0.16668   0.83334   0.95069   0.00000  Uiso   1.00
N1652  N     0.16665   0.83332   0.71597   0.00000  Uiso   1.00
O1653  O     0.16666   0.77322   0.87291   0.00000  Uiso   1.00
O1654  O     0.16667   0.89345   0.79375   0.00000  Uiso   1.00
O1655  O     0.16666   0.77321   0.79372   0.00000  Uiso   1.00
O1656  O     0.16667   0.89346   0.87294   0.00000  Uiso   1.00
O1657  O     0.09161   0.83334   0.86379   0.00000  Uiso   1.00
O1658  O     0.24172   0.83333   0.80288   0.00000  Uiso   1.00
O1659  O     0.09161   0.83333   0.78460   0.00000  Uiso   1.00
O1660  O     0.24172   0.83334   0.88207   0.00000  Uiso   1.00
C1661  C     0.32562   0.77365   0.82566   0.00000  Uiso   1.00
C1662  C     0.01471   0.74705   0.79158   0.00000  Uiso   1.00
H1663  H     0.00827   0.76010   0.75622   0.00000  Uiso   1.00
H1664  H     0.05639   0.74490   0.80198   0.00000  Uiso   1.00
H1665  H     0.32850   0.71564   0.79211   0.00000  Uiso   1.00
H1666  H     0.00144   0.76123   0.86087   0.00000  Uiso   1.00
H1667  H     0.28311   0.76935   0.81824   0.00000  Uiso   1.00
C1668  C     0.00768   0.89302   0.84094   0.00000  Uiso   1.00
C1669  C     0.31879   0.91958   0.87518   0.00000  Uiso   1.00
H1670  H     0.27711   0.92182   0.86487   0.00000  Uiso   1.00
H1671  H     0.32525   0.90642   0.91049   0.00000  Uiso   1.00
H1672  H     0.00508   0.95095   0.87472   0.00000  Uiso   1.00
H1673  H     0.05020   0.89735   0.84812   0.00000  Uiso   1.00
H1674  H     0.33160   0.90545   0.80580   0.00000  Uiso   1.00
C1675  C     0.20535   0.71071   0.75635   0.00000  Uiso   1.00
N1676  N     0.22459   0.72773   0.72625   0.00000  Uiso   1.00
C1677  C     0.12803   0.95597   0.91033   0.00000  Uiso   1.00
N1678  N     0.10881   0.93894   0.94043   0.00000  Uiso   1.00
C1679  C     0.16631   0.96214   0.74573   0.00000  Uiso   1.00
N1680  N     0.16146   0.94844   0.70895   0.00000  Uiso   1.00
C1681  C     0.16706   0.70453   0.92095   0.00000  Uiso   1.00
N1682  N     0.17193   0.71823   0.95772   0.00000  Uiso   1.00
C1683  C     0.11028   0.77035   0.71040   0.00000  Uiso   1.00
N1684  N     0.09118   0.74038   0.72495   0.00000  Uiso   1.00
C1685  C     0.22308   0.89630   0.95627   0.00000  Uiso   1.00
N1686  N     0.24221   0.92626   0.94173   0.00000  Uiso   1.00
C1687  C     0.08726   0.78271   0.94733   0.00000  Uiso   1.00
C1688  C     0.03697   0.80295   0.95208   0.00000  Uiso   1.00
H1689  H     0.02947   0.80511   0.98902   0.00000  Uiso   1.00
H1690  H     0.03914   0.83428   0.93688   0.00000  Uiso   1.00
H1691  H     0.00374   0.78448   0.93438   0.00000  Uiso   1.00
H1692  H     0.08272   0.75097   0.96103   0.00000  Uiso   1.00
H1693  H     0.09249   0.77804   0.91095   0.00000  Uiso   1.00
C1694  C     0.24609   0.88394   0.71934   0.00000  Uiso   1.00
C1695  C     0.29636   0.86368   0.71461   0.00000  Uiso   1.00
H1696  H     0.29415   0.83235   0.72978   0.00000  Uiso   1.00
H1697  H     0.30389   0.86153   0.67767   0.00000  Uiso   1.00
H1698  H     0.32959   0.88212   0.73233   0.00000  Uiso   1.00
H1699  H     0.25065   0.91568   0.70564   0.00000  Uiso   1.00
H1700  H     0.24084   0.88862   0.75572   0.00000  Uiso   1.00
C1701  C     0.50315   0.75442   0.83399   0.00000  Uiso   1.00
C1702  C     0.49686   0.91225   0.83267   0.00000  Uiso   1.00
C1703  C     0.40183   0.82756   0.82307   0.00000  Uiso   1.00
C1704  C     0.59817   0.83910   0.84359   0.00000  Uiso   1.00
C1705  C     0.34630   0.81881   0.82390   0.00000  Uiso   1.00
C1706  C     0.65370   0.84785   0.84275   0.00000  Uiso   1.00
C1707  C     0.51491   0.68918   0.79433   0.00000  Uiso   1.00
C1708  C     0.48512   0.97749   0.87235   0.00000  Uiso   1.00
C1709  C     0.50460   0.98016   0.79143   0.00000  Uiso   1.00
C1710  C     0.49544   0.68651   0.87524   0.00000  Uiso   1.00
C1711  C     0.49384   0.95701   0.83158   0.00000  Uiso   1.00
C1712  C     0.50619   0.70966   0.83509   0.00000  Uiso   1.00
C1713  C     0.46855   0.80575   0.68938   0.00000  Uiso   1.00
C1714  C     0.53146   0.86091   0.97729   0.00000  Uiso   1.00
C1715  C     0.46585   0.80729   0.97333   0.00000  Uiso   1.00
C1716  C     0.53415   0.85938   0.69333   0.00000  Uiso   1.00
Cu1717 Cu    0.50000   0.83334   0.88022   0.00000  Uiso   1.00
Cu1718 Cu    0.50000   0.83333   0.78645   0.00000  Uiso   1.00
N1719  N     0.50001   0.83334   0.95069   0.00000  Uiso   1.00
N1720  N     0.49999   0.83332   0.71597   0.00000  Uiso   1.00
O1721  O     0.50000   0.77322   0.87291   0.00000  Uiso   1.00
O1722  O     0.50000   0.89345   0.79375   0.00000  Uiso   1.00
O1723  O     0.50000   0.77321   0.79372   0.00000  Uiso   1.00
O1724  O     0.50000   0.89346   0.87294   0.00000  Uiso   1.00
O1725  O     0.42495   0.83334   0.86379   0.00000  Uiso   1.00
O1726  O     0.57505   0.83333   0.80288   0.00000  Uiso   1.00
O1727  O     0.42494   0.83333   0.78460   0.00000  Uiso   1.00
O1728  O     0.57506   0.83334   0.88207   0.00000  Uiso   1.00
C1729  C     0.65895   0.77365   0.82566   0.00000  Uiso   1.00
C1730  C     0.34804   0.74705   0.79158   0.00000  Uiso   1.00
H1731  H     0.34161   0.76010   0.75622   0.00000  Uiso   1.00
H1732  H     0.38972   0.74490   0.80198   0.00000  Uiso   1.00
H1733  H     0.66183   0.71564   0.79211   0.00000  Uiso   1.00
H1734  H     0.33478   0.76123   0.86087   0.00000  Uiso   1.00
H1735  H     0.61644   0.76935   0.81824   0.00000  Uiso   1.00
C1736  C     0.34101   0.89302   0.84094   0.00000  Uiso   1.00
C1737  C     0.65212   0.91958   0.87518   0.00000  Uiso   1.00
H1738  H     0.61045   0.92182   0.86487   0.00000  Uiso   1.00
H1739  H     0.65858   0.90642   0.91049   0.00000  Uiso   1.00
H1740  H     0.33842   0.95095   0.87472   0.00000  Uiso   1.00
H1741  H     0.38354   0.89735   0.84812   0.00000  Uiso   1.00
H1742  H     0.66494   0.90545   0.80580   0.00000  Uiso   1.00
C1743  C     0.53868   0.71071   0.75635   0.00000  Uiso   1.00
N1744  N     0.55792   0.72773   0.72625   0.00000  Uiso   1.00
C1745  C     0.46137   0.95597   0.91033   0.00000  Uiso   1.00
N1746  N     0.44214   0.93894   0.94043   0.00000  Uiso   1.00
C1747  C     0.49965   0.96214   0.74573   0.00000  Uiso   1.00
N1748  N     0.49479   0.94844   0.70895   0.00000  Uiso   1.00
C1749  C     0.50040   0.70453   0.92095   0.00000  Uiso   1.00
N1750  N     0.50526   0.71823   0.95772   0.00000  Uiso   1.00
C1751  C     0.44362   0.77035   0.71040   0.00000  Uiso   1.00
N1752  N     0.42451   0.74038   0.72495   0.00000  Uiso   1.00
C1753  C     0.55641   0.89630   0.95627   0.00000  Uiso   1.00
N1754  N     0.57554   0.92626   0.94173   0.00000  Uiso   1.00
C1755  C     0.42059   0.78271   0.94733   0.00000  Uiso   1.00
C1756  C     0.37030   0.80295   0.95208   0.00000  Uiso   1.00
H1757  H     0.36280   0.80511   0.98902   0.00000  Uiso   1.00
H1758  H     0.37247   0.83428   0.93688   0.00000  Uiso   1.00
H1759  H     0.33708   0.78448   0.93438   0.00000  Uiso   1.00
H1760  H     0.41605   0.75097   0.96103   0.00000  Uiso   1.00
H1761  H     0.42583   0.77804   0.91095   0.00000  Uiso   1.00
C1762  C     0.57942   0.88394   0.71934   0.00000  Uiso   1.00
C1763  C     0.62970   0.86368   0.71461   0.00000  Uiso   1.00
H1764  H     0.62749   0.83235   0.72978   0.00000  Uiso   1.00
H1765  H     0.63722   0.86153   0.67767   0.00000  Uiso   1.00
H1766  H     0.66292   0.88212   0.73233   0.00000  Uiso   1.00
H1767  H     0.58398   0.91568   0.70564   0.00000  Uiso   1.00
H1768  H     0.57417   0.88862   0.75572   0.00000  Uiso   1.00
C1769  C     0.83648   0.75442   0.83399   0.00000  Uiso   1.00
C1770  C     0.83019   0.91225   0.83267   0.00000  Uiso   1.00
C1771  C     0.73516   0.82756   0.82307   0.00000  Uiso   1.00
C1772  C     0.93151   0.83910   0.84359   0.00000  Uiso   1.00
C1773  C     0.67964   0.81881   0.82390   0.00000  Uiso   1.00
C1774  C     0.98703   0.84785   0.84275   0.00000  Uiso   1.00
C1775  C     0.84824   0.68918   0.79433   0.00000  Uiso   1.00
C1776  C     0.81846   0.97749   0.87235   0.00000  Uiso   1.00
C1777  C     0.83793   0.98016   0.79143   0.00000  Uiso   1.00
C1778  C     0.82877   0.68651   0.87524   0.00000  Uiso   1.00
C1779  C     0.82717   0.95701   0.83158   0.00000  Uiso   1.00
C1780  C     0.83952   0.70966   0.83509   0.00000  Uiso   1.00
C1781  C     0.80188   0.80575   0.68938   0.00000  Uiso   1.00
C1782  C     0.86479   0.86091   0.97729   0.00000  Uiso   1.00
C1783  C     0.79918   0.80729   0.97333   0.00000  Uiso   1.00
C1784  C     0.86749   0.85938   0.69333   0.00000  Uiso   1.00
Cu1785 Cu    0.83333   0.83334   0.88022   0.00000  Uiso   1.00
Cu1786 Cu    0.83333   0.83333   0.78645   0.00000  Uiso   1.00
N1787  N     0.83335   0.83334   0.95069   0.00000  Uiso   1.00
N1788  N     0.83332   0.83332   0.71597   0.00000  Uiso   1.00
O1789  O     0.83333   0.77322   0.87291   0.00000  Uiso   1.00
O1790  O     0.83334   0.89345   0.79375   0.00000  Uiso   1.00
O1791  O     0.83333   0.77321   0.79372   0.00000  Uiso   1.00
O1792  O     0.83334   0.89346   0.87294   0.00000  Uiso   1.00
O1793  O     0.75828   0.83334   0.86379   0.00000  Uiso   1.00
O1794  O     0.90839   0.83333   0.80288   0.00000  Uiso   1.00
O1795  O     0.75828   0.83333   0.78460   0.00000  Uiso   1.00
O1796  O     0.90839   0.83334   0.88207   0.00000  Uiso   1.00
C1797  C     0.99228   0.77365   0.82566   0.00000  Uiso   1.00
C1798  C     0.68138   0.74705   0.79158   0.00000  Uiso   1.00
H1799  H     0.67494   0.76010   0.75622   0.00000  Uiso   1.00
H1800  H     0.72305   0.74490   0.80198   0.00000  Uiso   1.00
H1801  H     0.99516   0.71564   0.79211   0.00000  Uiso   1.00
H1802  H     0.66811   0.76123   0.86087   0.00000  Uiso   1.00
H1803  H     0.94978   0.76935   0.81824   0.00000  Uiso   1.00
C1804  C     0.67435   0.89302   0.84094   0.00000  Uiso   1.00
C1805  C     0.98546   0.91958   0.87518   0.00000  Uiso   1.00
H1806  H     0.94378   0.92182   0.86487   0.00000  Uiso   1.00
H1807  H     0.99192   0.90642   0.91049   0.00000  Uiso   1.00
H1808  H     0.67175   0.95095   0.87472   0.00000  Uiso   1.00
H1809  H     0.71687   0.89735   0.84812   0.00000  Uiso   1.00
H1810  H     0.99827   0.90545   0.80580   0.00000  Uiso   1.00
C1811  C     0.87201   0.71071   0.75635   0.00000  Uiso   1.00
N1812  N     0.89125   0.72773   0.72625   0.00000  Uiso   1.00
C1813  C     0.79470   0.95597   0.91033   0.00000  Uiso   1.00
N1814  N     0.77547   0.93894   0.94043   0.00000  Uiso   1.00
C1815  C     0.83298   0.96214   0.74573   0.00000  Uiso   1.00
N1816  N     0.82812   0.94844   0.70895   0.00000  Uiso   1.00
C1817  C     0.83373   0.70453   0.92095   0.00000  Uiso   1.00
N1818  N     0.83859   0.71823   0.95772   0.00000  Uiso   1.00
C1819  C     0.77695   0.77035   0.71040   0.00000  Uiso   1.00
N1820  N     0.75784   0.74038   0.72495   0.00000  Uiso   1.00
C1821  C     0.88974   0.89630   0.95627   0.00000  Uiso   1.00
N1822  N     0.90887   0.92626   0.94173   0.00000  Uiso   1.00
C1823  C     0.75392   0.78271   0.94733   0.00000  Uiso   1.00
C1824  C     0.70363   0.80295   0.95208   0.00000  Uiso   1.00
H1825  H     0.69613   0.80511   0.98902   0.00000  Uiso   1.00
H1826  H     0.70581   0.83428   0.93688   0.00000  Uiso   1.00
H1827  H     0.67041   0.78448   0.93438   0.00000  Uiso   1.00
H1828  H     0.74938   0.75097   0.96103   0.00000  Uiso   1.00
H1829  H     0.75916   0.77804   0.91095   0.00000  Uiso   1.00
C1830  C     0.91275   0.88394   0.71934   0.00000  Uiso   1.00
C1831  C     0.96303   0.86368   0.71461   0.00000  Uiso   1.00
H1832  H     0.96082   0.83235   0.72978   0.00000  Uiso   1.00
H1833  H     0.97055   0.86153   0.67767   0.00000  Uiso   1.00
H1834  H     0.99625   0.88212   0.73233   0.00000  Uiso   1.00
H1835  H     0.91732   0.91568   0.70564   0.00000  Uiso   1.00
H1836  H     0.90751   0.88862   0.75572   0.00000  Uiso   1.00
loop_
_geom_bond_atom_site_label_1
_geom_bond_atom_site_label_2
_geom_bond_distance
_geom_bond_site_symmetry_2
_ccdc_geom_bond_type
C1     O21     1.306   .     A
C1     C12     1.475   .     S
C1     O23     1.312   .     A
C2     O22     1.306   .     A
C2     C11     1.475   .     S
C2     O24     1.312   .     A
C3     C5      1.454   .     S
C3     O27     1.317   .     A
C3     O25     1.289   .     A
C4     O26     1.289   .     A
C4     C6      1.453   .     S
C4     O28     1.317   .     A
C5     C142    1.358   1_455 S
C5     C165    1.535   1_455 S
C6     C73     1.358   .     S
C6     C104    1.535   .     S
C7     C43     1.455   .     S
C7     C12     1.412   .     A
C7     C417    1.394   1_545 S
C8     C11     1.412   .     A
C8     C45     1.455   .     S
C8     C214    1.394   .     S
C9     C11     1.417   .     A
C9     C47     1.451   .     S
C9     C211    1.394   .     S
C10    C49     1.451   .     S
C10    C12     1.417   .     A
C10    C416    1.394   1_545 S
C13    C51     1.437   .     S
C13    N20     1.369   .     A
C13    C1239   1.429   1_554 S
C14    C53     1.437   .     S
C14    N19     1.369   .     A
C14    C628    1.429   .     S
C15    N19     1.383   .     A
C15    C55     1.523   .     S
C15    C625    1.429   .     S
C16    N20     1.383   .     A
C16    C62     1.523   .     S
C16    C1238   1.429   1_554 S
Cu17   O25     1.972   .     S
Cu17   Cu18    2.721   .     S
Cu17   N19     2.045   .     S
Cu17   O24     1.978   .     S
Cu17   O28     1.951   .     S
Cu17   O21     1.984   .     S
Cu18   O26     1.972   .     S
Cu18   N20     2.045   .     S
Cu18   O22     1.984   .     S
Cu18   O27     1.951   .     S
Cu18   O23     1.978   .     S
C29    H35     1.107   .     S
C29    C73     1.535   .     S
C29    C98     1.512   .     S
C29    H102    1.108   .     S
C30    H32     1.109   .     S
C30    H31     1.110   .     S
C30    C165    1.512   1_455 S
C30    H169    1.111   1_455 S
H33    C98     1.111   .     S
H34    C165    1.108   1_455 S
C36    H41     1.107   .     S
C36    C142    1.535   1_455 S
C36    C173    1.511   1_455 S
C36    H178    1.108   1_455 S
C37    H39     1.110   .     S
C37    H38     1.109   .     S
C37    C104    1.511   .     S
C37    H108    1.111   .     S
H40    C173    1.111   1_455 S
H42    C104    1.108   .     S
C43    N44     1.158   .     T
C45    N46     1.158   .     T
C47    N48     1.157   .     T
C49    N50     1.157   .     T
C51    N52     1.155   .     T
C53    N54     1.155   .     T
C55    C56     1.532   .     S
C55    H60     1.109   .     S
C55    H61     1.091   .     S
C56    H59     1.108   .     S
C56    H57     1.110   .     S
C56    H58     1.110   .     S
C62    H68     1.091   .     S
C62    C63     1.532   .     S
C62    H67     1.109   .     S
C63    H65     1.110   .     S
C63    H66     1.108   .     S
C63    H64     1.110   .     S
C69    O89     1.306   .     A
C69    C80     1.475   .     S
C69    O91     1.312   .     A
C70    O90     1.306   .     A
C70    C79     1.475   .     S
C70    O92     1.312   .     A
C71    C73     1.454   .     S
C71    O95     1.317   .     A
C71    O93     1.289   .     A
C72    O94     1.289   .     A
C72    C74     1.453   .     S
C72    O96     1.317   .     A
C74    C141    1.358   .     S
C74    C172    1.535   .     S
C75    C111    1.455   .     S
C75    C80     1.412   .     A
C75    C485    1.394   1_545 S
C76    C79     1.412   .     A
C76    C113    1.455   .     S
C76    C282    1.394   .     S
C77    C79     1.417   .     A
C77    C115    1.451   .     S
C77    C279    1.394   .     S
C78    C117    1.451   .     S
C78    C80     1.417   .     A
C78    C484    1.394   1_545 S
C81    C119    1.437   .     S
C81    N88     1.369   .     A
C81    C1307   1.429   1_554 S
C82    C121    1.437   .     S
C82    N87     1.369   .     A
C82    C696    1.429   .     S
C83    N87     1.383   .     A
C83    C123    1.523   .     S
C83    C693    1.429   .     S
C84    N88     1.383   .     A
C84    C130    1.523   .     S
C84    C1306   1.429   1_554 S
Cu85   O93     1.972   .     S
Cu85   Cu86    2.721   .     S
Cu85   N87     2.045   .     S
Cu85   O92     1.978   .     S
Cu85   O96     1.951   .     S
Cu85   O89     1.984   .     S
Cu86   O94     1.972   .     S
Cu86   N88     2.045   .     S
Cu86   O90     1.984   .     S
Cu86   O95     1.951   .     S
Cu86   O91     1.978   .     S
C97    H103    1.107   .     S
C97    C141    1.535   .     S
C97    C166    1.512   .     S
C97    H170    1.108   .     S
C98    H100    1.109   .     S
C98    H99     1.110   .     S
H101   C166    1.111   .     S
C104   H109    1.107   .     S
C105   H107    1.110   .     S
C105   H106    1.109   .     S
C105   C172    1.511   .     S
C105   H176    1.111   .     S
H110   C172    1.108   .     S
C111   N112    1.158   .     T
C113   N114    1.158   .     T
C115   N116    1.157   .     T
C117   N118    1.157   .     T
C119   N120    1.155   .     T
C121   N122    1.155   .     T
C123   C124    1.532   .     S
C123   H128    1.109   .     S
C123   H129    1.091   .     S
C124   H127    1.108   .     S
C124   H125    1.110   .     S
C124   H126    1.110   .     S
C130   H136    1.091   .     S
C130   C131    1.532   .     S
C130   H135    1.109   .     S
C131   H133    1.110   .     S
C131   H134    1.108   .     S
C131   H132    1.110   .     S
C137   O157    1.306   .     A
C137   C148    1.475   .     S
C137   O159    1.312   .     A
C138   O158    1.306   .     A
C138   C147    1.475   .     S
C138   O160    1.312   .     A
C139   C141    1.454   .     S
C139   O163    1.317   .     A
C139   O161    1.289   .     A
C140   O162    1.289   .     A
C140   C142    1.453   .     S
C140   O164    1.317   .     A
C142   C5      1.358   1_655 S
C142   C36     1.535   1_655 S
C143   C179    1.455   .     S
C143   C148    1.412   .     A
C143   C553    1.394   1_545 S
C144   C147    1.412   .     A
C144   C181    1.455   .     S
C144   C350    1.394   .     S
C145   C147    1.417   .     A
C145   C183    1.451   .     S
C145   C347    1.394   .     S
C146   C185    1.451   .     S
C146   C148    1.417   .     A
C146   C552    1.394   1_545 S
C149   C187    1.437   .     S
C149   N156    1.369   .     A
C149   C1375   1.429   1_554 S
C150   C189    1.437   .     S
C150   N155    1.369   .     A
C150   C764    1.429   .     S
C151   N155    1.383   .     A
C151   C191    1.523   .     S
C151   C761    1.429   .     S
C152   N156    1.383   .     A
C152   C198    1.523   .     S
C152   C1374   1.429   1_554 S
Cu153  O161    1.972   .     S
Cu153  Cu154   2.721   .     S
Cu153  N155    2.045   .     S
Cu153  O160    1.978   .     S
Cu153  O164    1.951   .     S
Cu153  O157    1.984   .     S
Cu154  O162    1.972   .     S
Cu154  N156    2.045   .     S
Cu154  O158    1.984   .     S
Cu154  O163    1.951   .     S
Cu154  O159    1.978   .     S
C165   H171    1.107   .     S
C165   C5      1.535   1_655 S
C165   C30     1.512   1_655 S
C165   H34     1.108   1_655 S
C166   H168    1.109   .     S
C166   H167    1.110   .     S
H169   C30     1.111   1_655 S
C172   H177    1.107   .     S
C173   H175    1.110   .     S
C173   H174    1.109   .     S
C173   C36     1.511   1_655 S
C173   H40     1.111   1_655 S
H178   C36     1.108   1_655 S
C179   N180    1.158   .     T
C181   N182    1.158   .     T
C183   N184    1.157   .     T
C185   N186    1.157   .     T
C187   N188    1.155   .     T
C189   N190    1.155   .     T
C191   C192    1.532   .     S
C191   H196    1.109   .     S
C191   H197    1.091   .     S
C192   H195    1.108   .     S
C192   H193    1.110   .     S
C192   H194    1.110   .     S
C198   H204    1.091   .     S
C198   C199    1.532   .     S
C198   H203    1.109   .     S
C199   H201    1.110   .     S
C199   H202    1.108   .     S
C199   H200    1.110   .     S
C205   O225    1.306   .     A
C205   C216    1.475   .     S
C205   O227    1.312   .     A
C206   O226    1.306   .     A
C206   C215    1.475   .     S
C206   O228    1.312   .     A
C207   C209    1.454   .     S
C207   O231    1.317   .     A
C207   O229    1.289   .     A
C208   O230    1.289   .     A
C208   C210    1.453   .     S
C208   O232    1.317   .     A
C209   C346    1.358   1_455 S
C209   C369    1.535   1_455 S
C210   C277    1.358   .     S
C210   C308    1.535   .     S
C211   C247    1.455   .     S
C211   C216    1.412   .     A
C212   C215    1.412   .     A
C212   C249    1.455   .     S
C212   C418    1.394   .     S
C213   C215    1.417   .     A
C213   C251    1.451   .     S
C213   C415    1.394   .     S
C214   C253    1.451   .     S
C214   C216    1.417   .     A
C217   C255    1.437   .     S
C217   N224    1.369   .     A
C217   C1443   1.429   1_554 S
C218   C257    1.437   .     S
C218   N223    1.369   .     A
C218   C832    1.429   .     S
C219   N223    1.383   .     A
C219   C259    1.523   .     S
C219   C829    1.429   .     S
C220   N224    1.383   .     A
C220   C266    1.523   .     S
C220   C1442   1.429   1_554 S
Cu221  O229    1.972   .     S
Cu221  Cu222   2.721   .     S
Cu221  N223    2.045   .     S
Cu221  O228    1.978   .     S
Cu221  O232    1.951   .     S
Cu221  O225    1.984   .     S
Cu222  O230    1.972   .     S
Cu222  N224    2.045   .     S
Cu222  O226    1.984   .     S
Cu222  O231    1.951   .     S
Cu222  O227    1.978   .     S
C233   H239    1.107   .     S
C233   C277    1.535   .     S
C233   C302    1.512   .     S
C233   H306    1.108   .     S
C234   H236    1.109   .     S
C234   H235    1.110   .     S
C234   C369    1.512   1_455 S
C234   H373    1.111   1_455 S
H237   C302    1.111   .     S
H238   C369    1.108   1_455 S
C240   H245    1.107   .     S
C240   C346    1.535   1_455 S
C240   C377    1.511   1_455 S
C240   H382    1.108   1_455 S
C241   H243    1.110   .     S
C241   H242    1.109   .     S
C241   C308    1.511   .     S
C241   H312    1.111   .     S
H244   C377    1.111   1_455 S
H246   C308    1.108   .     S
C247   N248    1.158   .     T
C249   N250    1.158   .     T
C251   N252    1.157   .     T
C253   N254    1.157   .     T
C255   N256    1.155   .     T
C257   N258    1.155   .     T
C259   C260    1.532   .     S
C259   H264    1.109   .     S
C259   H265    1.091   .     S
C260   H263    1.108   .     S
C260   H261    1.110   .     S
C260   H262    1.110   .     S
C266   H272    1.091   .     S
C266   C267    1.532   .     S
C266   H271    1.109   .     S
C267   H269    1.110   .     S
C267   H270    1.108   .     S
C267   H268    1.110   .     S
C273   O293    1.306   .     A
C273   C284    1.475   .     S
C273   O295    1.312   .     A
C274   O294    1.306   .     A
C274   C283    1.475   .     S
C274   O296    1.312   .     A
C275   C277    1.454   .     S
C275   O299    1.317   .     A
C275   O297    1.289   .     A
C276   O298    1.289   .     A
C276   C278    1.453   .     S
C276   O300    1.317   .     A
C278   C345    1.358   .     S
C278   C376    1.535   .     S
C279   C315    1.455   .     S
C279   C284    1.412   .     A
C280   C283    1.412   .     A
C280   C317    1.455   .     S
C280   C486    1.394   .     S
C281   C283    1.417   .     A
C281   C319    1.451   .     S
C281   C483    1.394   .     S
C282   C321    1.451   .     S
C282   C284    1.417   .     A
C285   C323    1.437   .     S
C285   N292    1.369   .     A
C285   C1511   1.429   1_554 S
C286   C325    1.437   .     S
C286   N291    1.369   .     A
C286   C900    1.429   .     S
C287   N291    1.383   .     A
C287   C327    1.523   .     S
C287   C897    1.429   .     S
C288   N292    1.383   .     A
C288   C334    1.523   .     S
C288   C1510   1.429   1_554 S
Cu289  O297    1.972   .     S
Cu289  Cu290   2.721   .     S
Cu289  N291    2.045   .     S
Cu289  O296    1.978   .     S
Cu289  O300    1.951   .     S
Cu289  O293    1.984   .     S
Cu290  O298    1.972   .     S
Cu290  N292    2.045   .     S
Cu290  O294    1.984   .     S
Cu290  O299    1.951   .     S
Cu290  O295    1.978   .     S
C301   H307    1.107   .     S
C301   C345    1.535   .     S
C301   C370    1.512   .     S
C301   H374    1.108   .     S
C302   H304    1.109   .     S
C302   H303    1.110   .     S
H305   C370    1.111   .     S
C308   H313    1.107   .     S
C309   H311    1.110   .     S
C309   H310    1.109   .     S
C309   C376    1.511   .     S
C309   H380    1.111   .     S
H314   C376    1.108   .     S
C315   N316    1.158   .     T
C317   N318    1.158   .     T
C319   N320    1.157   .     T
C321   N322    1.157   .     T
C323   N324    1.155   .     T
C325   N326    1.155   .     T
C327   C328    1.532   .     S
C327   H332    1.109   .     S
C327   H333    1.091   .     S
C328   H331    1.108   .     S
C328   H329    1.110   .     S
C328   H330    1.110   .     S
C334   H340    1.091   .     S
C334   C335    1.532   .     S
C334   H339    1.109   .     S
C335   H337    1.110   .     S
C335   H338    1.108   .     S
C335   H336    1.110   .     S
C341   O361    1.306   .     A
C341   C352    1.475   .     S
C341   O363    1.312   .     A
C342   O362    1.306   .     A
C342   C351    1.475   .     S
C342   O364    1.312   .     A
C343   C345    1.454   .     S
C343   O367    1.317   .     A
C343   O365    1.289   .     A
C344   O366    1.289   .     A
C344   C346    1.453   .     S
C344   O368    1.317   .     A
C346   C209    1.358   1_655 S
C346   C240    1.535   1_655 S
C347   C383    1.455   .     S
C347   C352    1.412   .     A
C348   C351    1.412   .     A
C348   C385    1.455   .     S
C348   C554    1.394   .     S
C349   C351    1.417   .     A
C349   C387    1.451   .     S
C349   C551    1.394   .     S
C350   C389    1.451   .     S
C350   C352    1.417   .     A
C353   C391    1.437   .     S
C353   N360    1.369   .     A
C353   C1579   1.429   1_554 S
C354   C393    1.437   .     S
C354   N359    1.369   .     A
C354   C968    1.429   .     S
C355   N359    1.383   .     A
C355   C395    1.523   .     S
C355   C965    1.429   .     S
C356   N360    1.383   .     A
C356   C402    1.523   .     S
C356   C1578   1.429   1_554 S
Cu357  O365    1.972   .     S
Cu357  Cu358   2.721   .     S
Cu357  N359    2.045   .     S
Cu357  O364    1.978   .     S
Cu357  O368    1.951   .     S
Cu357  O361    1.984   .     S
Cu358  O366    1.972   .     S
Cu358  N360    2.045   .     S
Cu358  O362    1.984   .     S
Cu358  O367    1.951   .     S
Cu358  O363    1.978   .     S
C369   H375    1.107   .     S
C369   C209    1.535   1_655 S
C369   C234    1.512   1_655 S
C369   H238    1.108   1_655 S
C370   H372    1.109   .     S
C370   H371    1.110   .     S
H373   C234    1.111   1_655 S
C376   H381    1.107   .     S
C377   H379    1.110   .     S
C377   H378    1.109   .     S
C377   C240    1.511   1_655 S
C377   H244    1.111   1_655 S
H382   C240    1.108   1_655 S
C383   N384    1.158   .     T
C385   N386    1.158   .     T
C387   N388    1.157   .     T
C389   N390    1.157   .     T
C391   N392    1.155   .     T
C393   N394    1.155   .     T
C395   C396    1.532   .     S
C395   H400    1.109   .     S
C395   H401    1.091   .     S
C396   H399    1.108   .     S
C396   H397    1.110   .     S
C396   H398    1.110   .     S
C402   H408    1.091   .     S
C402   C403    1.532   .     S
C402   H407    1.109   .     S
C403   H405    1.110   .     S
C403   H406    1.108   .     S
C403   H404    1.110   .     S
C409   O429    1.306   .     A
C409   C420    1.475   .     S
C409   O431    1.312   .     A
C410   O430    1.306   .     A
C410   C419    1.475   .     S
C410   O432    1.312   .     A
C411   C413    1.454   .     S
C411   O435    1.317   .     A
C411   O433    1.289   .     A
C412   O434    1.289   .     A
C412   C414    1.453   .     S
C412   O436    1.317   .     A
C413   C550    1.358   1_455 S
C413   C573    1.535   1_455 S
C414   C481    1.358   .     S
C414   C512    1.535   .     S
C415   C451    1.455   .     S
C415   C420    1.412   .     A
C416   C419    1.412   .     A
C416   C453    1.455   .     S
C416   C10     1.394   1_565 S
C417   C419    1.417   .     A
C417   C455    1.451   .     S
C417   C7      1.394   1_565 S
C418   C457    1.451   .     S
C418   C420    1.417   .     A
C421   C459    1.437   .     S
C421   N428    1.369   .     A
C421   C1647   1.429   1_554 S
C422   C461    1.437   .     S
C422   N427    1.369   .     A
C422   C1036   1.429   .     S
C423   N427    1.383   .     A
C423   C463    1.523   .     S
C423   C1033   1.429   .     S
C424   N428    1.383   .     A
C424   C470    1.523   .     S
C424   C1646   1.429   1_554 S
Cu425  O433    1.972   .     S
Cu425  Cu426   2.721   .     S
Cu425  N427    2.045   .     S
Cu425  O432    1.978   .     S
Cu425  O436    1.951   .     S
Cu425  O429    1.984   .     S
Cu426  O434    1.972   .     S
Cu426  N428    2.045   .     S
Cu426  O430    1.984   .     S
Cu426  O435    1.951   .     S
Cu426  O431    1.978   .     S
C437   H443    1.107   .     S
C437   C481    1.535   .     S
C437   C506    1.512   .     S
C437   H510    1.108   .     S
C438   H440    1.109   .     S
C438   H439    1.110   .     S
C438   C573    1.512   1_455 S
C438   H577    1.111   1_455 S
H441   C506    1.111   .     S
H442   C573    1.108   1_455 S
C444   H449    1.107   .     S
C444   C550    1.535   1_455 S
C444   C581    1.511   1_455 S
C444   H586    1.108   1_455 S
C445   H447    1.110   .     S
C445   H446    1.109   .     S
C445   C512    1.511   .     S
C445   H516    1.111   .     S
H448   C581    1.111   1_455 S
H450   C512    1.108   .     S
C451   N452    1.158   .     T
C453   N454    1.158   .     T
C455   N456    1.157   .     T
C457   N458    1.157   .     T
C459   N460    1.155   .     T
C461   N462    1.155   .     T
C463   C464    1.532   .     S
C463   H468    1.109   .     S
C463   H469    1.091   .     S
C464   H467    1.108   .     S
C464   H465    1.110   .     S
C464   H466    1.110   .     S
C470   H476    1.091   .     S
C470   C471    1.532   .     S
C470   H475    1.109   .     S
C471   H473    1.110   .     S
C471   H474    1.108   .     S
C471   H472    1.110   .     S
C477   O497    1.306   .     A
C477   C488    1.475   .     S
C477   O499    1.312   .     A
C478   O498    1.306   .     A
C478   C487    1.475   .     S
C478   O500    1.312   .     A
C479   C481    1.454   .     S
C479   O503    1.317   .     A
C479   O501    1.289   .     A
C480   O502    1.289   .     A
C480   C482    1.453   .     S
C480   O504    1.317   .     A
C482   C549    1.358   .     S
C482   C580    1.535   .     S
C483   C519    1.455   .     S
C483   C488    1.412   .     A
C484   C487    1.412   .     A
C484   C521    1.455   .     S
C484   C78     1.394   1_565 S
C485   C487    1.417   .     A
C485   C523    1.451   .     S
C485   C75     1.394   1_565 S
C486   C525    1.451   .     S
C486   C488    1.417   .     A
C489   C527    1.437   .     S
C489   N496    1.369   .     A
C489   C1715   1.429   1_554 S
C490   C529    1.437   .     S
C490   N495    1.369   .     A
C490   C1104   1.429   .     S
C491   N495    1.383   .     A
C491   C531    1.523   .     S
C491   C1101   1.429   .     S
C492   N496    1.383   .     A
C492   C538    1.523   .     S
C492   C1714   1.429   1_554 S
Cu493  O501    1.972   .     S
Cu493  Cu494   2.721   .     S
Cu493  N495    2.045   .     S
Cu493  O500    1.978   .     S
Cu493  O504    1.951   .     S
Cu493  O497    1.984   .     S
Cu494  O502    1.972   .     S
Cu494  N496    2.045   .     S
Cu494  O498    1.984   .     S
Cu494  O503    1.951   .     S
Cu494  O499    1.978   .     S
C505   H511    1.107   .     S
C505   C549    1.535   .     S
C505   C574    1.512   .     S
C505   H578    1.108   .     S
C506   H508    1.109   .     S
C506   H507    1.110   .     S
H509   C574    1.111   .     S
C512   H517    1.107   .     S
C513   H515    1.110   .     S
C513   H514    1.109   .     S
C513   C580    1.511   .     S
C513   H584    1.111   .     S
H518   C580    1.108   .     S
C519   N520    1.158   .     T
C521   N522    1.158   .     T
C523   N524    1.157   .     T
C525   N526    1.157   .     T
C527   N528    1.155   .     T
C529   N530    1.155   .     T
C531   C532    1.532   .     S
C531   H536    1.109   .     S
C531   H537    1.091   .     S
C532   H535    1.108   .     S
C532   H533    1.110   .     S
C532   H534    1.110   .     S
C538   H544    1.091   .     S
C538   C539    1.532   .     S
C538   H543    1.109   .     S
C539   H541    1.110   .     S
C539   H542    1.108   .     S
C539   H540    1.110   .     S
C545   O565    1.306   .     A
C545   C556    1.475   .     S
C545   O567    1.312   .     A
C546   O566    1.306   .     A
C546   C555    1.475   .     S
C546   O568    1.312   .     A
C547   C549    1.454   .     S
C547   O571    1.317   .     A
C547   O569    1.289   .     A
C548   O570    1.289   .     A
C548   C550    1.453   .     S
C548   O572    1.317   .     A
C550   C413    1.358   1_655 S
C550   C444    1.535   1_655 S
C551   C587    1.455   .     S
C551   C556    1.412   .     A
C552   C555    1.412   .     A
C552   C589    1.455   .     S
C552   C146    1.394   1_565 S
C553   C555    1.417   .     A
C553   C591    1.451   .     S
C553   C143    1.394   1_565 S
C554   C593    1.451   .     S
C554   C556    1.417   .     A
C557   C595    1.437   .     S
C557   N564    1.369   .     A
C557   C1783   1.429   1_554 S
C558   C597    1.437   .     S
C558   N563    1.369   .     A
C558   C1172   1.429   .     S
C559   N563    1.383   .     A
C559   C599    1.523   .     S
C559   C1169   1.429   .     S
C560   N564    1.383   .     A
C560   C606    1.523   .     S
C560   C1782   1.429   1_554 S
Cu561  O569    1.972   .     S
Cu561  Cu562   2.721   .     S
Cu561  N563    2.045   .     S
Cu561  O568    1.978   .     S
Cu561  O572    1.951   .     S
Cu561  O565    1.984   .     S
Cu562  O570    1.972   .     S
Cu562  N564    2.045   .     S
Cu562  O566    1.984   .     S
Cu562  O571    1.951   .     S
Cu562  O567    1.978   .     S
C573   H579    1.107   .     S
C573   C413    1.535   1_655 S
C573   C438    1.512   1_655 S
C573   H442    1.108   1_655 S
C574   H576    1.109   .     S
C574   H575    1.110   .     S
H577   C438    1.111   1_655 S
C580   H585    1.107   .     S
C581   H583    1.110   .     S
C581   H582    1.109   .     S
C581   C444    1.511   1_655 S
C581   H448    1.111   1_655 S
H586   C444    1.108   1_655 S
C587   N588    1.158   .     T
C589   N590    1.158   .     T
C591   N592    1.157   .     T
C593   N594    1.157   .     T
C595   N596    1.155   .     T
C597   N598    1.155   .     T
C599   C600    1.532   .     S
C599   H604    1.109   .     S
C599   H605    1.091   .     S
C600   H603    1.108   .     S
C600   H601    1.110   .     S
C600   H602    1.110   .     S
C606   H612    1.091   .     S
C606   C607    1.532   .     S
C606   H611    1.109   .     S
C607   H609    1.110   .     S
C607   H610    1.108   .     S
C607   H608    1.110   .     S
C613   O633    1.306   .     A
C613   C624    1.475   .     S
C613   O635    1.312   .     A
C614   O634    1.306   .     A
C614   C623    1.475   .     S
C614   O636    1.312   .     A
C615   C617    1.454   .     S
C615   O639    1.317   .     A
C615   O637    1.289   .     A
C616   O638    1.289   .     A
C616   C618    1.453   .     S
C616   O640    1.317   .     A
C617   C754    1.358   1_455 S
C617   C777    1.535   1_455 S
C618   C685    1.358   .     S
C618   C716    1.535   .     S
C619   C655    1.455   .     S
C619   C624    1.412   .     A
C619   C1029   1.394   1_545 S
C620   C623    1.412   .     A
C620   C657    1.455   .     S
C620   C826    1.394   .     S
C621   C623    1.417   .     A
C621   C659    1.451   .     S
C621   C823    1.394   .     S
C622   C661    1.451   .     S
C622   C624    1.417   .     A
C622   C1028   1.394   1_545 S
C625   C663    1.437   .     S
C625   N632    1.369   .     A
C626   C665    1.437   .     S
C626   N631    1.369   .     A
C626   C1240   1.429   .     S
C627   N631    1.383   .     A
C627   C667    1.523   .     S
C627   C1237   1.429   .     S
C628   N632    1.383   .     A
C628   C674    1.523   .     S
Cu629  O637    1.972   .     S
Cu629  Cu630   2.721   .     S
Cu629  N631    2.045   .     S
Cu629  O636    1.978   .     S
Cu629  O640    1.951   .     S
Cu629  O633    1.984   .     S
Cu630  O638    1.972   .     S
Cu630  N632    2.045   .     S
Cu630  O634    1.984   .     S
Cu630  O639    1.951   .     S
Cu630  O635    1.978   .     S
C641   H647    1.107   .     S
C641   C685    1.535   .     S
C641   C710    1.512   .     S
C641   H714    1.108   .     S
C642   H644    1.109   .     S
C642   H643    1.110   .     S
C642   C777    1.512   1_455 S
C642   H781    1.111   1_455 S
H645   C710    1.111   .     S
H646   C777    1.108   1_455 S
C648   H653    1.107   .     S
C648   C754    1.535   1_455 S
C648   C785    1.511   1_455 S
C648   H790    1.108   1_455 S
C649   H651    1.110   .     S
C649   H650    1.109   .     S
C649   C716    1.511   .     S
C649   H720    1.111   .     S
H652   C785    1.111   1_455 S
H654   C716    1.108   .     S
C655   N656    1.158   .     T
C657   N658    1.158   .     T
C659   N660    1.157   .     T
C661   N662    1.157   .     T
C663   N664    1.155   .     T
C665   N666    1.155   .     T
C667   C668    1.532   .     S
C667   H672    1.109   .     S
C667   H673    1.091   .     S
C668   H671    1.108   .     S
C668   H669    1.110   .     S
C668   H670    1.110   .     S
C674   H680    1.091   .     S
C674   C675    1.532   .     S
C674   H679    1.109   .     S
C675   H677    1.110   .     S
C675   H678    1.108   .     S
C675   H676    1.110   .     S
C681   O701    1.306   .     A
C681   C692    1.475   .     S
C681   O703    1.312   .     A
C682   O702    1.306   .     A
C682   C691    1.475   .     S
C682   O704    1.312   .     A
C683   C685    1.454   .     S
C683   O707    1.317   .     A
C683   O705    1.289   .     A
C684   O706    1.289   .     A
C684   C686    1.453   .     S
C684   O708    1.317   .     A
C686   C753    1.358   .     S
C686   C784    1.535   .     S
C687   C723    1.455   .     S
C687   C692    1.412   .     A
C687   C1097   1.394   1_545 S
C688   C691    1.412   .     A
C688   C725    1.455   .     S
C688   C894    1.394   .     S
C689   C691    1.417   .     A
C689   C727    1.451   .     S
C689   C891    1.394   .     S
C690   C729    1.451   .     S
C690   C692    1.417   .     A
C690   C1096   1.394   1_545 S
C693   C731    1.437   .     S
C693   N700    1.369   .     A
C694   C733    1.437   .     S
C694   N699    1.369   .     A
C694   C1308   1.429   .     S
C695   N699    1.383   .     A
C695   C735    1.523   .     S
C695   C1305   1.429   .     S
C696   N700    1.383   .     A
C696   C742    1.523   .     S
Cu697  O705    1.972   .     S
Cu697  Cu698   2.721   .     S
Cu697  N699    2.045   .     S
Cu697  O704    1.978   .     S
Cu697  O708    1.951   .     S
Cu697  O701    1.984   .     S
Cu698  O706    1.972   .     S
Cu698  N700    2.045   .     S
Cu698  O702    1.984   .     S
Cu698  O707    1.951   .     S
Cu698  O703    1.978   .     S
C709   H715    1.107   .     S
C709   C753    1.535   .     S
C709   C778    1.512   .     S
C709   H782    1.108   .     S
C710   H712    1.109   .     S
C710   H711    1.110   .     S
H713   C778    1.111   .     S
C716   H721    1.107   .     S
C717   H719    1.110   .     S
C717   H718    1.109   .     S
C717   C784    1.511   .     S
C717   H788    1.111   .     S
H722   C784    1.108   .     S
C723   N724    1.158   .     T
C725   N726    1.158   .     T
C727   N728    1.157   .     T
C729   N730    1.157   .     T
C731   N732    1.155   .     T
C733   N734    1.155   .     T
C735   C736    1.532   .     S
C735   H740    1.109   .     S
C735   H741    1.091   .     S
C736   H739    1.108   .     S
C736   H737    1.110   .     S
C736   H738    1.110   .     S
C742   H748    1.091   .     S
C742   C743    1.532   .     S
C742   H747    1.109   .     S
C743   H745    1.110   .     S
C743   H746    1.108   .     S
C743   H744    1.110   .     S
C749   O769    1.306   .     A
C749   C760    1.475   .     S
C749   O771    1.312   .     A
C750   O770    1.306   .     A
C750   C759    1.475   .     S
C750   O772    1.312   .     A
C751   C753    1.454   .     S
C751   O775    1.317   .     A
C751   O773    1.289   .     A
C752   O774    1.289   .     A
C752   C754    1.453   .     S
C752   O776    1.317   .     A
C754   C617    1.358   1_655 S
C754   C648    1.535   1_655 S
C755   C791    1.455   .     S
C755   C760    1.412   .     A
C755   C1165   1.394   1_545 S
C756   C759    1.412   .     A
C756   C793    1.455   .     S
C756   C962    1.394   .     S
C757   C759    1.417   .     A
C757   C795    1.451   .     S
C757   C959    1.394   .     S
C758   C797    1.451   .     S
C758   C760    1.417   .     A
C758   C1164   1.394   1_545 S
C761   C799    1.437   .     S
C761   N768    1.369   .     A
C762   C801    1.437   .     S
C762   N767    1.369   .     A
C762   C1376   1.429   .     S
C763   N767    1.383   .     A
C763   C803    1.523   .     S
C763   C1373   1.429   .     S
C764   N768    1.383   .     A
C764   C810    1.523   .     S
Cu765  O773    1.972   .     S
Cu765  Cu766   2.721   .     S
Cu765  N767    2.045   .     S
Cu765  O772    1.978   .     S
Cu765  O776    1.951   .     S
Cu765  O769    1.984   .     S
Cu766  O774    1.972   .     S
Cu766  N768    2.045   .     S
Cu766  O770    1.984   .     S
Cu766  O775    1.951   .     S
Cu766  O771    1.978   .     S
C777   H783    1.107   .     S
C777   C617    1.535   1_655 S
C777   C642    1.512   1_655 S
C777   H646    1.108   1_655 S
C778   H780    1.109   .     S
C778   H779    1.110   .     S
H781   C642    1.111   1_655 S
C784   H789    1.107   .     S
C785   H787    1.110   .     S
C785   H786    1.109   .     S
C785   C648    1.511   1_655 S
C785   H652    1.111   1_655 S
H790   C648    1.108   1_655 S
C791   N792    1.158   .     T
C793   N794    1.158   .     T
C795   N796    1.157   .     T
C797   N798    1.157   .     T
C799   N800    1.155   .     T
C801   N802    1.155   .     T
C803   C804    1.532   .     S
C803   H808    1.109   .     S
C803   H809    1.091   .     S
C804   H807    1.108   .     S
C804   H805    1.110   .     S
C804   H806    1.110   .     S
C810   H816    1.091   .     S
C810   C811    1.532   .     S
C810   H815    1.109   .     S
C811   H813    1.110   .     S
C811   H814    1.108   .     S
C811   H812    1.110   .     S
C817   O837    1.306   .     A
C817   C828    1.475   .     S
C817   O839    1.312   .     A
C818   O838    1.306   .     A
C818   C827    1.475   .     S
C818   O840    1.312   .     A
C819   C821    1.454   .     S
C819   O843    1.317   .     A
C819   O841    1.289   .     A
C820   O842    1.289   .     A
C820   C822    1.453   .     S
C820   O844    1.317   .     A
C821   C958    1.358   1_455 S
C821   C981    1.535   1_455 S
C822   C889    1.358   .     S
C822   C920    1.535   .     S
C823   C859    1.455   .     S
C823   C828    1.412   .     A
C824   C827    1.412   .     A
C824   C861    1.455   .     S
C824   C1030   1.394   .     S
C825   C827    1.417   .     A
C825   C863    1.451   .     S
C825   C1027   1.394   .     S
C826   C865    1.451   .     S
C826   C828    1.417   .     A
C829   C867    1.437   .     S
C829   N836    1.369   .     A
C830   C869    1.437   .     S
C830   N835    1.369   .     A
C830   C1444   1.429   .     S
C831   N835    1.383   .     A
C831   C871    1.523   .     S
C831   C1441   1.429   .     S
C832   N836    1.383   .     A
C832   C878    1.523   .     S
Cu833  O841    1.972   .     S
Cu833  Cu834   2.721   .     S
Cu833  N835    2.045   .     S
Cu833  O840    1.978   .     S
Cu833  O844    1.951   .     S
Cu833  O837    1.984   .     S
Cu834  O842    1.972   .     S
Cu834  N836    2.045   .     S
Cu834  O838    1.984   .     S
Cu834  O843    1.951   .     S
Cu834  O839    1.978   .     S
C845   H851    1.107   .     S
C845   C889    1.535   .     S
C845   C914    1.512   .     S
C845   H918    1.108   .     S
C846   H848    1.109   .     S
C846   H847    1.110   .     S
C846   C981    1.512   1_455 S
C846   H985    1.111   1_455 S
H849   C914    1.111   .     S
H850   C981    1.108   1_455 S
C852   H857    1.107   .     S
C852   C958    1.535   1_455 S
C852   C989    1.511   1_455 S
C852   H994    1.108   1_455 S
C853   H855    1.110   .     S
C853   H854    1.109   .     S
C853   C920    1.511   .     S
C853   H924    1.111   .     S
H856   C989    1.111   1_455 S
H858   C920    1.108   .     S
C859   N860    1.158   .     T
C861   N862    1.158   .     T
C863   N864    1.157   .     T
C865   N866    1.157   .     T
C867   N868    1.155   .     T
C869   N870    1.155   .     T
C871   C872    1.532   .     S
C871   H876    1.109   .     S
C871   H877    1.091   .     S
C872   H875    1.108   .     S
C872   H873    1.110   .     S
C872   H874    1.110   .     S
C878   H884    1.091   .     S
C878   C879    1.532   .     S
C878   H883    1.109   .     S
C879   H881    1.110   .     S
C879   H882    1.108   .     S
C879   H880    1.110   .     S
C885   O905    1.306   .     A
C885   C896    1.475   .     S
C885   O907    1.312   .     A
C886   O906    1.306   .     A
C886   C895    1.475   .     S
C886   O908    1.312   .     A
C887   C889    1.454   .     S
C887   O911    1.317   .     A
C887   O909    1.289   .     A
C888   O910    1.289   .     A
C888   C890    1.453   .     S
C888   O912    1.317   .     A
C890   C957    1.358   .     S
C890   C988    1.535   .     S
C891   C927    1.455   .     S
C891   C896    1.412   .     A
C892   C895    1.412   .     A
C892   C929    1.455   .     S
C892   C1098   1.394   .     S
C893   C895    1.417   .     A
C893   C931    1.451   .     S
C893   C1095   1.394   .     S
C894   C933    1.451   .     S
C894   C896    1.417   .     A
C897   C935    1.437   .     S
C897   N904    1.369   .     A
C898   C937    1.437   .     S
C898   N903    1.369   .     A
C898   C1512   1.429   .     S
C899   N903    1.383   .     A
C899   C939    1.523   .     S
C899   C1509   1.429   .     S
C900   N904    1.383   .     A
C900   C946    1.523   .     S
Cu901  O909    1.972   .     S
Cu901  Cu902   2.721   .     S
Cu901  N903    2.045   .     S
Cu901  O908    1.978   .     S
Cu901  O912    1.951   .     S
Cu901  O905    1.984   .     S
Cu902  O910    1.972   .     S
Cu902  N904    2.045   .     S
Cu902  O906    1.984   .     S
Cu902  O911    1.951   .     S
Cu902  O907    1.978   .     S
C913   H919    1.107   .     S
C913   C957    1.535   .     S
C913   C982    1.512   .     S
C913   H986    1.108   .     S
C914   H916    1.109   .     S
C914   H915    1.110   .     S
H917   C982    1.111   .     S
C920   H925    1.107   .     S
C921   H923    1.110   .     S
C921   H922    1.109   .     S
C921   C988    1.511   .     S
C921   H992    1.111   .     S
H926   C988    1.108   .     S
C927   N928    1.158   .     T
C929   N930    1.158   .     T
C931   N932    1.157   .     T
C933   N934    1.157   .     T
C935   N936    1.155   .     T
C937   N938    1.155   .     T
C939   C940    1.532   .     S
C939   H944    1.109   .     S
C939   H945    1.091   .     S
C940   H943    1.108   .     S
C940   H941    1.110   .     S
C940   H942    1.110   .     S
C946   H952    1.091   .     S
C946   C947    1.532   .     S
C946   H951    1.109   .     S
C947   H949    1.110   .     S
C947   H950    1.108   .     S
C947   H948    1.110   .     S
C953   O973    1.306   .     A
C953   C964    1.475   .     S
C953   O975    1.312   .     A
C954   O974    1.306   .     A
C954   C963    1.475   .     S
C954   O976    1.312   .     A
C955   C957    1.454   .     S
C955   O979    1.317   .     A
C955   O977    1.289   .     A
C956   O978    1.289   .     A
C956   C958    1.453   .     S
C956   O980    1.317   .     A
C958   C821    1.358   1_655 S
C958   C852    1.535   1_655 S
C959   C995    1.455   .     S
C959   C964    1.412   .     A
C960   C963    1.412   .     A
C960   C997    1.455   .     S
C960   C1166   1.394   .     S
C961   C963    1.417   .     A
C961   C999    1.451   .     S
C961   C1163   1.394   .     S
C962   C1001   1.451   .     S
C962   C964    1.417   .     A
C965   C1003   1.437   .     S
C965   N972    1.369   .     A
C966   C1005   1.437   .     S
C966   N971    1.369   .     A
C966   C1580   1.429   .     S
C967   N971    1.383   .     A
C967   C1007   1.523   .     S
C967   C1577   1.429   .     S
C968   N972    1.383   .     A
C968   C1014   1.523   .     S
Cu969  O977    1.972   .     S
Cu969  Cu970   2.721   .     S
Cu969  N971    2.045   .     S
Cu969  O976    1.978   .     S
Cu969  O980    1.951   .     S
Cu969  O973    1.984   .     S
Cu970  O978    1.972   .     S
Cu970  N972    2.045   .     S
Cu970  O974    1.984   .     S
Cu970  O979    1.951   .     S
Cu970  O975    1.978   .     S
C981   H987    1.107   .     S
C981   C821    1.535   1_655 S
C981   C846    1.512   1_655 S
C981   H850    1.108   1_655 S
C982   H984    1.109   .     S
C982   H983    1.110   .     S
H985   C846    1.111   1_655 S
C988   H993    1.107   .     S
C989   H991    1.110   .     S
C989   H990    1.109   .     S
C989   C852    1.511   1_655 S
C989   H856    1.111   1_655 S
H994   C852    1.108   1_655 S
C995   N996    1.158   .     T
C997   N998    1.158   .     T
C999   N1000   1.157   .     T
C1001  N1002   1.157   .     T
C1003  N1004   1.155   .     T
C1005  N1006   1.155   .     T
C1007  C1008   1.532   .     S
C1007  H1012   1.109   .     S
C1007  H1013   1.091   .     S
C1008  H1011   1.108   .     S
C1008  H1009   1.110   .     S
C1008  H1010   1.110   .     S
C1014  H1020   1.091   .     S
C1014  C1015   1.532   .     S
C1014  H1019   1.109   .     S
C1015  H1017   1.110   .     S
C1015  H1018   1.108   .     S
C1015  H1016   1.110   .     S
C1021  O1041   1.306   .     A
C1021  C1032   1.475   .     S
C1021  O1043   1.312   .     A
C1022  O1042   1.306   .     A
C1022  C1031   1.475   .     S
C1022  O1044   1.312   .     A
C1023  C1025   1.454   .     S
C1023  O1047   1.317   .     A
C1023  O1045   1.289   .     A
C1024  O1046   1.289   .     A
C1024  C1026   1.453   .     S
C1024  O1048   1.317   .     A
C1025  C1162   1.358   1_455 S
C1025  C1185   1.535   1_455 S
C1026  C1093   1.358   .     S
C1026  C1124   1.535   .     S
C1027  C1063   1.455   .     S
C1027  C1032   1.412   .     A
C1028  C1031   1.412   .     A
C1028  C1065   1.455   .     S
C1028  C622    1.394   1_565 S
C1029  C1031   1.417   .     A
C1029  C1067   1.451   .     S
C1029  C619    1.394   1_565 S
C1030  C1069   1.451   .     S
C1030  C1032   1.417   .     A
C1033  C1071   1.437   .     S
C1033  N1040   1.369   .     A
C1034  C1073   1.437   .     S
C1034  N1039   1.369   .     A
C1034  C1648   1.429   .     S
C1035  N1039   1.383   .     A
C1035  C1075   1.523   .     S
C1035  C1645   1.429   .     S
C1036  N1040   1.383   .     A
C1036  C1082   1.523   .     S
Cu1037 O1045   1.972   .     S
Cu1037 Cu1038  2.721   .     S
Cu1037 N1039   2.045   .     S
Cu1037 O1044   1.978   .     S
Cu1037 O1048   1.951   .     S
Cu1037 O1041   1.984   .     S
Cu1038 O1046   1.972   .     S
Cu1038 N1040   2.045   .     S
Cu1038 O1042   1.984   .     S
Cu1038 O1047   1.951   .     S
Cu1038 O1043   1.978   .     S
C1049  H1055   1.107   .     S
C1049  C1093   1.535   .     S
C1049  C1118   1.512   .     S
C1049  H1122   1.108   .     S
C1050  H1052   1.109   .     S
C1050  H1051   1.110   .     S
C1050  C1185   1.512   1_455 S
C1050  H1189   1.111   1_455 S
H1053  C1118   1.111   .     S
H1054  C1185   1.108   1_455 S
C1056  H1061   1.107   .     S
C1056  C1162   1.535   1_455 S
C1056  C1193   1.511   1_455 S
C1056  H1198   1.108   1_455 S
C1057  H1059   1.110   .     S
C1057  H1058   1.109   .     S
C1057  C1124   1.511   .     S
C1057  H1128   1.111   .     S
H1060  C1193   1.111   1_455 S
H1062  C1124   1.108   .     S
C1063  N1064   1.158   .     T
C1065  N1066   1.158   .     T
C1067  N1068   1.157   .     T
C1069  N1070   1.157   .     T
C1071  N1072   1.155   .     T
C1073  N1074   1.155   .     T
C1075  C1076   1.532   .     S
C1075  H1080   1.109   .     S
C1075  H1081   1.091   .     S
C1076  H1079   1.108   .     S
C1076  H1077   1.110   .     S
C1076  H1078   1.110   .     S
C1082  H1088   1.091   .     S
C1082  C1083   1.532   .     S
C1082  H1087   1.109   .     S
C1083  H1085   1.110   .     S
C1083  H1086   1.108   .     S
C1083  H1084   1.110   .     S
C1089  O1109   1.306   .     A
C1089  C1100   1.475   .     S
C1089  O1111   1.312   .     A
C1090  O1110   1.306   .     A
C1090  C1099   1.475   .     S
C1090  O1112   1.312   .     A
C1091  C1093   1.454   .     S
C1091  O1115   1.317   .     A
C1091  O1113   1.289   .     A
C1092  O1114   1.289   .     A
C1092  C1094   1.453   .     S
C1092  O1116   1.317   .     A
C1094  C1161   1.358   .     S
C1094  C1192   1.535   .     S
C1095  C1131   1.455   .     S
C1095  C1100   1.412   .     A
C1096  C1099   1.412   .     A
C1096  C1133   1.455   .     S
C1096  C690    1.394   1_565 S
C1097  C1099   1.417   .     A
C1097  C1135   1.451   .     S
C1097  C687    1.394   1_565 S
C1098  C1137   1.451   .     S
C1098  C1100   1.417   .     A
C1101  C1139   1.437   .     S
C1101  N1108   1.369   .     A
C1102  C1141   1.437   .     S
C1102  N1107   1.369   .     A
C1102  C1716   1.429   .     S
C1103  N1107   1.383   .     A
C1103  C1143   1.523   .     S
C1103  C1713   1.429   .     S
C1104  N1108   1.383   .     A
C1104  C1150   1.523   .     S
Cu1105 O1113   1.972   .     S
Cu1105 Cu1106  2.721   .     S
Cu1105 N1107   2.045   .     S
Cu1105 O1112   1.978   .     S
Cu1105 O1116   1.951   .     S
Cu1105 O1109   1.984   .     S
Cu1106 O1114   1.972   .     S
Cu1106 N1108   2.045   .     S
Cu1106 O1110   1.984   .     S
Cu1106 O1115   1.951   .     S
Cu1106 O1111   1.978   .     S
C1117  H1123   1.107   .     S
C1117  C1161   1.535   .     S
C1117  C1186   1.512   .     S
C1117  H1190   1.108   .     S
C1118  H1120   1.109   .     S
C1118  H1119   1.110   .     S
H1121  C1186   1.111   .     S
C1124  H1129   1.107   .     S
C1125  H1127   1.110   .     S
C1125  H1126   1.109   .     S
C1125  C1192   1.511   .     S
C1125  H1196   1.111   .     S
H1130  C1192   1.108   .     S
C1131  N1132   1.158   .     T
C1133  N1134   1.158   .     T
C1135  N1136   1.157   .     T
C1137  N1138   1.157   .     T
C1139  N1140   1.155   .     T
C1141  N1142   1.155   .     T
C1143  C1144   1.532   .     S
C1143  H1148   1.109   .     S
C1143  H1149   1.091   .     S
C1144  H1147   1.108   .     S
C1144  H1145   1.110   .     S
C1144  H1146   1.110   .     S
C1150  H1156   1.091   .     S
C1150  C1151   1.532   .     S
C1150  H1155   1.109   .     S
C1151  H1153   1.110   .     S
C1151  H1154   1.108   .     S
C1151  H1152   1.110   .     S
C1157  O1177   1.306   .     A
C1157  C1168   1.475   .     S
C1157  O1179   1.312   .     A
C1158  O1178   1.306   .     A
C1158  C1167   1.475   .     S
C1158  O1180   1.312   .     A
C1159  C1161   1.454   .     S
C1159  O1183   1.317   .     A
C1159  O1181   1.289   .     A
C1160  O1182   1.289   .     A
C1160  C1162   1.453   .     S
C1160  O1184   1.317   .     A
C1162  C1025   1.358   1_655 S
C1162  C1056   1.535   1_655 S
C1163  C1199   1.455   .     S
C1163  C1168   1.412   .     A
C1164  C1167   1.412   .     A
C1164  C1201   1.455   .     S
C1164  C758    1.394   1_565 S
C1165  C1167   1.417   .     A
C1165  C1203   1.451   .     S
C1165  C755    1.394   1_565 S
C1166  C1205   1.451   .     S
C1166  C1168   1.417   .     A
C1169  C1207   1.437   .     S
C1169  N1176   1.369   .     A
C1170  C1209   1.437   .     S
C1170  N1175   1.369   .     A
C1170  C1784   1.429   .     S
C1171  N1175   1.383   .     A
C1171  C1211   1.523   .     S
C1171  C1781   1.429   .     S
C1172  N1176   1.383   .     A
C1172  C1218   1.523   .     S
Cu1173 O1181   1.972   .     S
Cu1173 Cu1174  2.721   .     S
Cu1173 N1175   2.045   .     S
Cu1173 O1180   1.978   .     S
Cu1173 O1184   1.951   .     S
Cu1173 O1177   1.984   .     S
Cu1174 O1182   1.972   .     S
Cu1174 N1176   2.045   .     S
Cu1174 O1178   1.984   .     S
Cu1174 O1183   1.951   .     S
Cu1174 O1179   1.978   .     S
C1185  H1191   1.107   .     S
C1185  C1025   1.535   1_655 S
C1185  C1050   1.512   1_655 S
C1185  H1054   1.108   1_655 S
C1186  H1188   1.109   .     S
C1186  H1187   1.110   .     S
H1189  C1050   1.111   1_655 S
C1192  H1197   1.107   .     S
C1193  H1195   1.110   .     S
C1193  H1194   1.109   .     S
C1193  C1056   1.511   1_655 S
C1193  H1060   1.111   1_655 S
H1198  C1056   1.108   1_655 S
C1199  N1200   1.158   .     T
C1201  N1202   1.158   .     T
C1203  N1204   1.157   .     T
C1205  N1206   1.157   .     T
C1207  N1208   1.155   .     T
C1209  N1210   1.155   .     T
C1211  C1212   1.532   .     S
C1211  H1216   1.109   .     S
C1211  H1217   1.091   .     S
C1212  H1215   1.108   .     S
C1212  H1213   1.110   .     S
C1212  H1214   1.110   .     S
C1218  H1224   1.091   .     S
C1218  C1219   1.532   .     S
C1218  H1223   1.109   .     S
C1219  H1221   1.110   .     S
C1219  H1222   1.108   .     S
C1219  H1220   1.110   .     S
C1225  O1245   1.306   .     A
C1225  C1236   1.475   .     S
C1225  O1247   1.312   .     A
C1226  O1246   1.306   .     A
C1226  C1235   1.475   .     S
C1226  O1248   1.312   .     A
C1227  C1229   1.454   .     S
C1227  O1251   1.317   .     A
C1227  O1249   1.289   .     A
C1228  O1250   1.289   .     A
C1228  C1230   1.453   .     S
C1228  O1252   1.317   .     A
C1229  C1366   1.358   1_455 S
C1229  C1389   1.535   1_455 S
C1230  C1297   1.358   .     S
C1230  C1328   1.535   .     S
C1231  C1267   1.455   .     S
C1231  C1236   1.412   .     A
C1231  C1641   1.394   1_545 S
C1232  C1235   1.412   .     A
C1232  C1269   1.455   .     S
C1232  C1438   1.394   .     S
C1233  C1235   1.417   .     A
C1233  C1271   1.451   .     S
C1233  C1435   1.394   .     S
C1234  C1273   1.451   .     S
C1234  C1236   1.417   .     A
C1234  C1640   1.394   1_545 S
C1237  C1275   1.437   .     S
C1237  N1244   1.369   .     A
C1238  C1277   1.437   .     S
C1238  N1243   1.369   .     A
C1238  C16     1.429   1_556 S
C1239  N1243   1.383   .     A
C1239  C1279   1.523   .     S
C1239  C13     1.429   1_556 S
C1240  N1244   1.383   .     A
C1240  C1286   1.523   .     S
Cu1241 O1249   1.972   .     S
Cu1241 Cu1242  2.721   .     S
Cu1241 N1243   2.045   .     S
Cu1241 O1248   1.978   .     S
Cu1241 O1252   1.951   .     S
Cu1241 O1245   1.984   .     S
Cu1242 O1250   1.972   .     S
Cu1242 N1244   2.045   .     S
Cu1242 O1246   1.984   .     S
Cu1242 O1251   1.951   .     S
Cu1242 O1247   1.978   .     S
C1253  H1259   1.107   .     S
C1253  C1297   1.535   .     S
C1253  C1322   1.512   .     S
C1253  H1326   1.108   .     S
C1254  H1256   1.109   .     S
C1254  H1255   1.110   .     S
C1254  C1389   1.512   1_455 S
C1254  H1393   1.111   1_455 S
H1257  C1322   1.111   .     S
H1258  C1389   1.108   1_455 S
C1260  H1265   1.107   .     S
C1260  C1366   1.535   1_455 S
C1260  C1397   1.511   1_455 S
C1260  H1402   1.108   1_455 S
C1261  H1263   1.110   .     S
C1261  H1262   1.109   .     S
C1261  C1328   1.511   .     S
C1261  H1332   1.111   .     S
H1264  C1397   1.111   1_455 S
H1266  C1328   1.108   .     S
C1267  N1268   1.158   .     T
C1269  N1270   1.158   .     T
C1271  N1272   1.157   .     T
C1273  N1274   1.157   .     T
C1275  N1276   1.155   .     T
C1277  N1278   1.155   .     T
C1279  C1280   1.532   .     S
C1279  H1284   1.109   .     S
C1279  H1285   1.091   .     S
C1280  H1283   1.108   .     S
C1280  H1281   1.110   .     S
C1280  H1282   1.110   .     S
C1286  H1292   1.091   .     S
C1286  C1287   1.532   .     S
C1286  H1291   1.109   .     S
C1287  H1289   1.110   .     S
C1287  H1290   1.108   .     S
C1287  H1288   1.110   .     S
C1293  O1313   1.306   .     A
C1293  C1304   1.475   .     S
C1293  O1315   1.312   .     A
C1294  O1314   1.306   .     A
C1294  C1303   1.475   .     S
C1294  O1316   1.312   .     A
C1295  C1297   1.454   .     S
C1295  O1319   1.317   .     A
C1295  O1317   1.289   .     A
C1296  O1318   1.289   .     A
C1296  C1298   1.453   .     S
C1296  O1320   1.317   .     A
C1298  C1365   1.358   .     S
C1298  C1396   1.535   .     S
C1299  C1335   1.455   .     S
C1299  C1304   1.412   .     A
C1299  C1709   1.394   1_545 S
C1300  C1303   1.412   .     A
C1300  C1337   1.455   .     S
C1300  C1506   1.394   .     S
C1301  C1303   1.417   .     A
C1301  C1339   1.451   .     S
C1301  C1503   1.394   .     S
C1302  C1341   1.451   .     S
C1302  C1304   1.417   .     A
C1302  C1708   1.394   1_545 S
C1305  C1343   1.437   .     S
C1305  N1312   1.369   .     A
C1306  C1345   1.437   .     S
C1306  N1311   1.369   .     A
C1306  C84     1.429   1_556 S
C1307  N1311   1.383   .     A
C1307  C1347   1.523   .     S
C1307  C81     1.429   1_556 S
C1308  N1312   1.383   .     A
C1308  C1354   1.523   .     S
Cu1309 O1317   1.972   .     S
Cu1309 Cu1310  2.721   .     S
Cu1309 N1311   2.045   .     S
Cu1309 O1316   1.978   .     S
Cu1309 O1320   1.951   .     S
Cu1309 O1313   1.984   .     S
Cu1310 O1318   1.972   .     S
Cu1310 N1312   2.045   .     S
Cu1310 O1314   1.984   .     S
Cu1310 O1319   1.951   .     S
Cu1310 O1315   1.978   .     S
C1321  H1327   1.107   .     S
C1321  C1365   1.535   .     S
C1321  C1390   1.512   .     S
C1321  H1394   1.108   .     S
C1322  H1324   1.109   .     S
C1322  H1323   1.110   .     S
H1325  C1390   1.111   .     S
C1328  H1333   1.107   .     S
C1329  H1331   1.110   .     S
C1329  H1330   1.109   .     S
C1329  C1396   1.511   .     S
C1329  H1400   1.111   .     S
H1334  C1396   1.108   .     S
C1335  N1336   1.158   .     T
C1337  N1338   1.158   .     T
C1339  N1340   1.157   .     T
C1341  N1342   1.157   .     T
C1343  N1344   1.155   .     T
C1345  N1346   1.155   .     T
C1347  C1348   1.532   .     S
C1347  H1352   1.109   .     S
C1347  H1353   1.091   .     S
C1348  H1351   1.108   .     S
C1348  H1349   1.110   .     S
C1348  H1350   1.110   .     S
C1354  H1360   1.091   .     S
C1354  C1355   1.532   .     S
C1354  H1359   1.109   .     S
C1355  H1357   1.110   .     S
C1355  H1358   1.108   .     S
C1355  H1356   1.110   .     S
C1361  O1381   1.306   .     A
C1361  C1372   1.475   .     S
C1361  O1383   1.312   .     A
C1362  O1382   1.306   .     A
C1362  C1371   1.475   .     S
C1362  O1384   1.312   .     A
C1363  C1365   1.454   .     S
C1363  O1387   1.317   .     A
C1363  O1385   1.289   .     A
C1364  O1386   1.289   .     A
C1364  C1366   1.453   .     S
C1364  O1388   1.317   .     A
C1366  C1229   1.358   1_655 S
C1366  C1260   1.535   1_655 S
C1367  C1403   1.455   .     S
C1367  C1372   1.412   .     A
C1367  C1777   1.394   1_545 S
C1368  C1371   1.412   .     A
C1368  C1405   1.455   .     S
C1368  C1574   1.394   .     S
C1369  C1371   1.417   .     A
C1369  C1407   1.451   .     S
C1369  C1571   1.394   .     S
C1370  C1409   1.451   .     S
C1370  C1372   1.417   .     A
C1370  C1776   1.394   1_545 S
C1373  C1411   1.437   .     S
C1373  N1380   1.369   .     A
C1374  C1413   1.437   .     S
C1374  N1379   1.369   .     A
C1374  C152    1.429   1_556 S
C1375  N1379   1.383   .     A
C1375  C1415   1.523   .     S
C1375  C149    1.429   1_556 S
C1376  N1380   1.383   .     A
C1376  C1422   1.523   .     S
Cu1377 O1385   1.972   .     S
Cu1377 Cu1378  2.721   .     S
Cu1377 N1379   2.045   .     S
Cu1377 O1384   1.978   .     S
Cu1377 O1388   1.951   .     S
Cu1377 O1381   1.984   .     S
Cu1378 O1386   1.972   .     S
Cu1378 N1380   2.045   .     S
Cu1378 O1382   1.984   .     S
Cu1378 O1387   1.951   .     S
Cu1378 O1383   1.978   .     S
C1389  H1395   1.107   .     S
C1389  C1229   1.535   1_655 S
C1389  C1254   1.512   1_655 S
C1389  H1258   1.108   1_655 S
C1390  H1392   1.109   .     S
C1390  H1391   1.110   .     S
H1393  C1254   1.111   1_655 S
C1396  H1401   1.107   .     S
C1397  H1399   1.110   .     S
C1397  H1398   1.109   .     S
C1397  C1260   1.511   1_655 S
C1397  H1264   1.111   1_655 S
H1402  C1260   1.108   1_655 S
C1403  N1404   1.158   .     T
C1405  N1406   1.158   .     T
C1407  N1408   1.157   .     T
C1409  N1410   1.157   .     T
C1411  N1412   1.155   .     T
C1413  N1414   1.155   .     T
C1415  C1416   1.532   .     S
C1415  H1420   1.109   .     S
C1415  H1421   1.091   .     S
C1416  H1419   1.108   .     S
C1416  H1417   1.110   .     S
C1416  H1418   1.110   .     S
C1422  H1428   1.091   .     S
C1422  C1423   1.532   .     S
C1422  H1427   1.109   .     S
C1423  H1425   1.110   .     S
C1423  H1426   1.108   .     S
C1423  H1424   1.110   .     S
C1429  O1449   1.306   .     A
C1429  C1440   1.475   .     S
C1429  O1451   1.312   .     A
C1430  O1450   1.306   .     A
C1430  C1439   1.475   .     S
C1430  O1452   1.312   .     A
C1431  C1433   1.454   .     S
C1431  O1455   1.317   .     A
C1431  O1453   1.289   .     A
C1432  O1454   1.289   .     A
C1432  C1434   1.453   .     S
C1432  O1456   1.317   .     A
C1433  C1570   1.358   1_455 S
C1433  C1593   1.535   1_455 S
C1434  C1501   1.358   .     S
C1434  C1532   1.535   .     S
C1435  C1471   1.455   .     S
C1435  C1440   1.412   .     A
C1436  C1439   1.412   .     A
C1436  C1473   1.455   .     S
C1436  C1642   1.394   .     S
C1437  C1439   1.417   .     A
C1437  C1475   1.451   .     S
C1437  C1639   1.394   .     S
C1438  C1477   1.451   .     S
C1438  C1440   1.417   .     A
C1441  C1479   1.437   .     S
C1441  N1448   1.369   .     A
C1442  C1481   1.437   .     S
C1442  N1447   1.369   .     A
C1442  C220    1.429   1_556 S
C1443  N1447   1.383   .     A
C1443  C1483   1.523   .     S
C1443  C217    1.429   1_556 S
C1444  N1448   1.383   .     A
C1444  C1490   1.523   .     S
Cu1445 O1453   1.972   .     S
Cu1445 Cu1446  2.721   .     S
Cu1445 N1447   2.045   .     S
Cu1445 O1452   1.978   .     S
Cu1445 O1456   1.951   .     S
Cu1445 O1449   1.984   .     S
Cu1446 O1454   1.972   .     S
Cu1446 N1448   2.045   .     S
Cu1446 O1450   1.984   .     S
Cu1446 O1455   1.951   .     S
Cu1446 O1451   1.978   .     S
C1457  H1463   1.107   .     S
C1457  C1501   1.535   .     S
C1457  C1526   1.512   .     S
C1457  H1530   1.108   .     S
C1458  H1460   1.109   .     S
C1458  H1459   1.110   .     S
C1458  C1593   1.512   1_455 S
C1458  H1597   1.111   1_455 S
H1461  C1526   1.111   .     S
H1462  C1593   1.108   1_455 S
C1464  H1469   1.107   .     S
C1464  C1570   1.535   1_455 S
C1464  C1601   1.511   1_455 S
C1464  H1606   1.108   1_455 S
C1465  H1467   1.110   .     S
C1465  H1466   1.109   .     S
C1465  C1532   1.511   .     S
C1465  H1536   1.111   .     S
H1468  C1601   1.111   1_455 S
H1470  C1532   1.108   .     S
C1471  N1472   1.158   .     T
C1473  N1474   1.158   .     T
C1475  N1476   1.157   .     T
C1477  N1478   1.157   .     T
C1479  N1480   1.155   .     T
C1481  N1482   1.155   .     T
C1483  C1484   1.532   .     S
C1483  H1488   1.109   .     S
C1483  H1489   1.091   .     S
C1484  H1487   1.108   .     S
C1484  H1485   1.110   .     S
C1484  H1486   1.110   .     S
C1490  H1496   1.091   .     S
C1490  C1491   1.532   .     S
C1490  H1495   1.109   .     S
C1491  H1493   1.110   .     S
C1491  H1494   1.108   .     S
C1491  H1492   1.110   .     S
C1497  O1517   1.306   .     A
C1497  C1508   1.475   .     S
C1497  O1519   1.312   .     A
C1498  O1518   1.306   .     A
C1498  C1507   1.475   .     S
C1498  O1520   1.312   .     A
C1499  C1501   1.454   .     S
C1499  O1523   1.317   .     A
C1499  O1521   1.289   .     A
C1500  O1522   1.289   .     A
C1500  C1502   1.453   .     S
C1500  O1524   1.317   .     A
C1502  C1569   1.358   .     S
C1502  C1600   1.535   .     S
C1503  C1539   1.455   .     S
C1503  C1508   1.412   .     A
C1504  C1507   1.412   .     A
C1504  C1541   1.455   .     S
C1504  C1710   1.394   .     S
C1505  C1507   1.417   .     A
C1505  C1543   1.451   .     S
C1505  C1707   1.394   .     S
C1506  C1545   1.451   .     S
C1506  C1508   1.417   .     A
C1509  C1547   1.437   .     S
C1509  N1516   1.369   .     A
C1510  C1549   1.437   .     S
C1510  N1515   1.369   .     A
C1510  C288    1.429   1_556 S
C1511  N1515   1.383   .     A
C1511  C1551   1.523   .     S
C1511  C285    1.429   1_556 S
C1512  N1516   1.383   .     A
C1512  C1558   1.523   .     S
Cu1513 O1521   1.972   .     S
Cu1513 Cu1514  2.721   .     S
Cu1513 N1515   2.045   .     S
Cu1513 O1520   1.978   .     S
Cu1513 O1524   1.951   .     S
Cu1513 O1517   1.984   .     S
Cu1514 O1522   1.972   .     S
Cu1514 N1516   2.045   .     S
Cu1514 O1518   1.984   .     S
Cu1514 O1523   1.951   .     S
Cu1514 O1519   1.978   .     S
C1525  H1531   1.107   .     S
C1525  C1569   1.535   .     S
C1525  C1594   1.512   .     S
C1525  H1598   1.108   .     S
C1526  H1528   1.109   .     S
C1526  H1527   1.110   .     S
H1529  C1594   1.111   .     S
C1532  H1537   1.107   .     S
C1533  H1535   1.110   .     S
C1533  H1534   1.109   .     S
C1533  C1600   1.511   .     S
C1533  H1604   1.111   .     S
H1538  C1600   1.108   .     S
C1539  N1540   1.158   .     T
C1541  N1542   1.158   .     T
C1543  N1544   1.157   .     T
C1545  N1546   1.157   .     T
C1547  N1548   1.155   .     T
C1549  N1550   1.155   .     T
C1551  C1552   1.532   .     S
C1551  H1556   1.109   .     S
C1551  H1557   1.091   .     S
C1552  H1555   1.108   .     S
C1552  H1553   1.110   .     S
C1552  H1554   1.110   .     S
C1558  H1564   1.091   .     S
C1558  C1559   1.532   .     S
C1558  H1563   1.109   .     S
C1559  H1561   1.110   .     S
C1559  H1562   1.108   .     S
C1559  H1560   1.110   .     S
C1565  O1585   1.306   .     A
C1565  C1576   1.475   .     S
C1565  O1587   1.312   .     A
C1566  O1586   1.306   .     A
C1566  C1575   1.475   .     S
C1566  O1588   1.312   .     A
C1567  C1569   1.454   .     S
C1567  O1591   1.317   .     A
C1567  O1589   1.289   .     A
C1568  O1590   1.289   .     A
C1568  C1570   1.453   .     S
C1568  O1592   1.317   .     A
C1570  C1433   1.358   1_655 S
C1570  C1464   1.535   1_655 S
C1571  C1607   1.455   .     S
C1571  C1576   1.412   .     A
C1572  C1575   1.412   .     A
C1572  C1609   1.455   .     S
C1572  C1778   1.394   .     S
C1573  C1575   1.417   .     A
C1573  C1611   1.451   .     S
C1573  C1775   1.394   .     S
C1574  C1613   1.451   .     S
C1574  C1576   1.417   .     A
C1577  C1615   1.437   .     S
C1577  N1584   1.369   .     A
C1578  C1617   1.437   .     S
C1578  N1583   1.369   .     A
C1578  C356    1.429   1_556 S
C1579  N1583   1.383   .     A
C1579  C1619   1.523   .     S
C1579  C353    1.429   1_556 S
C1580  N1584   1.383   .     A
C1580  C1626   1.523   .     S
Cu1581 O1589   1.972   .     S
Cu1581 Cu1582  2.721   .     S
Cu1581 N1583   2.045   .     S
Cu1581 O1588   1.978   .     S
Cu1581 O1592   1.951   .     S
Cu1581 O1585   1.984   .     S
Cu1582 O1590   1.972   .     S
Cu1582 N1584   2.045   .     S
Cu1582 O1586   1.984   .     S
Cu1582 O1591   1.951   .     S
Cu1582 O1587   1.978   .     S
C1593  H1599   1.107   .     S
C1593  C1433   1.535   1_655 S
C1593  C1458   1.512   1_655 S
C1593  H1462   1.108   1_655 S
C1594  H1596   1.109   .     S
C1594  H1595   1.110   .     S
H1597  C1458   1.111   1_655 S
C1600  H1605   1.107   .     S
C1601  H1603   1.110   .     S
C1601  H1602   1.109   .     S
C1601  C1464   1.511   1_655 S
C1601  H1468   1.111   1_655 S
H1606  C1464   1.108   1_655 S
C1607  N1608   1.158   .     T
C1609  N1610   1.158   .     T
C1611  N1612   1.157   .     T
C1613  N1614   1.157   .     T
C1615  N1616   1.155   .     T
C1617  N1618   1.155   .     T
C1619  C1620   1.532   .     S
C1619  H1624   1.109   .     S
C1619  H1625   1.091   .     S
C1620  H1623   1.108   .     S
C1620  H1621   1.110   .     S
C1620  H1622   1.110   .     S
C1626  H1632   1.091   .     S
C1626  C1627   1.532   .     S
C1626  H1631   1.109   .     S
C1627  H1629   1.110   .     S
C1627  H1630   1.108   .     S
C1627  H1628   1.110   .     S
C1633  O1653   1.306   .     A
C1633  C1644   1.475   .     S
C1633  O1655   1.312   .     A
C1634  O1654   1.306   .     A
C1634  C1643   1.475   .     S
C1634  O1656   1.312   .     A
C1635  C1637   1.454   .     S
C1635  O1659   1.317   .     A
C1635  O1657   1.289   .     A
C1636  O1658   1.289   .     A
C1636  C1638   1.453   .     S
C1636  O1660   1.317   .     A
C1637  C1774   1.358   1_455 S
C1637  C1797   1.535   1_455 S
C1638  C1705   1.358   .     S
C1638  C1736   1.535   .     S
C1639  C1675   1.455   .     S
C1639  C1644   1.412   .     A
C1640  C1643   1.412   .     A
C1640  C1677   1.455   .     S
C1640  C1234   1.394   1_565 S
C1641  C1643   1.417   .     A
C1641  C1679   1.451   .     S
C1641  C1231   1.394   1_565 S
C1642  C1681   1.451   .     S
C1642  C1644   1.417   .     A
C1645  C1683   1.437   .     S
C1645  N1652   1.369   .     A
C1646  C1685   1.437   .     S
C1646  N1651   1.369   .     A
C1646  C424    1.429   1_556 S
C1647  N1651   1.383   .     A
C1647  C1687   1.523   .     S
C1647  C421    1.429   1_556 S
C1648  N1652   1.383   .     A
C1648  C1694   1.523   .     S
Cu1649 O1657   1.972   .     S
Cu1649 Cu1650  2.721   .     S
Cu1649 N1651   2.045   .     S
Cu1649 O1656   1.978   .     S
Cu1649 O1660   1.951   .     S
Cu1649 O1653   1.984   .     S
Cu1650 O1658   1.972   .     S
Cu1650 N1652   2.045   .     S
Cu1650 O1654   1.984   .     S
Cu1650 O1659   1.951   .     S
Cu1650 O1655   1.978   .     S
C1661  H1667   1.107   .     S
C1661  C1705   1.535   .     S
C1661  C1730   1.512   .     S
C1661  H1734   1.108   .     S
C1662  H1664   1.109   .     S
C1662  H1663   1.110   .     S
C1662  C1797   1.512   1_455 S
C1662  H1801   1.111   1_455 S
H1665  C1730   1.111   .     S
H1666  C1797   1.108   1_455 S
C1668  H1673   1.107   .     S
C1668  C1774   1.535   1_455 S
C1668  C1805   1.511   1_455 S
C1668  H1810   1.108   1_455 S
C1669  H1671   1.110   .     S
C1669  H1670   1.109   .     S
C1669  C1736   1.511   .     S
C1669  H1740   1.111   .     S
H1672  C1805   1.111   1_455 S
H1674  C1736   1.108   .     S
C1675  N1676   1.158   .     T
C1677  N1678   1.158   .     T
C1679  N1680   1.157   .     T
C1681  N1682   1.157   .     T
C1683  N1684   1.155   .     T
C1685  N1686   1.155   .     T
C1687  C1688   1.532   .     S
C1687  H1692   1.109   .     S
C1687  H1693   1.091   .     S
C1688  H1691   1.108   .     S
C1688  H1689   1.110   .     S
C1688  H1690   1.110   .     S
C1694  H1700   1.091   .     S
C1694  C1695   1.532   .     S
C1694  H1699   1.109   .     S
C1695  H1697   1.110   .     S
C1695  H1698   1.108   .     S
C1695  H1696   1.110   .     S
C1701  O1721   1.306   .     A
C1701  C1712   1.475   .     S
C1701  O1723   1.312   .     A
C1702  O1722   1.306   .     A
C1702  C1711   1.475   .     S
C1702  O1724   1.312   .     A
C1703  C1705   1.454   .     S
C1703  O1727   1.317   .     A
C1703  O1725   1.289   .     A
C1704  O1726   1.289   .     A
C1704  C1706   1.453   .     S
C1704  O1728   1.317   .     A
C1706  C1773   1.358   .     S
C1706  C1804   1.535   .     S
C1707  C1743   1.455   .     S
C1707  C1712   1.412   .     A
C1708  C1711   1.412   .     A
C1708  C1745   1.455   .     S
C1708  C1302   1.394   1_565 S
C1709  C1711   1.417   .     A
C1709  C1747   1.451   .     S
C1709  C1299   1.394   1_565 S
C1710  C1749   1.451   .     S
C1710  C1712   1.417   .     A
C1713  C1751   1.437   .     S
C1713  N1720   1.369   .     A
C1714  C1753   1.437   .     S
C1714  N1719   1.369   .     A
C1714  C492    1.429   1_556 S
C1715  N1719   1.383   .     A
C1715  C1755   1.523   .     S
C1715  C489    1.429   1_556 S
C1716  N1720   1.383   .     A
C1716  C1762   1.523   .     S
Cu1717 O1725   1.972   .     S
Cu1717 Cu1718  2.721   .     S
Cu1717 N1719   2.045   .     S
Cu1717 O1724   1.978   .     S
Cu1717 O1728   1.951   .     S
Cu1717 O1721   1.984   .     S
Cu1718 O1726   1.972   .     S
Cu1718 N1720   2.045   .     S
Cu1718 O1722   1.984   .     S
Cu1718 O1727   1.951   .     S
Cu1718 O1723   1.978   .     S
C1729  H1735   1.107   .     S
C1729  C1773   1.535   .     S
C1729  C1798   1.512   .     S
C1729  H1802   1.108   .     S
C1730  H1732   1.109   .     S
C1730  H1731   1.110   .     S
H1733  C1798   1.111   .     S
C1736  H1741   1.107   .     S
C1737  H1739   1.110   .     S
C1737  H1738   1.109   .     S
C1737  C1804   1.511   .     S
C1737  H1808   1.111   .     S
H1742  C1804   1.108   .     S
C1743  N1744   1.158   .     T
C1745  N1746   1.158   .     T
C1747  N1748   1.157   .     T
C1749  N1750   1.157   .     T
C1751  N1752   1.155   .     T
C1753  N1754   1.155   .     T
C1755  C1756   1.532   .     S
C1755  H1760   1.109   .     S
C1755  H1761   1.091   .     S
C1756  H1759   1.108   .     S
C1756  H1757   1.110   .     S
C1756  H1758   1.110   .     S
C1762  H1768   1.091   .     S
C1762  C1763   1.532   .     S
C1762  H1767   1.109   .     S
C1763  H1765   1.110   .     S
C1763  H1766   1.108   .     S
C1763  H1764   1.110   .     S
C1769  O1789   1.306   .     A
C1769  C1780   1.475   .     S
C1769  O1791   1.312   .     A
C1770  O1790   1.306   .     A
C1770  C1779   1.475   .     S
C1770  O1792   1.312   .     A
C1771  C1773   1.454   .     S
C1771  O1795   1.317   .     A
C1771  O1793   1.289   .     A
C1772  O1794   1.289   .     A
C1772  C1774   1.453   .     S
C1772  O1796   1.317   .     A
C1774  C1637   1.358   1_655 S
C1774  C1668   1.535   1_655 S
C1775  C1811   1.455   .     S
C1775  C1780   1.412   .     A
C1776  C1779   1.412   .     A
C1776  C1813   1.455   .     S
C1776  C1370   1.394   1_565 S
C1777  C1779   1.417   .     A
C1777  C1815   1.451   .     S
C1777  C1367   1.394   1_565 S
C1778  C1817   1.451   .     S
C1778  C1780   1.417   .     A
C1781  C1819   1.437   .     S
C1781  N1788   1.369   .     A
C1782  C1821   1.437   .     S
C1782  N1787   1.369   .     A
C1782  C560    1.429   1_556 S
C1783  N1787   1.383   .     A
C1783  C1823   1.523   .     S
C1783  C557    1.429   1_556 S
C1784  N1788   1.383   .     A
C1784  C1830   1.523   .     S
Cu1785 O1793   1.972   .     S
Cu1785 Cu1786  2.721   .     S
Cu1785 N1787   2.045   .     S
Cu1785 O1792   1.978   .     S
Cu1785 O1796   1.951   .     S
Cu1785 O1789   1.984   .     S
Cu1786 O1794   1.972   .     S
Cu1786 N1788   2.045   .     S
Cu1786 O1790   1.984   .     S
Cu1786 O1795   1.951   .     S
Cu1786 O1791   1.978   .     S
C1797  H1803   1.107   .     S
C1797  C1637   1.535   1_655 S
C1797  C1662   1.512   1_655 S
C1797  H1666   1.108   1_655 S
C1798  H1800   1.109   .     S
C1798  H1799   1.110   .     S
H1801  C1662   1.111   1_655 S
C1804  H1809   1.107   .     S
C1805  H1807   1.110   .     S
C1805  H1806   1.109   .     S
C1805  C1668   1.511   1_655 S
C1805  H1672   1.111   1_655 S
H1810  C1668   1.108   1_655 S
C1811  N1812   1.158   .     T
C1813  N1814   1.158   .     T
C1815  N1816   1.157   .     T
C1817  N1818   1.157   .     T
C1819  N1820   1.155   .     T
C1821  N1822   1.155   .     T
C1823  C1824   1.532   .     S
C1823  H1828   1.109   .     S
C1823  H1829   1.091   .     S
C1824  H1827   1.108   .     S
C1824  H1825   1.110   .     S
C1824  H1826   1.110   .     S
C1830  H1836   1.091   .     S
C1830  C1831   1.532   .     S
C1830  H1835   1.109   .     S
C1831  H1833   1.110   .     S
C1831  H1834   1.108   .     S
C1831  H1832   1.110   .     S
