data_str_m2_o1_o1_pcu_sym.47
_audit_creation_date              2020-01-03
_audit_creation_method            'Materials Studio'
_symmetry_space_group_name_H-M    'P1'
_symmetry_Int_Tables_number       1
_symmetry_cell_setting            triclinic
loop_
_symmetry_equiv_pos_as_xyz
  x,y,z
_cell_length_a                    31.1180
_cell_length_b                    30.1340
_cell_length_c                    28.7927
_cell_angle_alpha                 90.0000
_cell_angle_beta                  90.0000
_cell_angle_gamma                 90.0000
loop_
_atom_site_label
_atom_site_type_symbol
_atom_site_fract_x
_atom_site_fract_y
_atom_site_fract_z
_atom_site_U_iso_or_equiv
_atom_site_adp_type
_atom_site_occupancy
C1     C     0.05939   0.19054   0.16667   0.00000  Uiso   1.00
C2     C    -0.00000   0.28904   0.30864   0.00000  Uiso   1.00
C3     C    -0.00000   0.28904   0.02469   0.00000  Uiso   1.00
C4     C    -0.00000   0.21096   0.30864   0.00000  Uiso   1.00
C5     C     0.25000   0.46096   0.02469   0.00000  Uiso   1.00
C6     C     0.25000   0.03904   0.30864   0.00000  Uiso   1.00
C7     C     0.25000   0.03904   0.02469   0.00000  Uiso   1.00
C8     C     0.25000   0.46096   0.30864   0.00000  Uiso   1.00
C9     C     0.39097   0.14097   0.12447   0.00000  Uiso   1.00
C10    C     0.10903   0.35903   0.20886   0.00000  Uiso   1.00
C11    C     0.10903   0.35903   0.12447   0.00000  Uiso   1.00
C12    C     0.44061   0.30946   0.16667   0.00000  Uiso   1.00
C13    C     0.39097   0.14097   0.20886   0.00000  Uiso   1.00
C14    C     0.10903   0.14097   0.20886   0.00000  Uiso   1.00
C15    C     0.39097   0.35903   0.12447   0.00000  Uiso   1.00
C16    C     0.39097   0.35903   0.20886   0.00000  Uiso   1.00
C17    C     0.10903   0.14097   0.12447   0.00000  Uiso   1.00
C18    C     0.14097   0.39097   0.12447   0.00000  Uiso   1.00
C19    C     0.35903   0.10903   0.20886   0.00000  Uiso   1.00
C20    C     0.35903   0.10903   0.12447   0.00000  Uiso   1.00
C21    C     0.14097   0.39097   0.20886   0.00000  Uiso   1.00
C22    C     0.35903   0.39097   0.20886   0.00000  Uiso   1.00
C23    C     0.44061   0.19054   0.16667   0.00000  Uiso   1.00
C24    C     0.14097   0.10903   0.12447   0.00000  Uiso   1.00
C25    C     0.14097   0.10903   0.20886   0.00000  Uiso   1.00
C26    C     0.35903   0.39097   0.12447   0.00000  Uiso   1.00
C27    C     0.09290   0.34294   0.16667   0.00000  Uiso   1.00
C28    C     0.40710   0.15706   0.16667   0.00000  Uiso   1.00
C29    C     0.40710   0.34294   0.16667   0.00000  Uiso   1.00
C30    C     0.09290   0.15706   0.16667   0.00000  Uiso   1.00
C31    C     0.34290   0.09294   0.16667   0.00000  Uiso   1.00
C32    C     0.15710   0.40706   0.16667   0.00000  Uiso   1.00
C33    C     0.15710   0.09294   0.16667   0.00000  Uiso   1.00
C34    C     0.05939   0.30946   0.16667   0.00000  Uiso   1.00
C35    C     0.34290   0.40706   0.16667   0.00000  Uiso   1.00
C36    C     0.30939   0.44054   0.16667   0.00000  Uiso   1.00
C37    C     0.19061   0.05946   0.16667   0.00000  Uiso   1.00
C38    C     0.19061   0.44054   0.16667   0.00000  Uiso   1.00
C39    C     0.30939   0.05946   0.16667   0.00000  Uiso   1.00
C40    C    -0.00000   0.21096   0.02469   0.00000  Uiso   1.00
Cl41   Cl   -0.00000   0.15956   0.05390   0.00000  Uiso   1.00
Cl42   Cl   -0.00000   0.34044   0.27943   0.00000  Uiso   1.00
Cl43   Cl   -0.00000   0.34044   0.05390   0.00000  Uiso   1.00
Cl44   Cl    0.00000   0.15956   0.27943   0.00000  Uiso   1.00
Cl45   Cl    0.25000   0.40956   0.05390   0.00000  Uiso   1.00
Cl46   Cl    0.25000   0.09044   0.27943   0.00000  Uiso   1.00
Cl47   Cl    0.25000   0.09044   0.05390   0.00000  Uiso   1.00
Cl48   Cl    0.25000   0.40956   0.27943   0.00000  Uiso   1.00
Cu49   Cu   -0.00000   0.25000   0.21355   0.00000  Uiso   1.00
Cu50   Cu   -0.00000   0.25000   0.11978   0.00000  Uiso   1.00
Cu51   Cu    0.25000   0.00000   0.21355   0.00000  Uiso   1.00
Cu52   Cu    0.25000   0.00000   0.11978   0.00000  Uiso   1.00
H53    H     0.40293   0.15298   0.09146   0.00000  Uiso   1.00
H54    H     0.34706   0.09702   0.24188   0.00000  Uiso   1.00
H55    H     0.34706   0.09702   0.09146   0.00000  Uiso   1.00
H56    H     0.15293   0.40298   0.24188   0.00000  Uiso   1.00
H57    H     0.34706   0.40298   0.24188   0.00000  Uiso   1.00
H58    H     0.15293   0.09702   0.09146   0.00000  Uiso   1.00
H59    H     0.15293   0.09702   0.24188   0.00000  Uiso   1.00
H60    H     0.34706   0.40298   0.09146   0.00000  Uiso   1.00
H61    H     0.09706   0.34702   0.24188   0.00000  Uiso   1.00
H62    H     0.09706   0.34702   0.09146   0.00000  Uiso   1.00
H63    H     0.40293   0.15298   0.24188   0.00000  Uiso   1.00
H64    H     0.09706   0.15298   0.24188   0.00000  Uiso   1.00
H65    H     0.40293   0.34702   0.09146   0.00000  Uiso   1.00
H66    H     0.40293   0.34702   0.24188   0.00000  Uiso   1.00
H67    H     0.09706   0.15298   0.09146   0.00000  Uiso   1.00
H68    H     0.15293   0.40298   0.09146   0.00000  Uiso   1.00
N69    N     0.00000   0.25000   0.28402   0.00000  Uiso   1.00
N70    N    -0.00000   0.25000   0.04931   0.00000  Uiso   1.00
N71    N     0.25000   0.00000   0.28402   0.00000  Uiso   1.00
N72    N     0.25000   0.00000   0.04931   0.00000  Uiso   1.00
O73    O     0.04508   0.20491   0.20625   0.00000  Uiso   1.00
O74    O     0.20491   0.04509   0.12709   0.00000  Uiso   1.00
O75    O     0.20491   0.04509   0.20625   0.00000  Uiso   1.00
O76    O     0.29508   0.45491   0.12709   0.00000  Uiso   1.00
O77    O     0.20491   0.45491   0.12709   0.00000  Uiso   1.00
O78    O     0.29508   0.04509   0.20625   0.00000  Uiso   1.00
O79    O     0.29508   0.04509   0.12709   0.00000  Uiso   1.00
O80    O     0.20491   0.45491   0.20625   0.00000  Uiso   1.00
O81    O     0.45491   0.29509   0.12709   0.00000  Uiso   1.00
O82    O     0.45491   0.29509   0.20625   0.00000  Uiso   1.00
O83    O     0.04508   0.20491   0.12709   0.00000  Uiso   1.00
O84    O     0.45491   0.20491   0.12709   0.00000  Uiso   1.00
O85    O     0.04508   0.29509   0.20625   0.00000  Uiso   1.00
O86    O     0.04508   0.29509   0.12709   0.00000  Uiso   1.00
O87    O     0.45491   0.20491   0.20625   0.00000  Uiso   1.00
O88    O     0.29508   0.45491   0.20625   0.00000  Uiso   1.00
C89    C     0.55939   0.19054   0.16667   0.00000  Uiso   1.00
C90    C     0.50000   0.28904   0.30864   0.00000  Uiso   1.00
C91    C     0.50000   0.28904   0.02469   0.00000  Uiso   1.00
C92    C     0.50000   0.21096   0.30864   0.00000  Uiso   1.00
C93    C     0.75000   0.46096   0.02469   0.00000  Uiso   1.00
C94    C     0.75000   0.03904   0.30864   0.00000  Uiso   1.00
C95    C     0.75000   0.03904   0.02469   0.00000  Uiso   1.00
C96    C     0.75000   0.46096   0.30864   0.00000  Uiso   1.00
C97    C     0.89097   0.14097   0.12447   0.00000  Uiso   1.00
C98    C     0.60903   0.35903   0.20886   0.00000  Uiso   1.00
C99    C     0.60903   0.35903   0.12447   0.00000  Uiso   1.00
C100   C     0.94061   0.30946   0.16667   0.00000  Uiso   1.00
C101   C     0.89097   0.14097   0.20886   0.00000  Uiso   1.00
C102   C     0.60903   0.14097   0.20886   0.00000  Uiso   1.00
C103   C     0.89097   0.35903   0.12447   0.00000  Uiso   1.00
C104   C     0.89097   0.35903   0.20886   0.00000  Uiso   1.00
C105   C     0.60903   0.14097   0.12447   0.00000  Uiso   1.00
C106   C     0.64097   0.39097   0.12447   0.00000  Uiso   1.00
C107   C     0.85903   0.10903   0.20886   0.00000  Uiso   1.00
C108   C     0.85903   0.10903   0.12447   0.00000  Uiso   1.00
C109   C     0.64097   0.39097   0.20886   0.00000  Uiso   1.00
C110   C     0.85903   0.39097   0.20886   0.00000  Uiso   1.00
C111   C     0.94061   0.19054   0.16667   0.00000  Uiso   1.00
C112   C     0.64097   0.10903   0.12447   0.00000  Uiso   1.00
C113   C     0.64097   0.10903   0.20886   0.00000  Uiso   1.00
C114   C     0.85903   0.39097   0.12447   0.00000  Uiso   1.00
C115   C     0.59290   0.34294   0.16667   0.00000  Uiso   1.00
C116   C     0.90710   0.15706   0.16667   0.00000  Uiso   1.00
C117   C     0.90710   0.34294   0.16667   0.00000  Uiso   1.00
C118   C     0.59290   0.15706   0.16667   0.00000  Uiso   1.00
C119   C     0.84290   0.09294   0.16667   0.00000  Uiso   1.00
C120   C     0.65710   0.40706   0.16667   0.00000  Uiso   1.00
C121   C     0.65710   0.09294   0.16667   0.00000  Uiso   1.00
C122   C     0.55939   0.30946   0.16667   0.00000  Uiso   1.00
C123   C     0.84290   0.40706   0.16667   0.00000  Uiso   1.00
C124   C     0.80939   0.44054   0.16667   0.00000  Uiso   1.00
C125   C     0.69061   0.05946   0.16667   0.00000  Uiso   1.00
C126   C     0.69061   0.44054   0.16667   0.00000  Uiso   1.00
C127   C     0.80939   0.05946   0.16667   0.00000  Uiso   1.00
C128   C     0.50000   0.21096   0.02469   0.00000  Uiso   1.00
Cl129  Cl    0.50000   0.15956   0.05390   0.00000  Uiso   1.00
Cl130  Cl    0.50000   0.34044   0.27943   0.00000  Uiso   1.00
Cl131  Cl    0.50000   0.34044   0.05390   0.00000  Uiso   1.00
Cl132  Cl    0.50000   0.15956   0.27943   0.00000  Uiso   1.00
Cl133  Cl    0.75000   0.40956   0.05390   0.00000  Uiso   1.00
Cl134  Cl    0.75000   0.09044   0.27943   0.00000  Uiso   1.00
Cl135  Cl    0.75000   0.09044   0.05390   0.00000  Uiso   1.00
Cl136  Cl    0.75000   0.40956   0.27943   0.00000  Uiso   1.00
Cu137  Cu    0.50000   0.25000   0.21355   0.00000  Uiso   1.00
Cu138  Cu    0.50000   0.25000   0.11978   0.00000  Uiso   1.00
Cu139  Cu    0.75000   0.00000   0.21355   0.00000  Uiso   1.00
Cu140  Cu    0.75000   0.00000   0.11978   0.00000  Uiso   1.00
H141   H     0.90293   0.15298   0.09146   0.00000  Uiso   1.00
H142   H     0.84706   0.09702   0.24188   0.00000  Uiso   1.00
H143   H     0.84706   0.09702   0.09146   0.00000  Uiso   1.00
H144   H     0.65293   0.40298   0.24188   0.00000  Uiso   1.00
H145   H     0.84706   0.40298   0.24188   0.00000  Uiso   1.00
H146   H     0.65293   0.09702   0.09146   0.00000  Uiso   1.00
H147   H     0.65293   0.09702   0.24188   0.00000  Uiso   1.00
H148   H     0.84706   0.40298   0.09146   0.00000  Uiso   1.00
H149   H     0.59706   0.34702   0.24188   0.00000  Uiso   1.00
H150   H     0.59706   0.34702   0.09146   0.00000  Uiso   1.00
H151   H     0.90293   0.15298   0.24188   0.00000  Uiso   1.00
H152   H     0.59706   0.15298   0.24188   0.00000  Uiso   1.00
H153   H     0.90293   0.34702   0.09146   0.00000  Uiso   1.00
H154   H     0.90293   0.34702   0.24188   0.00000  Uiso   1.00
H155   H     0.59706   0.15298   0.09146   0.00000  Uiso   1.00
H156   H     0.65293   0.40298   0.09146   0.00000  Uiso   1.00
N157   N     0.50000   0.25000   0.28402   0.00000  Uiso   1.00
N158   N     0.50000   0.25000   0.04931   0.00000  Uiso   1.00
N159   N     0.75000   0.00000   0.28402   0.00000  Uiso   1.00
N160   N     0.75000   0.00000   0.04931   0.00000  Uiso   1.00
O161   O     0.54508   0.20491   0.20625   0.00000  Uiso   1.00
O162   O     0.70491   0.04509   0.12709   0.00000  Uiso   1.00
O163   O     0.70491   0.04509   0.20625   0.00000  Uiso   1.00
O164   O     0.79508   0.45491   0.12709   0.00000  Uiso   1.00
O165   O     0.70491   0.45491   0.12709   0.00000  Uiso   1.00
O166   O     0.79508   0.04509   0.20625   0.00000  Uiso   1.00
O167   O     0.79508   0.04509   0.12709   0.00000  Uiso   1.00
O168   O     0.70491   0.45491   0.20625   0.00000  Uiso   1.00
O169   O     0.95491   0.29509   0.12709   0.00000  Uiso   1.00
O170   O     0.95491   0.29509   0.20625   0.00000  Uiso   1.00
O171   O     0.54508   0.20491   0.12709   0.00000  Uiso   1.00
O172   O     0.95491   0.20491   0.12709   0.00000  Uiso   1.00
O173   O     0.54508   0.29509   0.20625   0.00000  Uiso   1.00
O174   O     0.54508   0.29509   0.12709   0.00000  Uiso   1.00
O175   O     0.95491   0.20491   0.20625   0.00000  Uiso   1.00
O176   O     0.79508   0.45491   0.20625   0.00000  Uiso   1.00
C177   C     0.05939   0.69054   0.16667   0.00000  Uiso   1.00
C178   C    -0.00000   0.78904   0.30864   0.00000  Uiso   1.00
C179   C    -0.00000   0.78904   0.02469   0.00000  Uiso   1.00
C180   C    -0.00000   0.71096   0.30864   0.00000  Uiso   1.00
C181   C     0.25000   0.96096   0.02469   0.00000  Uiso   1.00
C182   C     0.25000   0.53904   0.30864   0.00000  Uiso   1.00
C183   C     0.25000   0.53904   0.02469   0.00000  Uiso   1.00
C184   C     0.25000   0.96096   0.30864   0.00000  Uiso   1.00
C185   C     0.39097   0.64097   0.12447   0.00000  Uiso   1.00
C186   C     0.10903   0.85903   0.20886   0.00000  Uiso   1.00
C187   C     0.10903   0.85903   0.12447   0.00000  Uiso   1.00
C188   C     0.44061   0.80946   0.16667   0.00000  Uiso   1.00
C189   C     0.39097   0.64097   0.20886   0.00000  Uiso   1.00
C190   C     0.10903   0.64097   0.20886   0.00000  Uiso   1.00
C191   C     0.39097   0.85903   0.12447   0.00000  Uiso   1.00
C192   C     0.39097   0.85903   0.20886   0.00000  Uiso   1.00
C193   C     0.10903   0.64097   0.12447   0.00000  Uiso   1.00
C194   C     0.14097   0.89097   0.12447   0.00000  Uiso   1.00
C195   C     0.35903   0.60903   0.20886   0.00000  Uiso   1.00
C196   C     0.35903   0.60903   0.12447   0.00000  Uiso   1.00
C197   C     0.14097   0.89097   0.20886   0.00000  Uiso   1.00
C198   C     0.35903   0.89097   0.20886   0.00000  Uiso   1.00
C199   C     0.44061   0.69054   0.16667   0.00000  Uiso   1.00
C200   C     0.14097   0.60903   0.12447   0.00000  Uiso   1.00
C201   C     0.14097   0.60903   0.20886   0.00000  Uiso   1.00
C202   C     0.35903   0.89097   0.12447   0.00000  Uiso   1.00
C203   C     0.09290   0.84294   0.16667   0.00000  Uiso   1.00
C204   C     0.40710   0.65706   0.16667   0.00000  Uiso   1.00
C205   C     0.40710   0.84294   0.16667   0.00000  Uiso   1.00
C206   C     0.09290   0.65706   0.16667   0.00000  Uiso   1.00
C207   C     0.34290   0.59294   0.16667   0.00000  Uiso   1.00
C208   C     0.15710   0.90706   0.16667   0.00000  Uiso   1.00
C209   C     0.15710   0.59294   0.16667   0.00000  Uiso   1.00
C210   C     0.05939   0.80946   0.16667   0.00000  Uiso   1.00
C211   C     0.34290   0.90706   0.16667   0.00000  Uiso   1.00
C212   C     0.30939   0.94054   0.16667   0.00000  Uiso   1.00
C213   C     0.19061   0.55946   0.16667   0.00000  Uiso   1.00
C214   C     0.19061   0.94054   0.16667   0.00000  Uiso   1.00
C215   C     0.30939   0.55946   0.16667   0.00000  Uiso   1.00
C216   C    -0.00000   0.71096   0.02469   0.00000  Uiso   1.00
Cl217  Cl   -0.00000   0.65956   0.05390   0.00000  Uiso   1.00
Cl218  Cl   -0.00000   0.84044   0.27943   0.00000  Uiso   1.00
Cl219  Cl   -0.00000   0.84044   0.05390   0.00000  Uiso   1.00
Cl220  Cl    0.00000   0.65956   0.27943   0.00000  Uiso   1.00
Cl221  Cl    0.25000   0.90956   0.05390   0.00000  Uiso   1.00
Cl222  Cl    0.25000   0.59044   0.27943   0.00000  Uiso   1.00
Cl223  Cl    0.25000   0.59044   0.05390   0.00000  Uiso   1.00
Cl224  Cl    0.25000   0.90956   0.27943   0.00000  Uiso   1.00
Cu225  Cu   -0.00000   0.75000   0.21355   0.00000  Uiso   1.00
Cu226  Cu   -0.00000   0.75000   0.11978   0.00000  Uiso   1.00
Cu227  Cu    0.25000   0.50000   0.21355   0.00000  Uiso   1.00
Cu228  Cu    0.25000   0.50000   0.11978   0.00000  Uiso   1.00
H229   H     0.40293   0.65298   0.09146   0.00000  Uiso   1.00
H230   H     0.34706   0.59702   0.24188   0.00000  Uiso   1.00
H231   H     0.34706   0.59702   0.09146   0.00000  Uiso   1.00
H232   H     0.15293   0.90298   0.24188   0.00000  Uiso   1.00
H233   H     0.34706   0.90298   0.24188   0.00000  Uiso   1.00
H234   H     0.15293   0.59702   0.09146   0.00000  Uiso   1.00
H235   H     0.15293   0.59702   0.24188   0.00000  Uiso   1.00
H236   H     0.34706   0.90298   0.09146   0.00000  Uiso   1.00
H237   H     0.09706   0.84702   0.24188   0.00000  Uiso   1.00
H238   H     0.09706   0.84702   0.09146   0.00000  Uiso   1.00
H239   H     0.40293   0.65298   0.24188   0.00000  Uiso   1.00
H240   H     0.09706   0.65298   0.24188   0.00000  Uiso   1.00
H241   H     0.40293   0.84702   0.09146   0.00000  Uiso   1.00
H242   H     0.40293   0.84702   0.24188   0.00000  Uiso   1.00
H243   H     0.09706   0.65298   0.09146   0.00000  Uiso   1.00
H244   H     0.15293   0.90298   0.09146   0.00000  Uiso   1.00
N245   N     0.00000   0.75000   0.28402   0.00000  Uiso   1.00
N246   N    -0.00000   0.75000   0.04931   0.00000  Uiso   1.00
N247   N     0.25000   0.50000   0.28402   0.00000  Uiso   1.00
N248   N     0.25000   0.50000   0.04931   0.00000  Uiso   1.00
O249   O     0.04508   0.70491   0.20625   0.00000  Uiso   1.00
O250   O     0.20491   0.54509   0.12709   0.00000  Uiso   1.00
O251   O     0.20491   0.54509   0.20625   0.00000  Uiso   1.00
O252   O     0.29508   0.95491   0.12709   0.00000  Uiso   1.00
O253   O     0.20491   0.95491   0.12709   0.00000  Uiso   1.00
O254   O     0.29508   0.54509   0.20625   0.00000  Uiso   1.00
O255   O     0.29508   0.54509   0.12709   0.00000  Uiso   1.00
O256   O     0.20491   0.95491   0.20625   0.00000  Uiso   1.00
O257   O     0.45491   0.79509   0.12709   0.00000  Uiso   1.00
O258   O     0.45491   0.79509   0.20625   0.00000  Uiso   1.00
O259   O     0.04508   0.70491   0.12709   0.00000  Uiso   1.00
O260   O     0.45491   0.70491   0.12709   0.00000  Uiso   1.00
O261   O     0.04508   0.79509   0.20625   0.00000  Uiso   1.00
O262   O     0.04508   0.79509   0.12709   0.00000  Uiso   1.00
O263   O     0.45491   0.70491   0.20625   0.00000  Uiso   1.00
O264   O     0.29508   0.95491   0.20625   0.00000  Uiso   1.00
C265   C     0.55939   0.69054   0.16667   0.00000  Uiso   1.00
C266   C     0.50000   0.78904   0.30864   0.00000  Uiso   1.00
C267   C     0.50000   0.78904   0.02469   0.00000  Uiso   1.00
C268   C     0.50000   0.71096   0.30864   0.00000  Uiso   1.00
C269   C     0.75000   0.96096   0.02469   0.00000  Uiso   1.00
C270   C     0.75000   0.53904   0.30864   0.00000  Uiso   1.00
C271   C     0.75000   0.53904   0.02469   0.00000  Uiso   1.00
C272   C     0.75000   0.96096   0.30864   0.00000  Uiso   1.00
C273   C     0.89097   0.64097   0.12447   0.00000  Uiso   1.00
C274   C     0.60903   0.85903   0.20886   0.00000  Uiso   1.00
C275   C     0.60903   0.85903   0.12447   0.00000  Uiso   1.00
C276   C     0.94061   0.80946   0.16667   0.00000  Uiso   1.00
C277   C     0.89097   0.64097   0.20886   0.00000  Uiso   1.00
C278   C     0.60903   0.64097   0.20886   0.00000  Uiso   1.00
C279   C     0.89097   0.85903   0.12447   0.00000  Uiso   1.00
C280   C     0.89097   0.85903   0.20886   0.00000  Uiso   1.00
C281   C     0.60903   0.64097   0.12447   0.00000  Uiso   1.00
C282   C     0.64097   0.89097   0.12447   0.00000  Uiso   1.00
C283   C     0.85903   0.60903   0.20886   0.00000  Uiso   1.00
C284   C     0.85903   0.60903   0.12447   0.00000  Uiso   1.00
C285   C     0.64097   0.89097   0.20886   0.00000  Uiso   1.00
C286   C     0.85903   0.89097   0.20886   0.00000  Uiso   1.00
C287   C     0.94061   0.69054   0.16667   0.00000  Uiso   1.00
C288   C     0.64097   0.60903   0.12447   0.00000  Uiso   1.00
C289   C     0.64097   0.60903   0.20886   0.00000  Uiso   1.00
C290   C     0.85903   0.89097   0.12447   0.00000  Uiso   1.00
C291   C     0.59290   0.84294   0.16667   0.00000  Uiso   1.00
C292   C     0.90710   0.65706   0.16667   0.00000  Uiso   1.00
C293   C     0.90710   0.84294   0.16667   0.00000  Uiso   1.00
C294   C     0.59290   0.65706   0.16667   0.00000  Uiso   1.00
C295   C     0.84290   0.59294   0.16667   0.00000  Uiso   1.00
C296   C     0.65710   0.90706   0.16667   0.00000  Uiso   1.00
C297   C     0.65710   0.59294   0.16667   0.00000  Uiso   1.00
C298   C     0.55939   0.80946   0.16667   0.00000  Uiso   1.00
C299   C     0.84290   0.90706   0.16667   0.00000  Uiso   1.00
C300   C     0.80939   0.94054   0.16667   0.00000  Uiso   1.00
C301   C     0.69061   0.55946   0.16667   0.00000  Uiso   1.00
C302   C     0.69061   0.94054   0.16667   0.00000  Uiso   1.00
C303   C     0.80939   0.55946   0.16667   0.00000  Uiso   1.00
C304   C     0.50000   0.71096   0.02469   0.00000  Uiso   1.00
Cl305  Cl    0.50000   0.65956   0.05390   0.00000  Uiso   1.00
Cl306  Cl    0.50000   0.84044   0.27943   0.00000  Uiso   1.00
Cl307  Cl    0.50000   0.84044   0.05390   0.00000  Uiso   1.00
Cl308  Cl    0.50000   0.65956   0.27943   0.00000  Uiso   1.00
Cl309  Cl    0.75000   0.90956   0.05390   0.00000  Uiso   1.00
Cl310  Cl    0.75000   0.59044   0.27943   0.00000  Uiso   1.00
Cl311  Cl    0.75000   0.59044   0.05390   0.00000  Uiso   1.00
Cl312  Cl    0.75000   0.90956   0.27943   0.00000  Uiso   1.00
Cu313  Cu    0.50000   0.75000   0.21355   0.00000  Uiso   1.00
Cu314  Cu    0.50000   0.75000   0.11978   0.00000  Uiso   1.00
Cu315  Cu    0.75000   0.50000   0.21355   0.00000  Uiso   1.00
Cu316  Cu    0.75000   0.50000   0.11978   0.00000  Uiso   1.00
H317   H     0.90293   0.65298   0.09146   0.00000  Uiso   1.00
H318   H     0.84706   0.59702   0.24188   0.00000  Uiso   1.00
H319   H     0.84706   0.59702   0.09146   0.00000  Uiso   1.00
H320   H     0.65293   0.90298   0.24188   0.00000  Uiso   1.00
H321   H     0.84706   0.90298   0.24188   0.00000  Uiso   1.00
H322   H     0.65293   0.59702   0.09146   0.00000  Uiso   1.00
H323   H     0.65293   0.59702   0.24188   0.00000  Uiso   1.00
H324   H     0.84706   0.90298   0.09146   0.00000  Uiso   1.00
H325   H     0.59706   0.84702   0.24188   0.00000  Uiso   1.00
H326   H     0.59706   0.84702   0.09146   0.00000  Uiso   1.00
H327   H     0.90293   0.65298   0.24188   0.00000  Uiso   1.00
H328   H     0.59706   0.65298   0.24188   0.00000  Uiso   1.00
H329   H     0.90293   0.84702   0.09146   0.00000  Uiso   1.00
H330   H     0.90293   0.84702   0.24188   0.00000  Uiso   1.00
H331   H     0.59706   0.65298   0.09146   0.00000  Uiso   1.00
H332   H     0.65293   0.90298   0.09146   0.00000  Uiso   1.00
N333   N     0.50000   0.75000   0.28402   0.00000  Uiso   1.00
N334   N     0.50000   0.75000   0.04931   0.00000  Uiso   1.00
N335   N     0.75000   0.50000   0.28402   0.00000  Uiso   1.00
N336   N     0.75000   0.50000   0.04931   0.00000  Uiso   1.00
O337   O     0.54508   0.70491   0.20625   0.00000  Uiso   1.00
O338   O     0.70491   0.54509   0.12709   0.00000  Uiso   1.00
O339   O     0.70491   0.54509   0.20625   0.00000  Uiso   1.00
O340   O     0.79508   0.95491   0.12709   0.00000  Uiso   1.00
O341   O     0.70491   0.95491   0.12709   0.00000  Uiso   1.00
O342   O     0.79508   0.54509   0.20625   0.00000  Uiso   1.00
O343   O     0.79508   0.54509   0.12709   0.00000  Uiso   1.00
O344   O     0.70491   0.95491   0.20625   0.00000  Uiso   1.00
O345   O     0.95491   0.79509   0.12709   0.00000  Uiso   1.00
O346   O     0.95491   0.79509   0.20625   0.00000  Uiso   1.00
O347   O     0.54508   0.70491   0.12709   0.00000  Uiso   1.00
O348   O     0.95491   0.70491   0.12709   0.00000  Uiso   1.00
O349   O     0.54508   0.79509   0.20625   0.00000  Uiso   1.00
O350   O     0.54508   0.79509   0.12709   0.00000  Uiso   1.00
O351   O     0.95491   0.70491   0.20625   0.00000  Uiso   1.00
O352   O     0.79508   0.95491   0.20625   0.00000  Uiso   1.00
C353   C     0.05939   0.19054   0.50000   0.00000  Uiso   1.00
C354   C    -0.00000   0.28904   0.64197   0.00000  Uiso   1.00
C355   C    -0.00000   0.28904   0.35803   0.00000  Uiso   1.00
C356   C    -0.00000   0.21096   0.64197   0.00000  Uiso   1.00
C357   C     0.25000   0.46096   0.35803   0.00000  Uiso   1.00
C358   C     0.25000   0.03904   0.64197   0.00000  Uiso   1.00
C359   C     0.25000   0.03904   0.35803   0.00000  Uiso   1.00
C360   C     0.25000   0.46096   0.64197   0.00000  Uiso   1.00
C361   C     0.39097   0.14097   0.45780   0.00000  Uiso   1.00
C362   C     0.10903   0.35903   0.54220   0.00000  Uiso   1.00
C363   C     0.10903   0.35903   0.45780   0.00000  Uiso   1.00
C364   C     0.44061   0.30946   0.50000   0.00000  Uiso   1.00
C365   C     0.39097   0.14097   0.54220   0.00000  Uiso   1.00
C366   C     0.10903   0.14097   0.54220   0.00000  Uiso   1.00
C367   C     0.39097   0.35903   0.45780   0.00000  Uiso   1.00
C368   C     0.39097   0.35903   0.54220   0.00000  Uiso   1.00
C369   C     0.10903   0.14097   0.45780   0.00000  Uiso   1.00
C370   C     0.14097   0.39097   0.45780   0.00000  Uiso   1.00
C371   C     0.35903   0.10903   0.54220   0.00000  Uiso   1.00
C372   C     0.35903   0.10903   0.45780   0.00000  Uiso   1.00
C373   C     0.14097   0.39097   0.54220   0.00000  Uiso   1.00
C374   C     0.35903   0.39097   0.54220   0.00000  Uiso   1.00
C375   C     0.44061   0.19054   0.50000   0.00000  Uiso   1.00
C376   C     0.14097   0.10903   0.45780   0.00000  Uiso   1.00
C377   C     0.14097   0.10903   0.54220   0.00000  Uiso   1.00
C378   C     0.35903   0.39097   0.45780   0.00000  Uiso   1.00
C379   C     0.09290   0.34294   0.50000   0.00000  Uiso   1.00
C380   C     0.40710   0.15706   0.50000   0.00000  Uiso   1.00
C381   C     0.40710   0.34294   0.50000   0.00000  Uiso   1.00
C382   C     0.09290   0.15706   0.50000   0.00000  Uiso   1.00
C383   C     0.34290   0.09294   0.50000   0.00000  Uiso   1.00
C384   C     0.15710   0.40706   0.50000   0.00000  Uiso   1.00
C385   C     0.15710   0.09294   0.50000   0.00000  Uiso   1.00
C386   C     0.05939   0.30946   0.50000   0.00000  Uiso   1.00
C387   C     0.34290   0.40706   0.50000   0.00000  Uiso   1.00
C388   C     0.30939   0.44054   0.50000   0.00000  Uiso   1.00
C389   C     0.19061   0.05946   0.50000   0.00000  Uiso   1.00
C390   C     0.19061   0.44054   0.50000   0.00000  Uiso   1.00
C391   C     0.30939   0.05946   0.50000   0.00000  Uiso   1.00
C392   C    -0.00000   0.21096   0.35803   0.00000  Uiso   1.00
Cl393  Cl   -0.00000   0.15956   0.38724   0.00000  Uiso   1.00
Cl394  Cl   -0.00000   0.34044   0.61276   0.00000  Uiso   1.00
Cl395  Cl   -0.00000   0.34044   0.38724   0.00000  Uiso   1.00
Cl396  Cl    0.00000   0.15956   0.61276   0.00000  Uiso   1.00
Cl397  Cl    0.25000   0.40956   0.38724   0.00000  Uiso   1.00
Cl398  Cl    0.25000   0.09044   0.61276   0.00000  Uiso   1.00
Cl399  Cl    0.25000   0.09044   0.38724   0.00000  Uiso   1.00
Cl400  Cl    0.25000   0.40956   0.61276   0.00000  Uiso   1.00
Cu401  Cu   -0.00000   0.25000   0.54689   0.00000  Uiso   1.00
Cu402  Cu   -0.00000   0.25000   0.45311   0.00000  Uiso   1.00
Cu403  Cu    0.25000   0.00000   0.54689   0.00000  Uiso   1.00
Cu404  Cu    0.25000   0.00000   0.45311   0.00000  Uiso   1.00
H405   H     0.40293   0.15298   0.42479   0.00000  Uiso   1.00
H406   H     0.34706   0.09702   0.57521   0.00000  Uiso   1.00
H407   H     0.34706   0.09702   0.42479   0.00000  Uiso   1.00
H408   H     0.15293   0.40298   0.57521   0.00000  Uiso   1.00
H409   H     0.34706   0.40298   0.57521   0.00000  Uiso   1.00
H410   H     0.15293   0.09702   0.42479   0.00000  Uiso   1.00
H411   H     0.15293   0.09702   0.57521   0.00000  Uiso   1.00
H412   H     0.34706   0.40298   0.42479   0.00000  Uiso   1.00
H413   H     0.09706   0.34702   0.57521   0.00000  Uiso   1.00
H414   H     0.09706   0.34702   0.42479   0.00000  Uiso   1.00
H415   H     0.40293   0.15298   0.57521   0.00000  Uiso   1.00
H416   H     0.09706   0.15298   0.57521   0.00000  Uiso   1.00
H417   H     0.40293   0.34702   0.42479   0.00000  Uiso   1.00
H418   H     0.40293   0.34702   0.57521   0.00000  Uiso   1.00
H419   H     0.09706   0.15298   0.42479   0.00000  Uiso   1.00
H420   H     0.15293   0.40298   0.42479   0.00000  Uiso   1.00
N421   N     0.00000   0.25000   0.61736   0.00000  Uiso   1.00
N422   N    -0.00000   0.25000   0.38264   0.00000  Uiso   1.00
N423   N     0.25000   0.00000   0.61736   0.00000  Uiso   1.00
N424   N     0.25000   0.00000   0.38264   0.00000  Uiso   1.00
O425   O     0.04508   0.20491   0.53958   0.00000  Uiso   1.00
O426   O     0.20491   0.04509   0.46042   0.00000  Uiso   1.00
O427   O     0.20491   0.04509   0.53958   0.00000  Uiso   1.00
O428   O     0.29508   0.45491   0.46042   0.00000  Uiso   1.00
O429   O     0.20491   0.45491   0.46042   0.00000  Uiso   1.00
O430   O     0.29508   0.04509   0.53958   0.00000  Uiso   1.00
O431   O     0.29508   0.04509   0.46042   0.00000  Uiso   1.00
O432   O     0.20491   0.45491   0.53958   0.00000  Uiso   1.00
O433   O     0.45491   0.29509   0.46042   0.00000  Uiso   1.00
O434   O     0.45491   0.29509   0.53958   0.00000  Uiso   1.00
O435   O     0.04508   0.20491   0.46042   0.00000  Uiso   1.00
O436   O     0.45491   0.20491   0.46042   0.00000  Uiso   1.00
O437   O     0.04508   0.29509   0.53958   0.00000  Uiso   1.00
O438   O     0.04508   0.29509   0.46042   0.00000  Uiso   1.00
O439   O     0.45491   0.20491   0.53958   0.00000  Uiso   1.00
O440   O     0.29508   0.45491   0.53958   0.00000  Uiso   1.00
C441   C     0.55939   0.19054   0.50000   0.00000  Uiso   1.00
C442   C     0.50000   0.28904   0.64197   0.00000  Uiso   1.00
C443   C     0.50000   0.28904   0.35803   0.00000  Uiso   1.00
C444   C     0.50000   0.21096   0.64197   0.00000  Uiso   1.00
C445   C     0.75000   0.46096   0.35803   0.00000  Uiso   1.00
C446   C     0.75000   0.03904   0.64197   0.00000  Uiso   1.00
C447   C     0.75000   0.03904   0.35803   0.00000  Uiso   1.00
C448   C     0.75000   0.46096   0.64197   0.00000  Uiso   1.00
C449   C     0.89097   0.14097   0.45780   0.00000  Uiso   1.00
C450   C     0.60903   0.35903   0.54220   0.00000  Uiso   1.00
C451   C     0.60903   0.35903   0.45780   0.00000  Uiso   1.00
C452   C     0.94061   0.30946   0.50000   0.00000  Uiso   1.00
C453   C     0.89097   0.14097   0.54220   0.00000  Uiso   1.00
C454   C     0.60903   0.14097   0.54220   0.00000  Uiso   1.00
C455   C     0.89097   0.35903   0.45780   0.00000  Uiso   1.00
C456   C     0.89097   0.35903   0.54220   0.00000  Uiso   1.00
C457   C     0.60903   0.14097   0.45780   0.00000  Uiso   1.00
C458   C     0.64097   0.39097   0.45780   0.00000  Uiso   1.00
C459   C     0.85903   0.10903   0.54220   0.00000  Uiso   1.00
C460   C     0.85903   0.10903   0.45780   0.00000  Uiso   1.00
C461   C     0.64097   0.39097   0.54220   0.00000  Uiso   1.00
C462   C     0.85903   0.39097   0.54220   0.00000  Uiso   1.00
C463   C     0.94061   0.19054   0.50000   0.00000  Uiso   1.00
C464   C     0.64097   0.10903   0.45780   0.00000  Uiso   1.00
C465   C     0.64097   0.10903   0.54220   0.00000  Uiso   1.00
C466   C     0.85903   0.39097   0.45780   0.00000  Uiso   1.00
C467   C     0.59290   0.34294   0.50000   0.00000  Uiso   1.00
C468   C     0.90710   0.15706   0.50000   0.00000  Uiso   1.00
C469   C     0.90710   0.34294   0.50000   0.00000  Uiso   1.00
C470   C     0.59290   0.15706   0.50000   0.00000  Uiso   1.00
C471   C     0.84290   0.09294   0.50000   0.00000  Uiso   1.00
C472   C     0.65710   0.40706   0.50000   0.00000  Uiso   1.00
C473   C     0.65710   0.09294   0.50000   0.00000  Uiso   1.00
C474   C     0.55939   0.30946   0.50000   0.00000  Uiso   1.00
C475   C     0.84290   0.40706   0.50000   0.00000  Uiso   1.00
C476   C     0.80939   0.44054   0.50000   0.00000  Uiso   1.00
C477   C     0.69061   0.05946   0.50000   0.00000  Uiso   1.00
C478   C     0.69061   0.44054   0.50000   0.00000  Uiso   1.00
C479   C     0.80939   0.05946   0.50000   0.00000  Uiso   1.00
C480   C     0.50000   0.21096   0.35803   0.00000  Uiso   1.00
Cl481  Cl    0.50000   0.15956   0.38724   0.00000  Uiso   1.00
Cl482  Cl    0.50000   0.34044   0.61276   0.00000  Uiso   1.00
Cl483  Cl    0.50000   0.34044   0.38724   0.00000  Uiso   1.00
Cl484  Cl    0.50000   0.15956   0.61276   0.00000  Uiso   1.00
Cl485  Cl    0.75000   0.40956   0.38724   0.00000  Uiso   1.00
Cl486  Cl    0.75000   0.09044   0.61276   0.00000  Uiso   1.00
Cl487  Cl    0.75000   0.09044   0.38724   0.00000  Uiso   1.00
Cl488  Cl    0.75000   0.40956   0.61276   0.00000  Uiso   1.00
Cu489  Cu    0.50000   0.25000   0.54689   0.00000  Uiso   1.00
Cu490  Cu    0.50000   0.25000   0.45311   0.00000  Uiso   1.00
Cu491  Cu    0.75000   0.00000   0.54689   0.00000  Uiso   1.00
Cu492  Cu    0.75000   0.00000   0.45311   0.00000  Uiso   1.00
H493   H     0.90293   0.15298   0.42479   0.00000  Uiso   1.00
H494   H     0.84706   0.09702   0.57521   0.00000  Uiso   1.00
H495   H     0.84706   0.09702   0.42479   0.00000  Uiso   1.00
H496   H     0.65293   0.40298   0.57521   0.00000  Uiso   1.00
H497   H     0.84706   0.40298   0.57521   0.00000  Uiso   1.00
H498   H     0.65293   0.09702   0.42479   0.00000  Uiso   1.00
H499   H     0.65293   0.09702   0.57521   0.00000  Uiso   1.00
H500   H     0.84706   0.40298   0.42479   0.00000  Uiso   1.00
H501   H     0.59706   0.34702   0.57521   0.00000  Uiso   1.00
H502   H     0.59706   0.34702   0.42479   0.00000  Uiso   1.00
H503   H     0.90293   0.15298   0.57521   0.00000  Uiso   1.00
H504   H     0.59706   0.15298   0.57521   0.00000  Uiso   1.00
H505   H     0.90293   0.34702   0.42479   0.00000  Uiso   1.00
H506   H     0.90293   0.34702   0.57521   0.00000  Uiso   1.00
H507   H     0.59706   0.15298   0.42479   0.00000  Uiso   1.00
H508   H     0.65293   0.40298   0.42479   0.00000  Uiso   1.00
N509   N     0.50000   0.25000   0.61736   0.00000  Uiso   1.00
N510   N     0.50000   0.25000   0.38264   0.00000  Uiso   1.00
N511   N     0.75000   0.00000   0.61736   0.00000  Uiso   1.00
N512   N     0.75000   0.00000   0.38264   0.00000  Uiso   1.00
O513   O     0.54508   0.20491   0.53958   0.00000  Uiso   1.00
O514   O     0.70491   0.04509   0.46042   0.00000  Uiso   1.00
O515   O     0.70491   0.04509   0.53958   0.00000  Uiso   1.00
O516   O     0.79508   0.45491   0.46042   0.00000  Uiso   1.00
O517   O     0.70491   0.45491   0.46042   0.00000  Uiso   1.00
O518   O     0.79508   0.04509   0.53958   0.00000  Uiso   1.00
O519   O     0.79508   0.04509   0.46042   0.00000  Uiso   1.00
O520   O     0.70491   0.45491   0.53958   0.00000  Uiso   1.00
O521   O     0.95491   0.29509   0.46042   0.00000  Uiso   1.00
O522   O     0.95491   0.29509   0.53958   0.00000  Uiso   1.00
O523   O     0.54508   0.20491   0.46042   0.00000  Uiso   1.00
O524   O     0.95491   0.20491   0.46042   0.00000  Uiso   1.00
O525   O     0.54508   0.29509   0.53958   0.00000  Uiso   1.00
O526   O     0.54508   0.29509   0.46042   0.00000  Uiso   1.00
O527   O     0.95491   0.20491   0.53958   0.00000  Uiso   1.00
O528   O     0.79508   0.45491   0.53958   0.00000  Uiso   1.00
C529   C     0.05939   0.69054   0.50000   0.00000  Uiso   1.00
C530   C    -0.00000   0.78904   0.64197   0.00000  Uiso   1.00
C531   C    -0.00000   0.78904   0.35803   0.00000  Uiso   1.00
C532   C    -0.00000   0.71096   0.64197   0.00000  Uiso   1.00
C533   C     0.25000   0.96096   0.35803   0.00000  Uiso   1.00
C534   C     0.25000   0.53904   0.64197   0.00000  Uiso   1.00
C535   C     0.25000   0.53904   0.35803   0.00000  Uiso   1.00
C536   C     0.25000   0.96096   0.64197   0.00000  Uiso   1.00
C537   C     0.39097   0.64097   0.45780   0.00000  Uiso   1.00
C538   C     0.10903   0.85903   0.54220   0.00000  Uiso   1.00
C539   C     0.10903   0.85903   0.45780   0.00000  Uiso   1.00
C540   C     0.44061   0.80946   0.50000   0.00000  Uiso   1.00
C541   C     0.39097   0.64097   0.54220   0.00000  Uiso   1.00
C542   C     0.10903   0.64097   0.54220   0.00000  Uiso   1.00
C543   C     0.39097   0.85903   0.45780   0.00000  Uiso   1.00
C544   C     0.39097   0.85903   0.54220   0.00000  Uiso   1.00
C545   C     0.10903   0.64097   0.45780   0.00000  Uiso   1.00
C546   C     0.14097   0.89097   0.45780   0.00000  Uiso   1.00
C547   C     0.35903   0.60903   0.54220   0.00000  Uiso   1.00
C548   C     0.35903   0.60903   0.45780   0.00000  Uiso   1.00
C549   C     0.14097   0.89097   0.54220   0.00000  Uiso   1.00
C550   C     0.35903   0.89097   0.54220   0.00000  Uiso   1.00
C551   C     0.44061   0.69054   0.50000   0.00000  Uiso   1.00
C552   C     0.14097   0.60903   0.45780   0.00000  Uiso   1.00
C553   C     0.14097   0.60903   0.54220   0.00000  Uiso   1.00
C554   C     0.35903   0.89097   0.45780   0.00000  Uiso   1.00
C555   C     0.09290   0.84294   0.50000   0.00000  Uiso   1.00
C556   C     0.40710   0.65706   0.50000   0.00000  Uiso   1.00
C557   C     0.40710   0.84294   0.50000   0.00000  Uiso   1.00
C558   C     0.09290   0.65706   0.50000   0.00000  Uiso   1.00
C559   C     0.34290   0.59294   0.50000   0.00000  Uiso   1.00
C560   C     0.15710   0.90706   0.50000   0.00000  Uiso   1.00
C561   C     0.15710   0.59294   0.50000   0.00000  Uiso   1.00
C562   C     0.05939   0.80946   0.50000   0.00000  Uiso   1.00
C563   C     0.34290   0.90706   0.50000   0.00000  Uiso   1.00
C564   C     0.30939   0.94054   0.50000   0.00000  Uiso   1.00
C565   C     0.19061   0.55946   0.50000   0.00000  Uiso   1.00
C566   C     0.19061   0.94054   0.50000   0.00000  Uiso   1.00
C567   C     0.30939   0.55946   0.50000   0.00000  Uiso   1.00
C568   C    -0.00000   0.71096   0.35803   0.00000  Uiso   1.00
Cl569  Cl   -0.00000   0.65956   0.38724   0.00000  Uiso   1.00
Cl570  Cl   -0.00000   0.84044   0.61276   0.00000  Uiso   1.00
Cl571  Cl   -0.00000   0.84044   0.38724   0.00000  Uiso   1.00
Cl572  Cl    0.00000   0.65956   0.61276   0.00000  Uiso   1.00
Cl573  Cl    0.25000   0.90956   0.38724   0.00000  Uiso   1.00
Cl574  Cl    0.25000   0.59044   0.61276   0.00000  Uiso   1.00
Cl575  Cl    0.25000   0.59044   0.38724   0.00000  Uiso   1.00
Cl576  Cl    0.25000   0.90956   0.61276   0.00000  Uiso   1.00
Cu577  Cu   -0.00000   0.75000   0.54689   0.00000  Uiso   1.00
Cu578  Cu   -0.00000   0.75000   0.45311   0.00000  Uiso   1.00
Cu579  Cu    0.25000   0.50000   0.54689   0.00000  Uiso   1.00
Cu580  Cu    0.25000   0.50000   0.45311   0.00000  Uiso   1.00
H581   H     0.40293   0.65298   0.42479   0.00000  Uiso   1.00
H582   H     0.34706   0.59702   0.57521   0.00000  Uiso   1.00
H583   H     0.34706   0.59702   0.42479   0.00000  Uiso   1.00
H584   H     0.15293   0.90298   0.57521   0.00000  Uiso   1.00
H585   H     0.34706   0.90298   0.57521   0.00000  Uiso   1.00
H586   H     0.15293   0.59702   0.42479   0.00000  Uiso   1.00
H587   H     0.15293   0.59702   0.57521   0.00000  Uiso   1.00
H588   H     0.34706   0.90298   0.42479   0.00000  Uiso   1.00
H589   H     0.09706   0.84702   0.57521   0.00000  Uiso   1.00
H590   H     0.09706   0.84702   0.42479   0.00000  Uiso   1.00
H591   H     0.40293   0.65298   0.57521   0.00000  Uiso   1.00
H592   H     0.09706   0.65298   0.57521   0.00000  Uiso   1.00
H593   H     0.40293   0.84702   0.42479   0.00000  Uiso   1.00
H594   H     0.40293   0.84702   0.57521   0.00000  Uiso   1.00
H595   H     0.09706   0.65298   0.42479   0.00000  Uiso   1.00
H596   H     0.15293   0.90298   0.42479   0.00000  Uiso   1.00
N597   N     0.00000   0.75000   0.61736   0.00000  Uiso   1.00
N598   N    -0.00000   0.75000   0.38264   0.00000  Uiso   1.00
N599   N     0.25000   0.50000   0.61736   0.00000  Uiso   1.00
N600   N     0.25000   0.50000   0.38264   0.00000  Uiso   1.00
O601   O     0.04508   0.70491   0.53958   0.00000  Uiso   1.00
O602   O     0.20491   0.54509   0.46042   0.00000  Uiso   1.00
O603   O     0.20491   0.54509   0.53958   0.00000  Uiso   1.00
O604   O     0.29508   0.95491   0.46042   0.00000  Uiso   1.00
O605   O     0.20491   0.95491   0.46042   0.00000  Uiso   1.00
O606   O     0.29508   0.54509   0.53958   0.00000  Uiso   1.00
O607   O     0.29508   0.54509   0.46042   0.00000  Uiso   1.00
O608   O     0.20491   0.95491   0.53958   0.00000  Uiso   1.00
O609   O     0.45491   0.79509   0.46042   0.00000  Uiso   1.00
O610   O     0.45491   0.79509   0.53958   0.00000  Uiso   1.00
O611   O     0.04508   0.70491   0.46042   0.00000  Uiso   1.00
O612   O     0.45491   0.70491   0.46042   0.00000  Uiso   1.00
O613   O     0.04508   0.79509   0.53958   0.00000  Uiso   1.00
O614   O     0.04508   0.79509   0.46042   0.00000  Uiso   1.00
O615   O     0.45491   0.70491   0.53958   0.00000  Uiso   1.00
O616   O     0.29508   0.95491   0.53958   0.00000  Uiso   1.00
C617   C     0.55939   0.69054   0.50000   0.00000  Uiso   1.00
C618   C     0.50000   0.78904   0.64197   0.00000  Uiso   1.00
C619   C     0.50000   0.78904   0.35803   0.00000  Uiso   1.00
C620   C     0.50000   0.71096   0.64197   0.00000  Uiso   1.00
C621   C     0.75000   0.96096   0.35803   0.00000  Uiso   1.00
C622   C     0.75000   0.53904   0.64197   0.00000  Uiso   1.00
C623   C     0.75000   0.53904   0.35803   0.00000  Uiso   1.00
C624   C     0.75000   0.96096   0.64197   0.00000  Uiso   1.00
C625   C     0.89097   0.64097   0.45780   0.00000  Uiso   1.00
C626   C     0.60903   0.85903   0.54220   0.00000  Uiso   1.00
C627   C     0.60903   0.85903   0.45780   0.00000  Uiso   1.00
C628   C     0.94061   0.80946   0.50000   0.00000  Uiso   1.00
C629   C     0.89097   0.64097   0.54220   0.00000  Uiso   1.00
C630   C     0.60903   0.64097   0.54220   0.00000  Uiso   1.00
C631   C     0.89097   0.85903   0.45780   0.00000  Uiso   1.00
C632   C     0.89097   0.85903   0.54220   0.00000  Uiso   1.00
C633   C     0.60903   0.64097   0.45780   0.00000  Uiso   1.00
C634   C     0.64097   0.89097   0.45780   0.00000  Uiso   1.00
C635   C     0.85903   0.60903   0.54220   0.00000  Uiso   1.00
C636   C     0.85903   0.60903   0.45780   0.00000  Uiso   1.00
C637   C     0.64097   0.89097   0.54220   0.00000  Uiso   1.00
C638   C     0.85903   0.89097   0.54220   0.00000  Uiso   1.00
C639   C     0.94061   0.69054   0.50000   0.00000  Uiso   1.00
C640   C     0.64097   0.60903   0.45780   0.00000  Uiso   1.00
C641   C     0.64097   0.60903   0.54220   0.00000  Uiso   1.00
C642   C     0.85903   0.89097   0.45780   0.00000  Uiso   1.00
C643   C     0.59290   0.84294   0.50000   0.00000  Uiso   1.00
C644   C     0.90710   0.65706   0.50000   0.00000  Uiso   1.00
C645   C     0.90710   0.84294   0.50000   0.00000  Uiso   1.00
C646   C     0.59290   0.65706   0.50000   0.00000  Uiso   1.00
C647   C     0.84290   0.59294   0.50000   0.00000  Uiso   1.00
C648   C     0.65710   0.90706   0.50000   0.00000  Uiso   1.00
C649   C     0.65710   0.59294   0.50000   0.00000  Uiso   1.00
C650   C     0.55939   0.80946   0.50000   0.00000  Uiso   1.00
C651   C     0.84290   0.90706   0.50000   0.00000  Uiso   1.00
C652   C     0.80939   0.94054   0.50000   0.00000  Uiso   1.00
C653   C     0.69061   0.55946   0.50000   0.00000  Uiso   1.00
C654   C     0.69061   0.94054   0.50000   0.00000  Uiso   1.00
C655   C     0.80939   0.55946   0.50000   0.00000  Uiso   1.00
C656   C     0.50000   0.71096   0.35803   0.00000  Uiso   1.00
Cl657  Cl    0.50000   0.65956   0.38724   0.00000  Uiso   1.00
Cl658  Cl    0.50000   0.84044   0.61276   0.00000  Uiso   1.00
Cl659  Cl    0.50000   0.84044   0.38724   0.00000  Uiso   1.00
Cl660  Cl    0.50000   0.65956   0.61276   0.00000  Uiso   1.00
Cl661  Cl    0.75000   0.90956   0.38724   0.00000  Uiso   1.00
Cl662  Cl    0.75000   0.59044   0.61276   0.00000  Uiso   1.00
Cl663  Cl    0.75000   0.59044   0.38724   0.00000  Uiso   1.00
Cl664  Cl    0.75000   0.90956   0.61276   0.00000  Uiso   1.00
Cu665  Cu    0.50000   0.75000   0.54689   0.00000  Uiso   1.00
Cu666  Cu    0.50000   0.75000   0.45311   0.00000  Uiso   1.00
Cu667  Cu    0.75000   0.50000   0.54689   0.00000  Uiso   1.00
Cu668  Cu    0.75000   0.50000   0.45311   0.00000  Uiso   1.00
H669   H     0.90293   0.65298   0.42479   0.00000  Uiso   1.00
H670   H     0.84706   0.59702   0.57521   0.00000  Uiso   1.00
H671   H     0.84706   0.59702   0.42479   0.00000  Uiso   1.00
H672   H     0.65293   0.90298   0.57521   0.00000  Uiso   1.00
H673   H     0.84706   0.90298   0.57521   0.00000  Uiso   1.00
H674   H     0.65293   0.59702   0.42479   0.00000  Uiso   1.00
H675   H     0.65293   0.59702   0.57521   0.00000  Uiso   1.00
H676   H     0.84706   0.90298   0.42479   0.00000  Uiso   1.00
H677   H     0.59706   0.84702   0.57521   0.00000  Uiso   1.00
H678   H     0.59706   0.84702   0.42479   0.00000  Uiso   1.00
H679   H     0.90293   0.65298   0.57521   0.00000  Uiso   1.00
H680   H     0.59706   0.65298   0.57521   0.00000  Uiso   1.00
H681   H     0.90293   0.84702   0.42479   0.00000  Uiso   1.00
H682   H     0.90293   0.84702   0.57521   0.00000  Uiso   1.00
H683   H     0.59706   0.65298   0.42479   0.00000  Uiso   1.00
H684   H     0.65293   0.90298   0.42479   0.00000  Uiso   1.00
N685   N     0.50000   0.75000   0.61736   0.00000  Uiso   1.00
N686   N     0.50000   0.75000   0.38264   0.00000  Uiso   1.00
N687   N     0.75000   0.50000   0.61736   0.00000  Uiso   1.00
N688   N     0.75000   0.50000   0.38264   0.00000  Uiso   1.00
O689   O     0.54508   0.70491   0.53958   0.00000  Uiso   1.00
O690   O     0.70491   0.54509   0.46042   0.00000  Uiso   1.00
O691   O     0.70491   0.54509   0.53958   0.00000  Uiso   1.00
O692   O     0.79508   0.95491   0.46042   0.00000  Uiso   1.00
O693   O     0.70491   0.95491   0.46042   0.00000  Uiso   1.00
O694   O     0.79508   0.54509   0.53958   0.00000  Uiso   1.00
O695   O     0.79508   0.54509   0.46042   0.00000  Uiso   1.00
O696   O     0.70491   0.95491   0.53958   0.00000  Uiso   1.00
O697   O     0.95491   0.79509   0.46042   0.00000  Uiso   1.00
O698   O     0.95491   0.79509   0.53958   0.00000  Uiso   1.00
O699   O     0.54508   0.70491   0.46042   0.00000  Uiso   1.00
O700   O     0.95491   0.70491   0.46042   0.00000  Uiso   1.00
O701   O     0.54508   0.79509   0.53958   0.00000  Uiso   1.00
O702   O     0.54508   0.79509   0.46042   0.00000  Uiso   1.00
O703   O     0.95491   0.70491   0.53958   0.00000  Uiso   1.00
O704   O     0.79508   0.95491   0.53958   0.00000  Uiso   1.00
C705   C     0.05939   0.19054   0.83333   0.00000  Uiso   1.00
C706   C    -0.00000   0.28904   0.97531   0.00000  Uiso   1.00
C707   C    -0.00000   0.28904   0.69136   0.00000  Uiso   1.00
C708   C    -0.00000   0.21096   0.97531   0.00000  Uiso   1.00
C709   C     0.25000   0.46096   0.69136   0.00000  Uiso   1.00
C710   C     0.25000   0.03904   0.97531   0.00000  Uiso   1.00
C711   C     0.25000   0.03904   0.69136   0.00000  Uiso   1.00
C712   C     0.25000   0.46096   0.97531   0.00000  Uiso   1.00
C713   C     0.39097   0.14097   0.79114   0.00000  Uiso   1.00
C714   C     0.10903   0.35903   0.87553   0.00000  Uiso   1.00
C715   C     0.10903   0.35903   0.79114   0.00000  Uiso   1.00
C716   C     0.44061   0.30946   0.83333   0.00000  Uiso   1.00
C717   C     0.39097   0.14097   0.87553   0.00000  Uiso   1.00
C718   C     0.10903   0.14097   0.87553   0.00000  Uiso   1.00
C719   C     0.39097   0.35903   0.79114   0.00000  Uiso   1.00
C720   C     0.39097   0.35903   0.87553   0.00000  Uiso   1.00
C721   C     0.10903   0.14097   0.79114   0.00000  Uiso   1.00
C722   C     0.14097   0.39097   0.79114   0.00000  Uiso   1.00
C723   C     0.35903   0.10903   0.87553   0.00000  Uiso   1.00
C724   C     0.35903   0.10903   0.79114   0.00000  Uiso   1.00
C725   C     0.14097   0.39097   0.87553   0.00000  Uiso   1.00
C726   C     0.35903   0.39097   0.87553   0.00000  Uiso   1.00
C727   C     0.44061   0.19054   0.83333   0.00000  Uiso   1.00
C728   C     0.14097   0.10903   0.79114   0.00000  Uiso   1.00
C729   C     0.14097   0.10903   0.87553   0.00000  Uiso   1.00
C730   C     0.35903   0.39097   0.79114   0.00000  Uiso   1.00
C731   C     0.09290   0.34294   0.83333   0.00000  Uiso   1.00
C732   C     0.40710   0.15706   0.83333   0.00000  Uiso   1.00
C733   C     0.40710   0.34294   0.83333   0.00000  Uiso   1.00
C734   C     0.09290   0.15706   0.83333   0.00000  Uiso   1.00
C735   C     0.34290   0.09294   0.83333   0.00000  Uiso   1.00
C736   C     0.15710   0.40706   0.83333   0.00000  Uiso   1.00
C737   C     0.15710   0.09294   0.83333   0.00000  Uiso   1.00
C738   C     0.05939   0.30946   0.83333   0.00000  Uiso   1.00
C739   C     0.34290   0.40706   0.83333   0.00000  Uiso   1.00
C740   C     0.30939   0.44054   0.83333   0.00000  Uiso   1.00
C741   C     0.19061   0.05946   0.83333   0.00000  Uiso   1.00
C742   C     0.19061   0.44054   0.83333   0.00000  Uiso   1.00
C743   C     0.30939   0.05946   0.83333   0.00000  Uiso   1.00
C744   C    -0.00000   0.21096   0.69136   0.00000  Uiso   1.00
Cl745  Cl   -0.00000   0.15956   0.72057   0.00000  Uiso   1.00
Cl746  Cl   -0.00000   0.34044   0.94610   0.00000  Uiso   1.00
Cl747  Cl   -0.00000   0.34044   0.72057   0.00000  Uiso   1.00
Cl748  Cl    0.00000   0.15956   0.94610   0.00000  Uiso   1.00
Cl749  Cl    0.25000   0.40956   0.72057   0.00000  Uiso   1.00
Cl750  Cl    0.25000   0.09044   0.94610   0.00000  Uiso   1.00
Cl751  Cl    0.25000   0.09044   0.72057   0.00000  Uiso   1.00
Cl752  Cl    0.25000   0.40956   0.94610   0.00000  Uiso   1.00
Cu753  Cu   -0.00000   0.25000   0.88022   0.00000  Uiso   1.00
Cu754  Cu   -0.00000   0.25000   0.78645   0.00000  Uiso   1.00
Cu755  Cu    0.25000   0.00000   0.88022   0.00000  Uiso   1.00
Cu756  Cu    0.25000   0.00000   0.78645   0.00000  Uiso   1.00
H757   H     0.40293   0.15298   0.75812   0.00000  Uiso   1.00
H758   H     0.34706   0.09702   0.90854   0.00000  Uiso   1.00
H759   H     0.34706   0.09702   0.75812   0.00000  Uiso   1.00
H760   H     0.15293   0.40298   0.90854   0.00000  Uiso   1.00
H761   H     0.34706   0.40298   0.90854   0.00000  Uiso   1.00
H762   H     0.15293   0.09702   0.75812   0.00000  Uiso   1.00
H763   H     0.15293   0.09702   0.90854   0.00000  Uiso   1.00
H764   H     0.34706   0.40298   0.75812   0.00000  Uiso   1.00
H765   H     0.09706   0.34702   0.90854   0.00000  Uiso   1.00
H766   H     0.09706   0.34702   0.75812   0.00000  Uiso   1.00
H767   H     0.40293   0.15298   0.90854   0.00000  Uiso   1.00
H768   H     0.09706   0.15298   0.90854   0.00000  Uiso   1.00
H769   H     0.40293   0.34702   0.75812   0.00000  Uiso   1.00
H770   H     0.40293   0.34702   0.90854   0.00000  Uiso   1.00
H771   H     0.09706   0.15298   0.75812   0.00000  Uiso   1.00
H772   H     0.15293   0.40298   0.75812   0.00000  Uiso   1.00
N773   N     0.00000   0.25000   0.95069   0.00000  Uiso   1.00
N774   N    -0.00000   0.25000   0.71598   0.00000  Uiso   1.00
N775   N     0.25000   0.00000   0.95069   0.00000  Uiso   1.00
N776   N     0.25000   0.00000   0.71598   0.00000  Uiso   1.00
O777   O     0.04508   0.20491   0.87291   0.00000  Uiso   1.00
O778   O     0.20491   0.04509   0.79375   0.00000  Uiso   1.00
O779   O     0.20491   0.04509   0.87291   0.00000  Uiso   1.00
O780   O     0.29508   0.45491   0.79375   0.00000  Uiso   1.00
O781   O     0.20491   0.45491   0.79375   0.00000  Uiso   1.00
O782   O     0.29508   0.04509   0.87291   0.00000  Uiso   1.00
O783   O     0.29508   0.04509   0.79375   0.00000  Uiso   1.00
O784   O     0.20491   0.45491   0.87291   0.00000  Uiso   1.00
O785   O     0.45491   0.29509   0.79375   0.00000  Uiso   1.00
O786   O     0.45491   0.29509   0.87291   0.00000  Uiso   1.00
O787   O     0.04508   0.20491   0.79375   0.00000  Uiso   1.00
O788   O     0.45491   0.20491   0.79375   0.00000  Uiso   1.00
O789   O     0.04508   0.29509   0.87291   0.00000  Uiso   1.00
O790   O     0.04508   0.29509   0.79375   0.00000  Uiso   1.00
O791   O     0.45491   0.20491   0.87291   0.00000  Uiso   1.00
O792   O     0.29508   0.45491   0.87291   0.00000  Uiso   1.00
C793   C     0.55939   0.19054   0.83333   0.00000  Uiso   1.00
C794   C     0.50000   0.28904   0.97531   0.00000  Uiso   1.00
C795   C     0.50000   0.28904   0.69136   0.00000  Uiso   1.00
C796   C     0.50000   0.21096   0.97531   0.00000  Uiso   1.00
C797   C     0.75000   0.46096   0.69136   0.00000  Uiso   1.00
C798   C     0.75000   0.03904   0.97531   0.00000  Uiso   1.00
C799   C     0.75000   0.03904   0.69136   0.00000  Uiso   1.00
C800   C     0.75000   0.46096   0.97531   0.00000  Uiso   1.00
C801   C     0.89097   0.14097   0.79114   0.00000  Uiso   1.00
C802   C     0.60903   0.35903   0.87553   0.00000  Uiso   1.00
C803   C     0.60903   0.35903   0.79114   0.00000  Uiso   1.00
C804   C     0.94061   0.30946   0.83333   0.00000  Uiso   1.00
C805   C     0.89097   0.14097   0.87553   0.00000  Uiso   1.00
C806   C     0.60903   0.14097   0.87553   0.00000  Uiso   1.00
C807   C     0.89097   0.35903   0.79114   0.00000  Uiso   1.00
C808   C     0.89097   0.35903   0.87553   0.00000  Uiso   1.00
C809   C     0.60903   0.14097   0.79114   0.00000  Uiso   1.00
C810   C     0.64097   0.39097   0.79114   0.00000  Uiso   1.00
C811   C     0.85903   0.10903   0.87553   0.00000  Uiso   1.00
C812   C     0.85903   0.10903   0.79114   0.00000  Uiso   1.00
C813   C     0.64097   0.39097   0.87553   0.00000  Uiso   1.00
C814   C     0.85903   0.39097   0.87553   0.00000  Uiso   1.00
C815   C     0.94061   0.19054   0.83333   0.00000  Uiso   1.00
C816   C     0.64097   0.10903   0.79114   0.00000  Uiso   1.00
C817   C     0.64097   0.10903   0.87553   0.00000  Uiso   1.00
C818   C     0.85903   0.39097   0.79114   0.00000  Uiso   1.00
C819   C     0.59290   0.34294   0.83333   0.00000  Uiso   1.00
C820   C     0.90710   0.15706   0.83333   0.00000  Uiso   1.00
C821   C     0.90710   0.34294   0.83333   0.00000  Uiso   1.00
C822   C     0.59290   0.15706   0.83333   0.00000  Uiso   1.00
C823   C     0.84290   0.09294   0.83333   0.00000  Uiso   1.00
C824   C     0.65710   0.40706   0.83333   0.00000  Uiso   1.00
C825   C     0.65710   0.09294   0.83333   0.00000  Uiso   1.00
C826   C     0.55939   0.30946   0.83333   0.00000  Uiso   1.00
C827   C     0.84290   0.40706   0.83333   0.00000  Uiso   1.00
C828   C     0.80939   0.44054   0.83333   0.00000  Uiso   1.00
C829   C     0.69061   0.05946   0.83333   0.00000  Uiso   1.00
C830   C     0.69061   0.44054   0.83333   0.00000  Uiso   1.00
C831   C     0.80939   0.05946   0.83333   0.00000  Uiso   1.00
C832   C     0.50000   0.21096   0.69136   0.00000  Uiso   1.00
Cl833  Cl    0.50000   0.15956   0.72057   0.00000  Uiso   1.00
Cl834  Cl    0.50000   0.34044   0.94610   0.00000  Uiso   1.00
Cl835  Cl    0.50000   0.34044   0.72057   0.00000  Uiso   1.00
Cl836  Cl    0.50000   0.15956   0.94610   0.00000  Uiso   1.00
Cl837  Cl    0.75000   0.40956   0.72057   0.00000  Uiso   1.00
Cl838  Cl    0.75000   0.09044   0.94610   0.00000  Uiso   1.00
Cl839  Cl    0.75000   0.09044   0.72057   0.00000  Uiso   1.00
Cl840  Cl    0.75000   0.40956   0.94610   0.00000  Uiso   1.00
Cu841  Cu    0.50000   0.25000   0.88022   0.00000  Uiso   1.00
Cu842  Cu    0.50000   0.25000   0.78645   0.00000  Uiso   1.00
Cu843  Cu    0.75000   0.00000   0.88022   0.00000  Uiso   1.00
Cu844  Cu    0.75000   0.00000   0.78645   0.00000  Uiso   1.00
H845   H     0.90293   0.15298   0.75812   0.00000  Uiso   1.00
H846   H     0.84706   0.09702   0.90854   0.00000  Uiso   1.00
H847   H     0.84706   0.09702   0.75812   0.00000  Uiso   1.00
H848   H     0.65293   0.40298   0.90854   0.00000  Uiso   1.00
H849   H     0.84706   0.40298   0.90854   0.00000  Uiso   1.00
H850   H     0.65293   0.09702   0.75812   0.00000  Uiso   1.00
H851   H     0.65293   0.09702   0.90854   0.00000  Uiso   1.00
H852   H     0.84706   0.40298   0.75812   0.00000  Uiso   1.00
H853   H     0.59706   0.34702   0.90854   0.00000  Uiso   1.00
H854   H     0.59706   0.34702   0.75812   0.00000  Uiso   1.00
H855   H     0.90293   0.15298   0.90854   0.00000  Uiso   1.00
H856   H     0.59706   0.15298   0.90854   0.00000  Uiso   1.00
H857   H     0.90293   0.34702   0.75812   0.00000  Uiso   1.00
H858   H     0.90293   0.34702   0.90854   0.00000  Uiso   1.00
H859   H     0.59706   0.15298   0.75812   0.00000  Uiso   1.00
H860   H     0.65293   0.40298   0.75812   0.00000  Uiso   1.00
N861   N     0.50000   0.25000   0.95069   0.00000  Uiso   1.00
N862   N     0.50000   0.25000   0.71598   0.00000  Uiso   1.00
N863   N     0.75000   0.00000   0.95069   0.00000  Uiso   1.00
N864   N     0.75000   0.00000   0.71598   0.00000  Uiso   1.00
O865   O     0.54508   0.20491   0.87291   0.00000  Uiso   1.00
O866   O     0.70491   0.04509   0.79375   0.00000  Uiso   1.00
O867   O     0.70491   0.04509   0.87291   0.00000  Uiso   1.00
O868   O     0.79508   0.45491   0.79375   0.00000  Uiso   1.00
O869   O     0.70491   0.45491   0.79375   0.00000  Uiso   1.00
O870   O     0.79508   0.04509   0.87291   0.00000  Uiso   1.00
O871   O     0.79508   0.04509   0.79375   0.00000  Uiso   1.00
O872   O     0.70491   0.45491   0.87291   0.00000  Uiso   1.00
O873   O     0.95491   0.29509   0.79375   0.00000  Uiso   1.00
O874   O     0.95491   0.29509   0.87291   0.00000  Uiso   1.00
O875   O     0.54508   0.20491   0.79375   0.00000  Uiso   1.00
O876   O     0.95491   0.20491   0.79375   0.00000  Uiso   1.00
O877   O     0.54508   0.29509   0.87291   0.00000  Uiso   1.00
O878   O     0.54508   0.29509   0.79375   0.00000  Uiso   1.00
O879   O     0.95491   0.20491   0.87291   0.00000  Uiso   1.00
O880   O     0.79508   0.45491   0.87291   0.00000  Uiso   1.00
C881   C     0.05939   0.69054   0.83333   0.00000  Uiso   1.00
C882   C    -0.00000   0.78904   0.97531   0.00000  Uiso   1.00
C883   C    -0.00000   0.78904   0.69136   0.00000  Uiso   1.00
C884   C    -0.00000   0.71096   0.97531   0.00000  Uiso   1.00
C885   C     0.25000   0.96096   0.69136   0.00000  Uiso   1.00
C886   C     0.25000   0.53904   0.97531   0.00000  Uiso   1.00
C887   C     0.25000   0.53904   0.69136   0.00000  Uiso   1.00
C888   C     0.25000   0.96096   0.97531   0.00000  Uiso   1.00
C889   C     0.39097   0.64097   0.79114   0.00000  Uiso   1.00
C890   C     0.10903   0.85903   0.87553   0.00000  Uiso   1.00
C891   C     0.10903   0.85903   0.79114   0.00000  Uiso   1.00
C892   C     0.44061   0.80946   0.83333   0.00000  Uiso   1.00
C893   C     0.39097   0.64097   0.87553   0.00000  Uiso   1.00
C894   C     0.10903   0.64097   0.87553   0.00000  Uiso   1.00
C895   C     0.39097   0.85903   0.79114   0.00000  Uiso   1.00
C896   C     0.39097   0.85903   0.87553   0.00000  Uiso   1.00
C897   C     0.10903   0.64097   0.79114   0.00000  Uiso   1.00
C898   C     0.14097   0.89097   0.79114   0.00000  Uiso   1.00
C899   C     0.35903   0.60903   0.87553   0.00000  Uiso   1.00
C900   C     0.35903   0.60903   0.79114   0.00000  Uiso   1.00
C901   C     0.14097   0.89097   0.87553   0.00000  Uiso   1.00
C902   C     0.35903   0.89097   0.87553   0.00000  Uiso   1.00
C903   C     0.44061   0.69054   0.83333   0.00000  Uiso   1.00
C904   C     0.14097   0.60903   0.79114   0.00000  Uiso   1.00
C905   C     0.14097   0.60903   0.87553   0.00000  Uiso   1.00
C906   C     0.35903   0.89097   0.79114   0.00000  Uiso   1.00
C907   C     0.09290   0.84294   0.83333   0.00000  Uiso   1.00
C908   C     0.40710   0.65706   0.83333   0.00000  Uiso   1.00
C909   C     0.40710   0.84294   0.83333   0.00000  Uiso   1.00
C910   C     0.09290   0.65706   0.83333   0.00000  Uiso   1.00
C911   C     0.34290   0.59294   0.83333   0.00000  Uiso   1.00
C912   C     0.15710   0.90706   0.83333   0.00000  Uiso   1.00
C913   C     0.15710   0.59294   0.83333   0.00000  Uiso   1.00
C914   C     0.05939   0.80946   0.83333   0.00000  Uiso   1.00
C915   C     0.34290   0.90706   0.83333   0.00000  Uiso   1.00
C916   C     0.30939   0.94054   0.83333   0.00000  Uiso   1.00
C917   C     0.19061   0.55946   0.83333   0.00000  Uiso   1.00
C918   C     0.19061   0.94054   0.83333   0.00000  Uiso   1.00
C919   C     0.30939   0.55946   0.83333   0.00000  Uiso   1.00
C920   C    -0.00000   0.71096   0.69136   0.00000  Uiso   1.00
Cl921  Cl   -0.00000   0.65956   0.72057   0.00000  Uiso   1.00
Cl922  Cl   -0.00000   0.84044   0.94610   0.00000  Uiso   1.00
Cl923  Cl   -0.00000   0.84044   0.72057   0.00000  Uiso   1.00
Cl924  Cl    0.00000   0.65956   0.94610   0.00000  Uiso   1.00
Cl925  Cl    0.25000   0.90956   0.72057   0.00000  Uiso   1.00
Cl926  Cl    0.25000   0.59044   0.94610   0.00000  Uiso   1.00
Cl927  Cl    0.25000   0.59044   0.72057   0.00000  Uiso   1.00
Cl928  Cl    0.25000   0.90956   0.94610   0.00000  Uiso   1.00
Cu929  Cu   -0.00000   0.75000   0.88022   0.00000  Uiso   1.00
Cu930  Cu   -0.00000   0.75000   0.78645   0.00000  Uiso   1.00
Cu931  Cu    0.25000   0.50000   0.88022   0.00000  Uiso   1.00
Cu932  Cu    0.25000   0.50000   0.78645   0.00000  Uiso   1.00
H933   H     0.40293   0.65298   0.75812   0.00000  Uiso   1.00
H934   H     0.34706   0.59702   0.90854   0.00000  Uiso   1.00
H935   H     0.34706   0.59702   0.75812   0.00000  Uiso   1.00
H936   H     0.15293   0.90298   0.90854   0.00000  Uiso   1.00
H937   H     0.34706   0.90298   0.90854   0.00000  Uiso   1.00
H938   H     0.15293   0.59702   0.75812   0.00000  Uiso   1.00
H939   H     0.15293   0.59702   0.90854   0.00000  Uiso   1.00
H940   H     0.34706   0.90298   0.75812   0.00000  Uiso   1.00
H941   H     0.09706   0.84702   0.90854   0.00000  Uiso   1.00
H942   H     0.09706   0.84702   0.75812   0.00000  Uiso   1.00
H943   H     0.40293   0.65298   0.90854   0.00000  Uiso   1.00
H944   H     0.09706   0.65298   0.90854   0.00000  Uiso   1.00
H945   H     0.40293   0.84702   0.75812   0.00000  Uiso   1.00
H946   H     0.40293   0.84702   0.90854   0.00000  Uiso   1.00
H947   H     0.09706   0.65298   0.75812   0.00000  Uiso   1.00
H948   H     0.15293   0.90298   0.75812   0.00000  Uiso   1.00
N949   N     0.00000   0.75000   0.95069   0.00000  Uiso   1.00
N950   N    -0.00000   0.75000   0.71598   0.00000  Uiso   1.00
N951   N     0.25000   0.50000   0.95069   0.00000  Uiso   1.00
N952   N     0.25000   0.50000   0.71598   0.00000  Uiso   1.00
O953   O     0.04508   0.70491   0.87291   0.00000  Uiso   1.00
O954   O     0.20491   0.54509   0.79375   0.00000  Uiso   1.00
O955   O     0.20491   0.54509   0.87291   0.00000  Uiso   1.00
O956   O     0.29508   0.95491   0.79375   0.00000  Uiso   1.00
O957   O     0.20491   0.95491   0.79375   0.00000  Uiso   1.00
O958   O     0.29508   0.54509   0.87291   0.00000  Uiso   1.00
O959   O     0.29508   0.54509   0.79375   0.00000  Uiso   1.00
O960   O     0.20491   0.95491   0.87291   0.00000  Uiso   1.00
O961   O     0.45491   0.79509   0.79375   0.00000  Uiso   1.00
O962   O     0.45491   0.79509   0.87291   0.00000  Uiso   1.00
O963   O     0.04508   0.70491   0.79375   0.00000  Uiso   1.00
O964   O     0.45491   0.70491   0.79375   0.00000  Uiso   1.00
O965   O     0.04508   0.79509   0.87291   0.00000  Uiso   1.00
O966   O     0.04508   0.79509   0.79375   0.00000  Uiso   1.00
O967   O     0.45491   0.70491   0.87291   0.00000  Uiso   1.00
O968   O     0.29508   0.95491   0.87291   0.00000  Uiso   1.00
C969   C     0.55939   0.69054   0.83333   0.00000  Uiso   1.00
C970   C     0.50000   0.78904   0.97531   0.00000  Uiso   1.00
C971   C     0.50000   0.78904   0.69136   0.00000  Uiso   1.00
C972   C     0.50000   0.71096   0.97531   0.00000  Uiso   1.00
C973   C     0.75000   0.96096   0.69136   0.00000  Uiso   1.00
C974   C     0.75000   0.53904   0.97531   0.00000  Uiso   1.00
C975   C     0.75000   0.53904   0.69136   0.00000  Uiso   1.00
C976   C     0.75000   0.96096   0.97531   0.00000  Uiso   1.00
C977   C     0.89097   0.64097   0.79114   0.00000  Uiso   1.00
C978   C     0.60903   0.85903   0.87553   0.00000  Uiso   1.00
C979   C     0.60903   0.85903   0.79114   0.00000  Uiso   1.00
C980   C     0.94061   0.80946   0.83333   0.00000  Uiso   1.00
C981   C     0.89097   0.64097   0.87553   0.00000  Uiso   1.00
C982   C     0.60903   0.64097   0.87553   0.00000  Uiso   1.00
C983   C     0.89097   0.85903   0.79114   0.00000  Uiso   1.00
C984   C     0.89097   0.85903   0.87553   0.00000  Uiso   1.00
C985   C     0.60903   0.64097   0.79114   0.00000  Uiso   1.00
C986   C     0.64097   0.89097   0.79114   0.00000  Uiso   1.00
C987   C     0.85903   0.60903   0.87553   0.00000  Uiso   1.00
C988   C     0.85903   0.60903   0.79114   0.00000  Uiso   1.00
C989   C     0.64097   0.89097   0.87553   0.00000  Uiso   1.00
C990   C     0.85903   0.89097   0.87553   0.00000  Uiso   1.00
C991   C     0.94061   0.69054   0.83333   0.00000  Uiso   1.00
C992   C     0.64097   0.60903   0.79114   0.00000  Uiso   1.00
C993   C     0.64097   0.60903   0.87553   0.00000  Uiso   1.00
C994   C     0.85903   0.89097   0.79114   0.00000  Uiso   1.00
C995   C     0.59290   0.84294   0.83333   0.00000  Uiso   1.00
C996   C     0.90710   0.65706   0.83333   0.00000  Uiso   1.00
C997   C     0.90710   0.84294   0.83333   0.00000  Uiso   1.00
C998   C     0.59290   0.65706   0.83333   0.00000  Uiso   1.00
C999   C     0.84290   0.59294   0.83333   0.00000  Uiso   1.00
C1000  C     0.65710   0.90706   0.83333   0.00000  Uiso   1.00
C1001  C     0.65710   0.59294   0.83333   0.00000  Uiso   1.00
C1002  C     0.55939   0.80946   0.83333   0.00000  Uiso   1.00
C1003  C     0.84290   0.90706   0.83333   0.00000  Uiso   1.00
C1004  C     0.80939   0.94054   0.83333   0.00000  Uiso   1.00
C1005  C     0.69061   0.55946   0.83333   0.00000  Uiso   1.00
C1006  C     0.69061   0.94054   0.83333   0.00000  Uiso   1.00
C1007  C     0.80939   0.55946   0.83333   0.00000  Uiso   1.00
C1008  C     0.50000   0.71096   0.69136   0.00000  Uiso   1.00
Cl1009 Cl    0.50000   0.65956   0.72057   0.00000  Uiso   1.00
Cl1010 Cl    0.50000   0.84044   0.94610   0.00000  Uiso   1.00
Cl1011 Cl    0.50000   0.84044   0.72057   0.00000  Uiso   1.00
Cl1012 Cl    0.50000   0.65956   0.94610   0.00000  Uiso   1.00
Cl1013 Cl    0.75000   0.90956   0.72057   0.00000  Uiso   1.00
Cl1014 Cl    0.75000   0.59044   0.94610   0.00000  Uiso   1.00
Cl1015 Cl    0.75000   0.59044   0.72057   0.00000  Uiso   1.00
Cl1016 Cl    0.75000   0.90956   0.94610   0.00000  Uiso   1.00
Cu1017 Cu    0.50000   0.75000   0.88022   0.00000  Uiso   1.00
Cu1018 Cu    0.50000   0.75000   0.78645   0.00000  Uiso   1.00
Cu1019 Cu    0.75000   0.50000   0.88022   0.00000  Uiso   1.00
Cu1020 Cu    0.75000   0.50000   0.78645   0.00000  Uiso   1.00
H1021  H     0.90293   0.65298   0.75812   0.00000  Uiso   1.00
H1022  H     0.84706   0.59702   0.90854   0.00000  Uiso   1.00
H1023  H     0.84706   0.59702   0.75812   0.00000  Uiso   1.00
H1024  H     0.65293   0.90298   0.90854   0.00000  Uiso   1.00
H1025  H     0.84706   0.90298   0.90854   0.00000  Uiso   1.00
H1026  H     0.65293   0.59702   0.75812   0.00000  Uiso   1.00
H1027  H     0.65293   0.59702   0.90854   0.00000  Uiso   1.00
H1028  H     0.84706   0.90298   0.75812   0.00000  Uiso   1.00
H1029  H     0.59706   0.84702   0.90854   0.00000  Uiso   1.00
H1030  H     0.59706   0.84702   0.75812   0.00000  Uiso   1.00
H1031  H     0.90293   0.65298   0.90854   0.00000  Uiso   1.00
H1032  H     0.59706   0.65298   0.90854   0.00000  Uiso   1.00
H1033  H     0.90293   0.84702   0.75812   0.00000  Uiso   1.00
H1034  H     0.90293   0.84702   0.90854   0.00000  Uiso   1.00
H1035  H     0.59706   0.65298   0.75812   0.00000  Uiso   1.00
H1036  H     0.65293   0.90298   0.75812   0.00000  Uiso   1.00
N1037  N     0.50000   0.75000   0.95069   0.00000  Uiso   1.00
N1038  N     0.50000   0.75000   0.71598   0.00000  Uiso   1.00
N1039  N     0.75000   0.50000   0.95069   0.00000  Uiso   1.00
N1040  N     0.75000   0.50000   0.71598   0.00000  Uiso   1.00
O1041  O     0.54508   0.70491   0.87291   0.00000  Uiso   1.00
O1042  O     0.70491   0.54509   0.79375   0.00000  Uiso   1.00
O1043  O     0.70491   0.54509   0.87291   0.00000  Uiso   1.00
O1044  O     0.79508   0.95491   0.79375   0.00000  Uiso   1.00
O1045  O     0.70491   0.95491   0.79375   0.00000  Uiso   1.00
O1046  O     0.79508   0.54509   0.87291   0.00000  Uiso   1.00
O1047  O     0.79508   0.54509   0.79375   0.00000  Uiso   1.00
O1048  O     0.70491   0.95491   0.87291   0.00000  Uiso   1.00
O1049  O     0.95491   0.79509   0.79375   0.00000  Uiso   1.00
O1050  O     0.95491   0.79509   0.87291   0.00000  Uiso   1.00
O1051  O     0.54508   0.70491   0.79375   0.00000  Uiso   1.00
O1052  O     0.95491   0.70491   0.79375   0.00000  Uiso   1.00
O1053  O     0.54508   0.79509   0.87291   0.00000  Uiso   1.00
O1054  O     0.54508   0.79509   0.79375   0.00000  Uiso   1.00
O1055  O     0.95491   0.70491   0.87291   0.00000  Uiso   1.00
O1056  O     0.79508   0.95491   0.87291   0.00000  Uiso   1.00
loop_
_geom_bond_atom_site_label_1
_geom_bond_atom_site_label_2
_geom_bond_distance
_geom_bond_site_symmetry_2
_ccdc_geom_bond_type
C1     O83     1.298   .     A
C1     O73     1.298   .     A
C1     C30     1.451   .     S
C2     Cl42    1.763   .     S
C2     C355    1.422   .     S
C2     N69     1.374   .     S
C3     Cl43    1.763   .     S
C3     N70     1.374   .     A
C3     C706    1.422   1_554 S
C4     C392    1.422   .     S
C4     Cl44    1.763   .     S
C4     N69     1.374   .     S
C5     Cl45    1.763   .     S
C5     C712    1.422   1_554 S
C5     N248    1.374   .     S
C6     N71     1.374   .     A
C6     Cl46    1.763   .     S
C6     C359    1.422   .     S
C7     N72     1.374   .     A
C7     Cl47    1.763   .     S
C7     C710    1.422   1_554 S
C8     Cl48    1.763   .     S
C8     C357    1.422   .     S
C8     N247    1.374   .     S
C9     H53     1.083   .     S
C9     C20     1.383   .     A
C9     C28     1.401   .     A
C10    C27     1.401   .     A
C10    C21     1.383   .     A
C10    H61     1.083   .     S
C11    C18     1.383   .     A
C11    H62     1.083   .     S
C11    C27     1.401   .     A
C12    C29     1.451   .     S
C12    O82     1.298   .     A
C12    O81     1.298   .     A
C13    C28     1.401   .     A
C13    C19     1.383   .     A
C13    H63     1.083   .     S
C14    C30     1.401   .     A
C14    H64     1.083   .     S
C14    C25     1.383   .     A
C15    H65     1.083   .     S
C15    C29     1.401   .     A
C15    C26     1.383   .     A
C16    C29     1.401   .     A
C16    H66     1.083   .     S
C16    C22     1.383   .     A
C17    C30     1.401   .     A
C17    H67     1.083   .     S
C17    C24     1.383   .     A
C18    H68     1.083   .     S
C18    C32     1.401   .     A
C19    C31     1.401   .     A
C19    H54     1.083   .     S
C20    H55     1.083   .     S
C20    C31     1.401   .     A
C21    C32     1.401   .     A
C21    H56     1.083   .     S
C22    H57     1.083   .     S
C22    C35     1.401   .     A
C23    O84     1.298   .     A
C23    C28     1.451   .     S
C23    O87     1.298   .     A
C24    C33     1.401   .     A
C24    H58     1.083   .     S
C25    C33     1.401   .     A
C25    H59     1.083   .     S
C26    C35     1.401   .     A
C26    H60     1.083   .     S
C27    C34     1.451   .     S
C31    C39     1.451   .     S
C32    C38     1.451   .     S
C33    C37     1.451   .     S
C34    O86     1.298   .     A
C34    O85     1.298   .     A
C35    C36     1.451   .     S
C36    O88     1.298   .     A
C36    O76     1.298   .     A
C37    O74     1.298   .     A
C37    O75     1.298   .     A
C38    O77     1.298   .     A
C38    O80     1.298   .     A
C39    O78     1.298   .     A
C39    O79     1.298   .     A
C40    N70     1.374   .     A
C40    Cl41    1.763   .     S
C40    C708    1.422   1_554 S
Cu49   O175    1.964   1_455 S
Cu49   O170    1.964   1_455 S
Cu49   Cu50    2.700   .     S
Cu49   N69     2.029   .     S
Cu49   O73     1.964   .     S
Cu49   O85     1.964   .     S
Cu50   O172    1.964   1_455 S
Cu50   N70     2.029   .     S
Cu50   O169    1.964   1_455 S
Cu50   O83     1.964   .     S
Cu50   O86     1.964   .     S
Cu51   O75     1.964   .     S
Cu51   N71     2.029   .     S
Cu51   Cu52    2.700   .     S
Cu51   O78     1.964   .     S
Cu51   O256    1.964   1_545 S
Cu51   O264    1.964   1_545 S
Cu52   O74     1.964   .     S
Cu52   N72     2.029   .     S
Cu52   O79     1.964   .     S
Cu52   O252    1.964   1_545 S
Cu52   O253    1.964   1_545 S
N71    C184    1.374   1_545 S
N72    C181    1.374   1_545 S
O76    Cu228   1.964   .     S
O77    Cu228   1.964   .     S
O80    Cu227   1.964   .     S
O81    Cu138   1.964   .     S
O82    Cu137   1.964   .     S
O84    Cu138   1.964   .     S
O87    Cu137   1.964   .     S
O88    Cu227   1.964   .     S
C89    O171    1.298   .     A
C89    O161    1.298   .     A
C89    C118    1.451   .     S
C90    Cl130   1.763   .     S
C90    C443    1.422   .     S
C90    N157    1.374   .     S
C91    Cl131   1.763   .     S
C91    N158    1.374   .     A
C91    C794    1.422   1_554 S
C92    C480    1.422   .     S
C92    Cl132   1.763   .     S
C92    N157    1.374   .     S
C93    Cl133   1.763   .     S
C93    C800    1.422   1_554 S
C93    N336    1.374   .     S
C94    N159    1.374   .     A
C94    Cl134   1.763   .     S
C94    C447    1.422   .     S
C95    N160    1.374   .     A
C95    Cl135   1.763   .     S
C95    C798    1.422   1_554 S
C96    Cl136   1.763   .     S
C96    C445    1.422   .     S
C96    N335    1.374   .     S
C97    H141    1.083   .     S
C97    C108    1.383   .     A
C97    C116    1.401   .     A
C98    C115    1.401   .     A
C98    C109    1.383   .     A
C98    H149    1.083   .     S
C99    C106    1.383   .     A
C99    H150    1.083   .     S
C99    C115    1.401   .     A
C100   C117    1.451   .     S
C100   O170    1.298   .     A
C100   O169    1.298   .     A
C101   C116    1.401   .     A
C101   C107    1.383   .     A
C101   H151    1.083   .     S
C102   C118    1.401   .     A
C102   H152    1.083   .     S
C102   C113    1.383   .     A
C103   H153    1.083   .     S
C103   C117    1.401   .     A
C103   C114    1.383   .     A
C104   C117    1.401   .     A
C104   H154    1.083   .     S
C104   C110    1.383   .     A
C105   C118    1.401   .     A
C105   H155    1.083   .     S
C105   C112    1.383   .     A
C106   H156    1.083   .     S
C106   C120    1.401   .     A
C107   C119    1.401   .     A
C107   H142    1.083   .     S
C108   H143    1.083   .     S
C108   C119    1.401   .     A
C109   C120    1.401   .     A
C109   H144    1.083   .     S
C110   H145    1.083   .     S
C110   C123    1.401   .     A
C111   O172    1.298   .     A
C111   C116    1.451   .     S
C111   O175    1.298   .     A
C112   C121    1.401   .     A
C112   H146    1.083   .     S
C113   C121    1.401   .     A
C113   H147    1.083   .     S
C114   C123    1.401   .     A
C114   H148    1.083   .     S
C115   C122    1.451   .     S
C119   C127    1.451   .     S
C120   C126    1.451   .     S
C121   C125    1.451   .     S
C122   O174    1.298   .     A
C122   O173    1.298   .     A
C123   C124    1.451   .     S
C124   O176    1.298   .     A
C124   O164    1.298   .     A
C125   O162    1.298   .     A
C125   O163    1.298   .     A
C126   O165    1.298   .     A
C126   O168    1.298   .     A
C127   O166    1.298   .     A
C127   O167    1.298   .     A
C128   N158    1.374   .     A
C128   Cl129   1.763   .     S
C128   C796    1.422   1_554 S
Cu137  Cu138   2.700   .     S
Cu137  N157    2.029   .     S
Cu137  O161    1.964   .     S
Cu137  O173    1.964   .     S
Cu138  N158    2.029   .     S
Cu138  O171    1.964   .     S
Cu138  O174    1.964   .     S
Cu139  O163    1.964   .     S
Cu139  N159    2.029   .     S
Cu139  Cu140   2.700   .     S
Cu139  O166    1.964   .     S
Cu139  O344    1.964   1_545 S
Cu139  O352    1.964   1_545 S
Cu140  O162    1.964   .     S
Cu140  N160    2.029   .     S
Cu140  O167    1.964   .     S
Cu140  O340    1.964   1_545 S
Cu140  O341    1.964   1_545 S
N159   C272    1.374   1_545 S
N160   C269    1.374   1_545 S
O164   Cu316   1.964   .     S
O165   Cu316   1.964   .     S
O168   Cu315   1.964   .     S
O169   Cu50    1.964   1_655 S
O170   Cu49    1.964   1_655 S
O172   Cu50    1.964   1_655 S
O175   Cu49    1.964   1_655 S
O176   Cu315   1.964   .     S
C177   O259    1.298   .     A
C177   O249    1.298   .     A
C177   C206    1.451   .     S
C178   Cl218   1.763   .     S
C178   C531    1.422   .     S
C178   N245    1.374   .     S
C179   Cl219   1.763   .     S
C179   N246    1.374   .     A
C179   C882    1.422   1_554 S
C180   C568    1.422   .     S
C180   Cl220   1.763   .     S
C180   N245    1.374   .     S
C181   Cl221   1.763   .     S
C181   C888    1.422   1_554 S
C181   N72     1.374   1_565 S
C182   N247    1.374   .     A
C182   Cl222   1.763   .     S
C182   C535    1.422   .     S
C183   N248    1.374   .     A
C183   Cl223   1.763   .     S
C183   C886    1.422   1_554 S
C184   Cl224   1.763   .     S
C184   C533    1.422   .     S
C184   N71     1.374   1_565 S
C185   H229    1.083   .     S
C185   C196    1.383   .     A
C185   C204    1.401   .     A
C186   C203    1.401   .     A
C186   C197    1.383   .     A
C186   H237    1.083   .     S
C187   C194    1.383   .     A
C187   H238    1.083   .     S
C187   C203    1.401   .     A
C188   C205    1.451   .     S
C188   O258    1.298   .     A
C188   O257    1.298   .     A
C189   C204    1.401   .     A
C189   C195    1.383   .     A
C189   H239    1.083   .     S
C190   C206    1.401   .     A
C190   H240    1.083   .     S
C190   C201    1.383   .     A
C191   H241    1.083   .     S
C191   C205    1.401   .     A
C191   C202    1.383   .     A
C192   C205    1.401   .     A
C192   H242    1.083   .     S
C192   C198    1.383   .     A
C193   C206    1.401   .     A
C193   H243    1.083   .     S
C193   C200    1.383   .     A
C194   H244    1.083   .     S
C194   C208    1.401   .     A
C195   C207    1.401   .     A
C195   H230    1.083   .     S
C196   H231    1.083   .     S
C196   C207    1.401   .     A
C197   C208    1.401   .     A
C197   H232    1.083   .     S
C198   H233    1.083   .     S
C198   C211    1.401   .     A
C199   O260    1.298   .     A
C199   C204    1.451   .     S
C199   O263    1.298   .     A
C200   C209    1.401   .     A
C200   H234    1.083   .     S
C201   C209    1.401   .     A
C201   H235    1.083   .     S
C202   C211    1.401   .     A
C202   H236    1.083   .     S
C203   C210    1.451   .     S
C207   C215    1.451   .     S
C208   C214    1.451   .     S
C209   C213    1.451   .     S
C210   O262    1.298   .     A
C210   O261    1.298   .     A
C211   C212    1.451   .     S
C212   O264    1.298   .     A
C212   O252    1.298   .     A
C213   O250    1.298   .     A
C213   O251    1.298   .     A
C214   O253    1.298   .     A
C214   O256    1.298   .     A
C215   O254    1.298   .     A
C215   O255    1.298   .     A
C216   N246    1.374   .     A
C216   Cl217   1.763   .     S
C216   C884    1.422   1_554 S
Cu225  O351    1.964   1_455 S
Cu225  O346    1.964   1_455 S
Cu225  Cu226   2.700   .     S
Cu225  N245    2.029   .     S
Cu225  O249    1.964   .     S
Cu225  O261    1.964   .     S
Cu226  O348    1.964   1_455 S
Cu226  N246    2.029   .     S
Cu226  O345    1.964   1_455 S
Cu226  O259    1.964   .     S
Cu226  O262    1.964   .     S
Cu227  O251    1.964   .     S
Cu227  N247    2.029   .     S
Cu227  Cu228   2.700   .     S
Cu227  O254    1.964   .     S
Cu228  O250    1.964   .     S
Cu228  N248    2.029   .     S
Cu228  O255    1.964   .     S
O252   Cu52    1.964   1_565 S
O253   Cu52    1.964   1_565 S
O256   Cu51    1.964   1_565 S
O257   Cu314   1.964   .     S
O258   Cu313   1.964   .     S
O260   Cu314   1.964   .     S
O263   Cu313   1.964   .     S
O264   Cu51    1.964   1_565 S
C265   O347    1.298   .     A
C265   O337    1.298   .     A
C265   C294    1.451   .     S
C266   Cl306   1.763   .     S
C266   C619    1.422   .     S
C266   N333    1.374   .     S
C267   Cl307   1.763   .     S
C267   N334    1.374   .     A
C267   C970    1.422   1_554 S
C268   C656    1.422   .     S
C268   Cl308   1.763   .     S
C268   N333    1.374   .     S
C269   Cl309   1.763   .     S
C269   C976    1.422   1_554 S
C269   N160    1.374   1_565 S
C270   N335    1.374   .     A
C270   Cl310   1.763   .     S
C270   C623    1.422   .     S
C271   N336    1.374   .     A
C271   Cl311   1.763   .     S
C271   C974    1.422   1_554 S
C272   Cl312   1.763   .     S
C272   C621    1.422   .     S
C272   N159    1.374   1_565 S
C273   H317    1.083   .     S
C273   C284    1.383   .     A
C273   C292    1.401   .     A
C274   C291    1.401   .     A
C274   C285    1.383   .     A
C274   H325    1.083   .     S
C275   C282    1.383   .     A
C275   H326    1.083   .     S
C275   C291    1.401   .     A
C276   C293    1.451   .     S
C276   O346    1.298   .     A
C276   O345    1.298   .     A
C277   C292    1.401   .     A
C277   C283    1.383   .     A
C277   H327    1.083   .     S
C278   C294    1.401   .     A
C278   H328    1.083   .     S
C278   C289    1.383   .     A
C279   H329    1.083   .     S
C279   C293    1.401   .     A
C279   C290    1.383   .     A
C280   C293    1.401   .     A
C280   H330    1.083   .     S
C280   C286    1.383   .     A
C281   C294    1.401   .     A
C281   H331    1.083   .     S
C281   C288    1.383   .     A
C282   H332    1.083   .     S
C282   C296    1.401   .     A
C283   C295    1.401   .     A
C283   H318    1.083   .     S
C284   H319    1.083   .     S
C284   C295    1.401   .     A
C285   C296    1.401   .     A
C285   H320    1.083   .     S
C286   H321    1.083   .     S
C286   C299    1.401   .     A
C287   O348    1.298   .     A
C287   C292    1.451   .     S
C287   O351    1.298   .     A
C288   C297    1.401   .     A
C288   H322    1.083   .     S
C289   C297    1.401   .     A
C289   H323    1.083   .     S
C290   C299    1.401   .     A
C290   H324    1.083   .     S
C291   C298    1.451   .     S
C295   C303    1.451   .     S
C296   C302    1.451   .     S
C297   C301    1.451   .     S
C298   O350    1.298   .     A
C298   O349    1.298   .     A
C299   C300    1.451   .     S
C300   O352    1.298   .     A
C300   O340    1.298   .     A
C301   O338    1.298   .     A
C301   O339    1.298   .     A
C302   O341    1.298   .     A
C302   O344    1.298   .     A
C303   O342    1.298   .     A
C303   O343    1.298   .     A
C304   N334    1.374   .     A
C304   Cl305   1.763   .     S
C304   C972    1.422   1_554 S
Cu313  Cu314   2.700   .     S
Cu313  N333    2.029   .     S
Cu313  O337    1.964   .     S
Cu313  O349    1.964   .     S
Cu314  N334    2.029   .     S
Cu314  O347    1.964   .     S
Cu314  O350    1.964   .     S
Cu315  O339    1.964   .     S
Cu315  N335    2.029   .     S
Cu315  Cu316   2.700   .     S
Cu315  O342    1.964   .     S
Cu316  O338    1.964   .     S
Cu316  N336    2.029   .     S
Cu316  O343    1.964   .     S
O340   Cu140   1.964   1_565 S
O341   Cu140   1.964   1_565 S
O344   Cu139   1.964   1_565 S
O345   Cu226   1.964   1_655 S
O346   Cu225   1.964   1_655 S
O348   Cu226   1.964   1_655 S
O351   Cu225   1.964   1_655 S
O352   Cu139   1.964   1_565 S
C353   O435    1.298   .     A
C353   O425    1.298   .     A
C353   C382    1.451   .     S
C354   Cl394   1.763   .     S
C354   C707    1.422   .     S
C354   N421    1.374   .     S
C355   Cl395   1.763   .     S
C355   N422    1.374   .     A
C356   C744    1.422   .     S
C356   Cl396   1.763   .     S
C356   N421    1.374   .     S
C357   Cl397   1.763   .     S
C357   N600    1.374   .     S
C358   N423    1.374   .     A
C358   Cl398   1.763   .     S
C358   C711    1.422   .     S
C359   N424    1.374   .     A
C359   Cl399   1.763   .     S
C360   Cl400   1.763   .     S
C360   C709    1.422   .     S
C360   N599    1.374   .     S
C361   H405    1.083   .     S
C361   C372    1.383   .     A
C361   C380    1.401   .     A
C362   C379    1.401   .     A
C362   C373    1.383   .     A
C362   H413    1.083   .     S
C363   C370    1.383   .     A
C363   H414    1.083   .     S
C363   C379    1.401   .     A
C364   C381    1.451   .     S
C364   O434    1.298   .     A
C364   O433    1.298   .     A
C365   C380    1.401   .     A
C365   C371    1.383   .     A
C365   H415    1.083   .     S
C366   C382    1.401   .     A
C366   H416    1.083   .     S
C366   C377    1.383   .     A
C367   H417    1.083   .     S
C367   C381    1.401   .     A
C367   C378    1.383   .     A
C368   C381    1.401   .     A
C368   H418    1.083   .     S
C368   C374    1.383   .     A
C369   C382    1.401   .     A
C369   H419    1.083   .     S
C369   C376    1.383   .     A
C370   H420    1.083   .     S
C370   C384    1.401   .     A
C371   C383    1.401   .     A
C371   H406    1.083   .     S
C372   H407    1.083   .     S
C372   C383    1.401   .     A
C373   C384    1.401   .     A
C373   H408    1.083   .     S
C374   H409    1.083   .     S
C374   C387    1.401   .     A
C375   O436    1.298   .     A
C375   C380    1.451   .     S
C375   O439    1.298   .     A
C376   C385    1.401   .     A
C376   H410    1.083   .     S
C377   C385    1.401   .     A
C377   H411    1.083   .     S
C378   C387    1.401   .     A
C378   H412    1.083   .     S
C379   C386    1.451   .     S
C383   C391    1.451   .     S
C384   C390    1.451   .     S
C385   C389    1.451   .     S
C386   O438    1.298   .     A
C386   O437    1.298   .     A
C387   C388    1.451   .     S
C388   O440    1.298   .     A
C388   O428    1.298   .     A
C389   O426    1.298   .     A
C389   O427    1.298   .     A
C390   O429    1.298   .     A
C390   O432    1.298   .     A
C391   O430    1.298   .     A
C391   O431    1.298   .     A
C392   N422    1.374   .     A
C392   Cl393   1.763   .     S
Cu401  O527    1.964   1_455 S
Cu401  O522    1.964   1_455 S
Cu401  Cu402   2.700   .     S
Cu401  N421    2.029   .     S
Cu401  O425    1.964   .     S
Cu401  O437    1.964   .     S
Cu402  O524    1.964   1_455 S
Cu402  N422    2.029   .     S
Cu402  O521    1.964   1_455 S
Cu402  O435    1.964   .     S
Cu402  O438    1.964   .     S
Cu403  O427    1.964   .     S
Cu403  N423    2.029   .     S
Cu403  Cu404   2.700   .     S
Cu403  O430    1.964   .     S
Cu403  O608    1.964   1_545 S
Cu403  O616    1.964   1_545 S
Cu404  O426    1.964   .     S
Cu404  N424    2.029   .     S
Cu404  O431    1.964   .     S
Cu404  O604    1.964   1_545 S
Cu404  O605    1.964   1_545 S
N423   C536    1.374   1_545 S
N424   C533    1.374   1_545 S
O428   Cu580   1.964   .     S
O429   Cu580   1.964   .     S
O432   Cu579   1.964   .     S
O433   Cu490   1.964   .     S
O434   Cu489   1.964   .     S
O436   Cu490   1.964   .     S
O439   Cu489   1.964   .     S
O440   Cu579   1.964   .     S
C441   O523    1.298   .     A
C441   O513    1.298   .     A
C441   C470    1.451   .     S
C442   Cl482   1.763   .     S
C442   C795    1.422   .     S
C442   N509    1.374   .     S
C443   Cl483   1.763   .     S
C443   N510    1.374   .     A
C444   C832    1.422   .     S
C444   Cl484   1.763   .     S
C444   N509    1.374   .     S
C445   Cl485   1.763   .     S
C445   N688    1.374   .     S
C446   N511    1.374   .     A
C446   Cl486   1.763   .     S
C446   C799    1.422   .     S
C447   N512    1.374   .     A
C447   Cl487   1.763   .     S
C448   Cl488   1.763   .     S
C448   C797    1.422   .     S
C448   N687    1.374   .     S
C449   H493    1.083   .     S
C449   C460    1.383   .     A
C449   C468    1.401   .     A
C450   C467    1.401   .     A
C450   C461    1.383   .     A
C450   H501    1.083   .     S
C451   C458    1.383   .     A
C451   H502    1.083   .     S
C451   C467    1.401   .     A
C452   C469    1.451   .     S
C452   O522    1.298   .     A
C452   O521    1.298   .     A
C453   C468    1.401   .     A
C453   C459    1.383   .     A
C453   H503    1.083   .     S
C454   C470    1.401   .     A
C454   H504    1.083   .     S
C454   C465    1.383   .     A
C455   H505    1.083   .     S
C455   C469    1.401   .     A
C455   C466    1.383   .     A
C456   C469    1.401   .     A
C456   H506    1.083   .     S
C456   C462    1.383   .     A
C457   C470    1.401   .     A
C457   H507    1.083   .     S
C457   C464    1.383   .     A
C458   H508    1.083   .     S
C458   C472    1.401   .     A
C459   C471    1.401   .     A
C459   H494    1.083   .     S
C460   H495    1.083   .     S
C460   C471    1.401   .     A
C461   C472    1.401   .     A
C461   H496    1.083   .     S
C462   H497    1.083   .     S
C462   C475    1.401   .     A
C463   O524    1.298   .     A
C463   C468    1.451   .     S
C463   O527    1.298   .     A
C464   C473    1.401   .     A
C464   H498    1.083   .     S
C465   C473    1.401   .     A
C465   H499    1.083   .     S
C466   C475    1.401   .     A
C466   H500    1.083   .     S
C467   C474    1.451   .     S
C471   C479    1.451   .     S
C472   C478    1.451   .     S
C473   C477    1.451   .     S
C474   O526    1.298   .     A
C474   O525    1.298   .     A
C475   C476    1.451   .     S
C476   O528    1.298   .     A
C476   O516    1.298   .     A
C477   O514    1.298   .     A
C477   O515    1.298   .     A
C478   O517    1.298   .     A
C478   O520    1.298   .     A
C479   O518    1.298   .     A
C479   O519    1.298   .     A
C480   N510    1.374   .     A
C480   Cl481   1.763   .     S
Cu489  Cu490   2.700   .     S
Cu489  N509    2.029   .     S
Cu489  O513    1.964   .     S
Cu489  O525    1.964   .     S
Cu490  N510    2.029   .     S
Cu490  O523    1.964   .     S
Cu490  O526    1.964   .     S
Cu491  O515    1.964   .     S
Cu491  N511    2.029   .     S
Cu491  Cu492   2.700   .     S
Cu491  O518    1.964   .     S
Cu491  O696    1.964   1_545 S
Cu491  O704    1.964   1_545 S
Cu492  O514    1.964   .     S
Cu492  N512    2.029   .     S
Cu492  O519    1.964   .     S
Cu492  O692    1.964   1_545 S
Cu492  O693    1.964   1_545 S
N511   C624    1.374   1_545 S
N512   C621    1.374   1_545 S
O516   Cu668   1.964   .     S
O517   Cu668   1.964   .     S
O520   Cu667   1.964   .     S
O521   Cu402   1.964   1_655 S
O522   Cu401   1.964   1_655 S
O524   Cu402   1.964   1_655 S
O527   Cu401   1.964   1_655 S
O528   Cu667   1.964   .     S
C529   O611    1.298   .     A
C529   O601    1.298   .     A
C529   C558    1.451   .     S
C530   Cl570   1.763   .     S
C530   C883    1.422   .     S
C530   N597    1.374   .     S
C531   Cl571   1.763   .     S
C531   N598    1.374   .     A
C532   C920    1.422   .     S
C532   Cl572   1.763   .     S
C532   N597    1.374   .     S
C533   Cl573   1.763   .     S
C533   N424    1.374   1_565 S
C534   N599    1.374   .     A
C534   Cl574   1.763   .     S
C534   C887    1.422   .     S
C535   N600    1.374   .     A
C535   Cl575   1.763   .     S
C536   Cl576   1.763   .     S
C536   C885    1.422   .     S
C536   N423    1.374   1_565 S
C537   H581    1.083   .     S
C537   C548    1.383   .     A
C537   C556    1.401   .     A
C538   C555    1.401   .     A
C538   C549    1.383   .     A
C538   H589    1.083   .     S
C539   C546    1.383   .     A
C539   H590    1.083   .     S
C539   C555    1.401   .     A
C540   C557    1.451   .     S
C540   O610    1.298   .     A
C540   O609    1.298   .     A
C541   C556    1.401   .     A
C541   C547    1.383   .     A
C541   H591    1.083   .     S
C542   C558    1.401   .     A
C542   H592    1.083   .     S
C542   C553    1.383   .     A
C543   H593    1.083   .     S
C543   C557    1.401   .     A
C543   C554    1.383   .     A
C544   C557    1.401   .     A
C544   H594    1.083   .     S
C544   C550    1.383   .     A
C545   C558    1.401   .     A
C545   H595    1.083   .     S
C545   C552    1.383   .     A
C546   H596    1.083   .     S
C546   C560    1.401   .     A
C547   C559    1.401   .     A
C547   H582    1.083   .     S
C548   H583    1.083   .     S
C548   C559    1.401   .     A
C549   C560    1.401   .     A
C549   H584    1.083   .     S
C550   H585    1.083   .     S
C550   C563    1.401   .     A
C551   O612    1.298   .     A
C551   C556    1.451   .     S
C551   O615    1.298   .     A
C552   C561    1.401   .     A
C552   H586    1.083   .     S
C553   C561    1.401   .     A
C553   H587    1.083   .     S
C554   C563    1.401   .     A
C554   H588    1.083   .     S
C555   C562    1.451   .     S
C559   C567    1.451   .     S
C560   C566    1.451   .     S
C561   C565    1.451   .     S
C562   O614    1.298   .     A
C562   O613    1.298   .     A
C563   C564    1.451   .     S
C564   O616    1.298   .     A
C564   O604    1.298   .     A
C565   O602    1.298   .     A
C565   O603    1.298   .     A
C566   O605    1.298   .     A
C566   O608    1.298   .     A
C567   O606    1.298   .     A
C567   O607    1.298   .     A
C568   N598    1.374   .     A
C568   Cl569   1.763   .     S
Cu577  O703    1.964   1_455 S
Cu577  O698    1.964   1_455 S
Cu577  Cu578   2.700   .     S
Cu577  N597    2.029   .     S
Cu577  O601    1.964   .     S
Cu577  O613    1.964   .     S
Cu578  O700    1.964   1_455 S
Cu578  N598    2.029   .     S
Cu578  O697    1.964   1_455 S
Cu578  O611    1.964   .     S
Cu578  O614    1.964   .     S
Cu579  O603    1.964   .     S
Cu579  N599    2.029   .     S
Cu579  Cu580   2.700   .     S
Cu579  O606    1.964   .     S
Cu580  O602    1.964   .     S
Cu580  N600    2.029   .     S
Cu580  O607    1.964   .     S
O604   Cu404   1.964   1_565 S
O605   Cu404   1.964   1_565 S
O608   Cu403   1.964   1_565 S
O609   Cu666   1.964   .     S
O610   Cu665   1.964   .     S
O612   Cu666   1.964   .     S
O615   Cu665   1.964   .     S
O616   Cu403   1.964   1_565 S
C617   O699    1.298   .     A
C617   O689    1.298   .     A
C617   C646    1.451   .     S
C618   Cl658   1.763   .     S
C618   C971    1.422   .     S
C618   N685    1.374   .     S
C619   Cl659   1.763   .     S
C619   N686    1.374   .     A
C620   C1008   1.422   .     S
C620   Cl660   1.763   .     S
C620   N685    1.374   .     S
C621   Cl661   1.763   .     S
C621   N512    1.374   1_565 S
C622   N687    1.374   .     A
C622   Cl662   1.763   .     S
C622   C975    1.422   .     S
C623   N688    1.374   .     A
C623   Cl663   1.763   .     S
C624   Cl664   1.763   .     S
C624   C973    1.422   .     S
C624   N511    1.374   1_565 S
C625   H669    1.083   .     S
C625   C636    1.383   .     A
C625   C644    1.401   .     A
C626   C643    1.401   .     A
C626   C637    1.383   .     A
C626   H677    1.083   .     S
C627   C634    1.383   .     A
C627   H678    1.083   .     S
C627   C643    1.401   .     A
C628   C645    1.451   .     S
C628   O698    1.298   .     A
C628   O697    1.298   .     A
C629   C644    1.401   .     A
C629   C635    1.383   .     A
C629   H679    1.083   .     S
C630   C646    1.401   .     A
C630   H680    1.083   .     S
C630   C641    1.383   .     A
C631   H681    1.083   .     S
C631   C645    1.401   .     A
C631   C642    1.383   .     A
C632   C645    1.401   .     A
C632   H682    1.083   .     S
C632   C638    1.383   .     A
C633   C646    1.401   .     A
C633   H683    1.083   .     S
C633   C640    1.383   .     A
C634   H684    1.083   .     S
C634   C648    1.401   .     A
C635   C647    1.401   .     A
C635   H670    1.083   .     S
C636   H671    1.083   .     S
C636   C647    1.401   .     A
C637   C648    1.401   .     A
C637   H672    1.083   .     S
C638   H673    1.083   .     S
C638   C651    1.401   .     A
C639   O700    1.298   .     A
C639   C644    1.451   .     S
C639   O703    1.298   .     A
C640   C649    1.401   .     A
C640   H674    1.083   .     S
C641   C649    1.401   .     A
C641   H675    1.083   .     S
C642   C651    1.401   .     A
C642   H676    1.083   .     S
C643   C650    1.451   .     S
C647   C655    1.451   .     S
C648   C654    1.451   .     S
C649   C653    1.451   .     S
C650   O702    1.298   .     A
C650   O701    1.298   .     A
C651   C652    1.451   .     S
C652   O704    1.298   .     A
C652   O692    1.298   .     A
C653   O690    1.298   .     A
C653   O691    1.298   .     A
C654   O693    1.298   .     A
C654   O696    1.298   .     A
C655   O694    1.298   .     A
C655   O695    1.298   .     A
C656   N686    1.374   .     A
C656   Cl657   1.763   .     S
Cu665  Cu666   2.700   .     S
Cu665  N685    2.029   .     S
Cu665  O689    1.964   .     S
Cu665  O701    1.964   .     S
Cu666  N686    2.029   .     S
Cu666  O699    1.964   .     S
Cu666  O702    1.964   .     S
Cu667  O691    1.964   .     S
Cu667  N687    2.029   .     S
Cu667  Cu668   2.700   .     S
Cu667  O694    1.964   .     S
Cu668  O690    1.964   .     S
Cu668  N688    2.029   .     S
Cu668  O695    1.964   .     S
O692   Cu492   1.964   1_565 S
O693   Cu492   1.964   1_565 S
O696   Cu491   1.964   1_565 S
O697   Cu578   1.964   1_655 S
O698   Cu577   1.964   1_655 S
O700   Cu578   1.964   1_655 S
O703   Cu577   1.964   1_655 S
O704   Cu491   1.964   1_565 S
C705   O787    1.298   .     A
C705   O777    1.298   .     A
C705   C734    1.451   .     S
C706   Cl746   1.763   .     S
C706   C3      1.422   1_556 S
C706   N773    1.374   .     S
C707   Cl747   1.763   .     S
C707   N774    1.374   .     A
C708   C40     1.422   1_556 S
C708   Cl748   1.763   .     S
C708   N773    1.374   .     S
C709   Cl749   1.763   .     S
C709   N952    1.374   .     S
C710   N775    1.374   .     A
C710   Cl750   1.763   .     S
C710   C7      1.422   1_556 S
C711   N776    1.374   .     A
C711   Cl751   1.763   .     S
C712   Cl752   1.763   .     S
C712   C5      1.422   1_556 S
C712   N951    1.374   .     S
C713   H757    1.083   .     S
C713   C724    1.383   .     A
C713   C732    1.401   .     A
C714   C731    1.401   .     A
C714   C725    1.383   .     A
C714   H765    1.083   .     S
C715   C722    1.383   .     A
C715   H766    1.083   .     S
C715   C731    1.401   .     A
C716   C733    1.451   .     S
C716   O786    1.298   .     A
C716   O785    1.298   .     A
C717   C732    1.401   .     A
C717   C723    1.383   .     A
C717   H767    1.083   .     S
C718   C734    1.401   .     A
C718   H768    1.083   .     S
C718   C729    1.383   .     A
C719   H769    1.083   .     S
C719   C733    1.401   .     A
C719   C730    1.383   .     A
C720   C733    1.401   .     A
C720   H770    1.083   .     S
C720   C726    1.383   .     A
C721   C734    1.401   .     A
C721   H771    1.083   .     S
C721   C728    1.383   .     A
C722   H772    1.083   .     S
C722   C736    1.401   .     A
C723   C735    1.401   .     A
C723   H758    1.083   .     S
C724   H759    1.083   .     S
C724   C735    1.401   .     A
C725   C736    1.401   .     A
C725   H760    1.083   .     S
C726   H761    1.083   .     S
C726   C739    1.401   .     A
C727   O788    1.298   .     A
C727   C732    1.451   .     S
C727   O791    1.298   .     A
C728   C737    1.401   .     A
C728   H762    1.083   .     S
C729   C737    1.401   .     A
C729   H763    1.083   .     S
C730   C739    1.401   .     A
C730   H764    1.083   .     S
C731   C738    1.451   .     S
C735   C743    1.451   .     S
C736   C742    1.451   .     S
C737   C741    1.451   .     S
C738   O790    1.298   .     A
C738   O789    1.298   .     A
C739   C740    1.451   .     S
C740   O792    1.298   .     A
C740   O780    1.298   .     A
C741   O778    1.298   .     A
C741   O779    1.298   .     A
C742   O781    1.298   .     A
C742   O784    1.298   .     A
C743   O782    1.298   .     A
C743   O783    1.298   .     A
C744   N774    1.374   .     A
C744   Cl745   1.763   .     S
Cu753  O879    1.964   1_455 S
Cu753  O874    1.964   1_455 S
Cu753  Cu754   2.700   .     S
Cu753  N773    2.029   .     S
Cu753  O777    1.964   .     S
Cu753  O789    1.964   .     S
Cu754  O876    1.964   1_455 S
Cu754  N774    2.029   .     S
Cu754  O873    1.964   1_455 S
Cu754  O787    1.964   .     S
Cu754  O790    1.964   .     S
Cu755  O779    1.964   .     S
Cu755  N775    2.029   .     S
Cu755  Cu756   2.700   .     S
Cu755  O782    1.964   .     S
Cu755  O960    1.964   1_545 S
Cu755  O968    1.964   1_545 S
Cu756  O778    1.964   .     S
Cu756  N776    2.029   .     S
Cu756  O783    1.964   .     S
Cu756  O956    1.964   1_545 S
Cu756  O957    1.964   1_545 S
N775   C888    1.374   1_545 S
N776   C885    1.374   1_545 S
O780   Cu932   1.964   .     S
O781   Cu932   1.964   .     S
O784   Cu931   1.964   .     S
O785   Cu842   1.964   .     S
O786   Cu841   1.964   .     S
O788   Cu842   1.964   .     S
O791   Cu841   1.964   .     S
O792   Cu931   1.964   .     S
C793   O875    1.298   .     A
C793   O865    1.298   .     A
C793   C822    1.451   .     S
C794   Cl834   1.763   .     S
C794   C91     1.422   1_556 S
C794   N861    1.374   .     S
C795   Cl835   1.763   .     S
C795   N862    1.374   .     A
C796   C128    1.422   1_556 S
C796   Cl836   1.763   .     S
C796   N861    1.374   .     S
C797   Cl837   1.763   .     S
C797   N1040   1.374   .     S
C798   N863    1.374   .     A
C798   Cl838   1.763   .     S
C798   C95     1.422   1_556 S
C799   N864    1.374   .     A
C799   Cl839   1.763   .     S
C800   Cl840   1.763   .     S
C800   C93     1.422   1_556 S
C800   N1039   1.374   .     S
C801   H845    1.083   .     S
C801   C812    1.383   .     A
C801   C820    1.401   .     A
C802   C819    1.401   .     A
C802   C813    1.383   .     A
C802   H853    1.083   .     S
C803   C810    1.383   .     A
C803   H854    1.083   .     S
C803   C819    1.401   .     A
C804   C821    1.451   .     S
C804   O874    1.298   .     A
C804   O873    1.298   .     A
C805   C820    1.401   .     A
C805   C811    1.383   .     A
C805   H855    1.083   .     S
C806   C822    1.401   .     A
C806   H856    1.083   .     S
C806   C817    1.383   .     A
C807   H857    1.083   .     S
C807   C821    1.401   .     A
C807   C818    1.383   .     A
C808   C821    1.401   .     A
C808   H858    1.083   .     S
C808   C814    1.383   .     A
C809   C822    1.401   .     A
C809   H859    1.083   .     S
C809   C816    1.383   .     A
C810   H860    1.083   .     S
C810   C824    1.401   .     A
C811   C823    1.401   .     A
C811   H846    1.083   .     S
C812   H847    1.083   .     S
C812   C823    1.401   .     A
C813   C824    1.401   .     A
C813   H848    1.083   .     S
C814   H849    1.083   .     S
C814   C827    1.401   .     A
C815   O876    1.298   .     A
C815   C820    1.451   .     S
C815   O879    1.298   .     A
C816   C825    1.401   .     A
C816   H850    1.083   .     S
C817   C825    1.401   .     A
C817   H851    1.083   .     S
C818   C827    1.401   .     A
C818   H852    1.083   .     S
C819   C826    1.451   .     S
C823   C831    1.451   .     S
C824   C830    1.451   .     S
C825   C829    1.451   .     S
C826   O878    1.298   .     A
C826   O877    1.298   .     A
C827   C828    1.451   .     S
C828   O880    1.298   .     A
C828   O868    1.298   .     A
C829   O866    1.298   .     A
C829   O867    1.298   .     A
C830   O869    1.298   .     A
C830   O872    1.298   .     A
C831   O870    1.298   .     A
C831   O871    1.298   .     A
C832   N862    1.374   .     A
C832   Cl833   1.763   .     S
Cu841  Cu842   2.700   .     S
Cu841  N861    2.029   .     S
Cu841  O865    1.964   .     S
Cu841  O877    1.964   .     S
Cu842  N862    2.029   .     S
Cu842  O875    1.964   .     S
Cu842  O878    1.964   .     S
Cu843  O867    1.964   .     S
Cu843  N863    2.029   .     S
Cu843  Cu844   2.700   .     S
Cu843  O870    1.964   .     S
Cu843  O1048   1.964   1_545 S
Cu843  O1056   1.964   1_545 S
Cu844  O866    1.964   .     S
Cu844  N864    2.029   .     S
Cu844  O871    1.964   .     S
Cu844  O1044   1.964   1_545 S
Cu844  O1045   1.964   1_545 S
N863   C976    1.374   1_545 S
N864   C973    1.374   1_545 S
O868   Cu1020  1.964   .     S
O869   Cu1020  1.964   .     S
O872   Cu1019  1.964   .     S
O873   Cu754   1.964   1_655 S
O874   Cu753   1.964   1_655 S
O876   Cu754   1.964   1_655 S
O879   Cu753   1.964   1_655 S
O880   Cu1019  1.964   .     S
C881   O963    1.298   .     A
C881   O953    1.298   .     A
C881   C910    1.451   .     S
C882   Cl922   1.763   .     S
C882   C179    1.422   1_556 S
C882   N949    1.374   .     S
C883   Cl923   1.763   .     S
C883   N950    1.374   .     A
C884   C216    1.422   1_556 S
C884   Cl924   1.763   .     S
C884   N949    1.374   .     S
C885   Cl925   1.763   .     S
C885   N776    1.374   1_565 S
C886   N951    1.374   .     A
C886   Cl926   1.763   .     S
C886   C183    1.422   1_556 S
C887   N952    1.374   .     A
C887   Cl927   1.763   .     S
C888   Cl928   1.763   .     S
C888   C181    1.422   1_556 S
C888   N775    1.374   1_565 S
C889   H933    1.083   .     S
C889   C900    1.383   .     A
C889   C908    1.401   .     A
C890   C907    1.401   .     A
C890   C901    1.383   .     A
C890   H941    1.083   .     S
C891   C898    1.383   .     A
C891   H942    1.083   .     S
C891   C907    1.401   .     A
C892   C909    1.451   .     S
C892   O962    1.298   .     A
C892   O961    1.298   .     A
C893   C908    1.401   .     A
C893   C899    1.383   .     A
C893   H943    1.083   .     S
C894   C910    1.401   .     A
C894   H944    1.083   .     S
C894   C905    1.383   .     A
C895   H945    1.083   .     S
C895   C909    1.401   .     A
C895   C906    1.383   .     A
C896   C909    1.401   .     A
C896   H946    1.083   .     S
C896   C902    1.383   .     A
C897   C910    1.401   .     A
C897   H947    1.083   .     S
C897   C904    1.383   .     A
C898   H948    1.083   .     S
C898   C912    1.401   .     A
C899   C911    1.401   .     A
C899   H934    1.083   .     S
C900   H935    1.083   .     S
C900   C911    1.401   .     A
C901   C912    1.401   .     A
C901   H936    1.083   .     S
C902   H937    1.083   .     S
C902   C915    1.401   .     A
C903   O964    1.298   .     A
C903   C908    1.451   .     S
C903   O967    1.298   .     A
C904   C913    1.401   .     A
C904   H938    1.083   .     S
C905   C913    1.401   .     A
C905   H939    1.083   .     S
C906   C915    1.401   .     A
C906   H940    1.083   .     S
C907   C914    1.451   .     S
C911   C919    1.451   .     S
C912   C918    1.451   .     S
C913   C917    1.451   .     S
C914   O966    1.298   .     A
C914   O965    1.298   .     A
C915   C916    1.451   .     S
C916   O968    1.298   .     A
C916   O956    1.298   .     A
C917   O954    1.298   .     A
C917   O955    1.298   .     A
C918   O957    1.298   .     A
C918   O960    1.298   .     A
C919   O958    1.298   .     A
C919   O959    1.298   .     A
C920   N950    1.374   .     A
C920   Cl921   1.763   .     S
Cu929  O1055   1.964   1_455 S
Cu929  O1050   1.964   1_455 S
Cu929  Cu930   2.700   .     S
Cu929  N949    2.029   .     S
Cu929  O953    1.964   .     S
Cu929  O965    1.964   .     S
Cu930  O1052   1.964   1_455 S
Cu930  N950    2.029   .     S
Cu930  O1049   1.964   1_455 S
Cu930  O963    1.964   .     S
Cu930  O966    1.964   .     S
Cu931  O955    1.964   .     S
Cu931  N951    2.029   .     S
Cu931  Cu932   2.700   .     S
Cu931  O958    1.964   .     S
Cu932  O954    1.964   .     S
Cu932  N952    2.029   .     S
Cu932  O959    1.964   .     S
O956   Cu756   1.964   1_565 S
O957   Cu756   1.964   1_565 S
O960   Cu755   1.964   1_565 S
O961   Cu1018  1.964   .     S
O962   Cu1017  1.964   .     S
O964   Cu1018  1.964   .     S
O967   Cu1017  1.964   .     S
O968   Cu755   1.964   1_565 S
C969   O1051   1.298   .     A
C969   O1041   1.298   .     A
C969   C998    1.451   .     S
C970   Cl1010  1.763   .     S
C970   C267    1.422   1_556 S
C970   N1037   1.374   .     S
C971   Cl1011  1.763   .     S
C971   N1038   1.374   .     A
C972   C304    1.422   1_556 S
C972   Cl1012  1.763   .     S
C972   N1037   1.374   .     S
C973   Cl1013  1.763   .     S
C973   N864    1.374   1_565 S
C974   N1039   1.374   .     A
C974   Cl1014  1.763   .     S
C974   C271    1.422   1_556 S
C975   N1040   1.374   .     A
C975   Cl1015  1.763   .     S
C976   Cl1016  1.763   .     S
C976   C269    1.422   1_556 S
C976   N863    1.374   1_565 S
C977   H1021   1.083   .     S
C977   C988    1.383   .     A
C977   C996    1.401   .     A
C978   C995    1.401   .     A
C978   C989    1.383   .     A
C978   H1029   1.083   .     S
C979   C986    1.383   .     A
C979   H1030   1.083   .     S
C979   C995    1.401   .     A
C980   C997    1.451   .     S
C980   O1050   1.298   .     A
C980   O1049   1.298   .     A
C981   C996    1.401   .     A
C981   C987    1.383   .     A
C981   H1031   1.083   .     S
C982   C998    1.401   .     A
C982   H1032   1.083   .     S
C982   C993    1.383   .     A
C983   H1033   1.083   .     S
C983   C997    1.401   .     A
C983   C994    1.383   .     A
C984   C997    1.401   .     A
C984   H1034   1.083   .     S
C984   C990    1.383   .     A
C985   C998    1.401   .     A
C985   H1035   1.083   .     S
C985   C992    1.383   .     A
C986   H1036   1.083   .     S
C986   C1000   1.401   .     A
C987   C999    1.401   .     A
C987   H1022   1.083   .     S
C988   H1023   1.083   .     S
C988   C999    1.401   .     A
C989   C1000   1.401   .     A
C989   H1024   1.083   .     S
C990   H1025   1.083   .     S
C990   C1003   1.401   .     A
C991   O1052   1.298   .     A
C991   C996    1.451   .     S
C991   O1055   1.298   .     A
C992   C1001   1.401   .     A
C992   H1026   1.083   .     S
C993   C1001   1.401   .     A
C993   H1027   1.083   .     S
C994   C1003   1.401   .     A
C994   H1028   1.083   .     S
C995   C1002   1.451   .     S
C999   C1007   1.451   .     S
C1000  C1006   1.451   .     S
C1001  C1005   1.451   .     S
C1002  O1054   1.298   .     A
C1002  O1053   1.298   .     A
C1003  C1004   1.451   .     S
C1004  O1056   1.298   .     A
C1004  O1044   1.298   .     A
C1005  O1042   1.298   .     A
C1005  O1043   1.298   .     A
C1006  O1045   1.298   .     A
C1006  O1048   1.298   .     A
C1007  O1046   1.298   .     A
C1007  O1047   1.298   .     A
C1008  N1038   1.374   .     A
C1008  Cl1009  1.763   .     S
Cu1017 Cu1018  2.700   .     S
Cu1017 N1037   2.029   .     S
Cu1017 O1041   1.964   .     S
Cu1017 O1053   1.964   .     S
Cu1018 N1038   2.029   .     S
Cu1018 O1051   1.964   .     S
Cu1018 O1054   1.964   .     S
Cu1019 O1043   1.964   .     S
Cu1019 N1039   2.029   .     S
Cu1019 Cu1020  2.700   .     S
Cu1019 O1046   1.964   .     S
Cu1020 O1042   1.964   .     S
Cu1020 N1040   2.029   .     S
Cu1020 O1047   1.964   .     S
O1044  Cu844   1.964   1_565 S
O1045  Cu844   1.964   1_565 S
O1048  Cu843   1.964   1_565 S
O1049  Cu930   1.964   1_655 S
O1050  Cu929   1.964   1_655 S
O1052  Cu930   1.964   1_655 S
O1055  Cu929   1.964   1_655 S
O1056  Cu843   1.964   1_565 S
