data_str_m2_o1_o16_pcu_sym.29
_audit_creation_date              2020-01-03
_audit_creation_method            'Materials Studio'
_symmetry_space_group_name_H-M    'P1'
_symmetry_Int_Tables_number       1
_symmetry_cell_setting            triclinic
loop_
_symmetry_equiv_pos_as_xyz
  x,y,z
_cell_length_a                    28.5674
_cell_length_b                    32.4345
_cell_length_c                    26.8981
_cell_angle_alpha                 90.2597
_cell_angle_beta                  72.5971
_cell_angle_gamma                 90.1033
loop_
_atom_site_label
_atom_site_type_symbol
_atom_site_fract_x
_atom_site_fract_y
_atom_site_fract_z
_atom_site_U_iso_or_equiv
_atom_site_adp_type
_atom_site_occupancy
C1     C     0.16671   0.24593   0.25001   0.00000  Uiso   1.00
C2     C     0.12455   0.16249   0.40739   0.00000  Uiso   1.00
C3     C     0.21118   0.31127   0.22599   0.00000  Uiso   1.00
C4     C     0.14049   0.16445   0.35003   0.00000  Uiso   1.00
C5     C     0.21179   0.02057   0.22218   0.00000  Uiso   1.00
C6     C     0.16784   0.04270   0.24511   0.00000  Uiso   1.00
C7     C     0.12379   0.02154   0.26749   0.00000  Uiso   1.00
C8     C     0.12333   0.31226   0.26882   0.00000  Uiso   1.00
C9     C     0.16712   0.29046   0.24875   0.00000  Uiso   1.00
C10    C     0.29929   0.19170   0.28316   0.00000  Uiso   1.00
C11    C     0.01555   0.19169   0.28316   0.00000  Uiso   1.00
C12    C     0.14444   0.15981   0.48981   0.00000  Uiso   1.00
C13    C     0.03395   0.14138   0.21684   0.00000  Uiso   1.00
C14    C     0.31757   0.14163   0.21690   0.00000  Uiso   1.00
C15    C     0.16722   0.08740   0.24794   0.00000  Uiso   1.00
C16    C     0.19286   0.16595   0.15002   0.00000  Uiso   1.00
C17    C     0.26278   0.13186   0.01453   0.00000  Uiso   1.00
C18    C     0.20760   0.16029   0.09351   0.00000  Uiso   1.00
C19    C     0.07713   0.17619   0.43432   0.00000  Uiso   1.00
C20    C     0.06271   0.18042   0.48808   0.00000  Uiso   1.00
C21    C     0.09600   0.17321   0.01562   0.00000  Uiso   1.00
C22    C     0.15704   0.15067   0.43579   0.00000  Uiso   1.00
C23    C     0.18064   0.15475   0.01592   0.00000  Uiso   1.00
C24    C     0.22669   0.13685   0.48927   0.00000  Uiso   1.00
C25    C     0.23584   0.12327   0.43810   0.00000  Uiso   1.00
C26    C     0.20133   0.12949   0.41198   0.00000  Uiso   1.00
C27    C     0.17273   0.16746   0.06762   0.00000  Uiso   1.00
C28    C     0.25316   0.14329   0.06658   0.00000  Uiso   1.00
Cu29   Cu    0.11978   0.16666   0.25000   0.00000  Uiso   1.00
Cu30   Cu    0.21355   0.16667   0.25000   0.00000  Uiso   1.00
H31    H     0.28054   0.13746   0.08618   0.00000  Uiso   1.00
H32    H     0.05128   0.18453   0.41368   0.00000  Uiso   1.00
H33    H     0.08219   0.17745   0.05720   0.00000  Uiso   1.00
H34    H     0.02585   0.19061   0.00846   0.00000  Uiso   1.00
H35    H     0.20953   0.11634   0.37339   0.00000  Uiso   1.00
H36    H     0.24488   0.29429   0.20901   0.00000  Uiso   1.00
H37    H     0.24768   0.06384   0.17744   0.00000  Uiso   1.00
H38    H     0.05523   0.08418   0.19003   0.00000  Uiso   1.00
H39    H     0.06851   0.12134   0.14408   0.00000  Uiso   1.00
H40    H     0.08978   0.03797   0.28487   0.00000  Uiso   1.00
H41    H     0.08901   0.29638   0.28650   0.00000  Uiso   1.00
H42    H     0.27320   0.21179   0.30975   0.00000  Uiso   1.00
H43    H     0.02682   0.21175   0.30972   0.00000  Uiso   1.00
H44    H     0.30600   0.12167   0.19045   0.00000  Uiso   1.00
H45    H     0.26993   0.10782   0.41806   0.00000  Uiso   1.00
H46    H     0.29798   0.11820   0.49435   0.00000  Uiso   1.00
H47    H     0.13942   0.18289   0.08904   0.00000  Uiso   1.00
N48    N     0.04931   0.16666   0.24998   0.00000  Uiso   1.00
N49    N     0.28402   0.16669   0.24999   0.00000  Uiso   1.00
N50    N     0.06810   0.11437   0.18213   0.00000  Uiso   1.00
O51    O     0.12708   0.22678   0.25000   0.00000  Uiso   1.00
O52    O     0.20627   0.22679   0.25000   0.00000  Uiso   1.00
O53    O     0.10775   0.16665   0.32549   0.00000  Uiso   1.00
O54    O     0.18694   0.16666   0.32549   0.00000  Uiso   1.00
O55    O     0.12706   0.10654   0.24999   0.00000  Uiso   1.00
O56    O     0.20625   0.10655   0.24999   0.00000  Uiso   1.00
O57    O     0.14640   0.16667   0.17451   0.00000  Uiso   1.00
O58    O     0.22559   0.16668   0.17451   0.00000  Uiso   1.00
O59    O     0.25536   0.03904   0.19487   0.00000  Uiso   1.00
C60    C     0.50004   0.24593   0.25001   0.00000  Uiso   1.00
C61    C     0.45789   0.16249   0.40739   0.00000  Uiso   1.00
C62    C     0.54451   0.31127   0.22599   0.00000  Uiso   1.00
C63    C     0.47382   0.16445   0.35003   0.00000  Uiso   1.00
C64    C     0.54512   0.02057   0.22218   0.00000  Uiso   1.00
C65    C     0.50117   0.04270   0.24511   0.00000  Uiso   1.00
C66    C     0.45712   0.02154   0.26749   0.00000  Uiso   1.00
C67    C     0.45667   0.31226   0.26882   0.00000  Uiso   1.00
C68    C     0.50045   0.29046   0.24875   0.00000  Uiso   1.00
C69    C     0.63263   0.19170   0.28316   0.00000  Uiso   1.00
C70    C     0.34888   0.19169   0.28316   0.00000  Uiso   1.00
C71    C     0.47777   0.15981   0.48981   0.00000  Uiso   1.00
C72    C     0.36728   0.14138   0.21684   0.00000  Uiso   1.00
C73    C     0.65091   0.14163   0.21690   0.00000  Uiso   1.00
C74    C     0.50055   0.08740   0.24794   0.00000  Uiso   1.00
C75    C     0.52619   0.16595   0.15002   0.00000  Uiso   1.00
C76    C     0.59611   0.13186   0.01453   0.00000  Uiso   1.00
C77    C     0.54093   0.16029   0.09351   0.00000  Uiso   1.00
C78    C     0.41046   0.17619   0.43432   0.00000  Uiso   1.00
C79    C     0.39604   0.18042   0.48808   0.00000  Uiso   1.00
C80    C     0.42933   0.17321   0.01562   0.00000  Uiso   1.00
C81    C     0.49037   0.15067   0.43579   0.00000  Uiso   1.00
C82    C     0.51398   0.15475   0.01592   0.00000  Uiso   1.00
C83    C     0.56003   0.13685   0.48927   0.00000  Uiso   1.00
C84    C     0.56918   0.12327   0.43810   0.00000  Uiso   1.00
C85    C     0.53466   0.12949   0.41198   0.00000  Uiso   1.00
C86    C     0.50606   0.16746   0.06762   0.00000  Uiso   1.00
C87    C     0.58650   0.14329   0.06658   0.00000  Uiso   1.00
Cu88   Cu    0.45311   0.16666   0.25000   0.00000  Uiso   1.00
Cu89   Cu    0.54689   0.16667   0.25000   0.00000  Uiso   1.00
H90    H     0.61387   0.13746   0.08618   0.00000  Uiso   1.00
H91    H     0.38462   0.18453   0.41368   0.00000  Uiso   1.00
H92    H     0.41553   0.17745   0.05720   0.00000  Uiso   1.00
H93    H     0.35918   0.19061   0.00846   0.00000  Uiso   1.00
H94    H     0.54286   0.11634   0.37339   0.00000  Uiso   1.00
H95    H     0.57822   0.29429   0.20901   0.00000  Uiso   1.00
H96    H     0.58102   0.06384   0.17744   0.00000  Uiso   1.00
H97    H     0.38856   0.08418   0.19003   0.00000  Uiso   1.00
H98    H     0.40184   0.12134   0.14408   0.00000  Uiso   1.00
H99    H     0.42311   0.03797   0.28487   0.00000  Uiso   1.00
H100   H     0.42235   0.29638   0.28650   0.00000  Uiso   1.00
H101   H     0.60654   0.21179   0.30975   0.00000  Uiso   1.00
H102   H     0.36015   0.21175   0.30972   0.00000  Uiso   1.00
H103   H     0.63933   0.12167   0.19045   0.00000  Uiso   1.00
H104   H     0.60327   0.10782   0.41806   0.00000  Uiso   1.00
H105   H     0.63131   0.11820   0.49435   0.00000  Uiso   1.00
H106   H     0.47275   0.18289   0.08904   0.00000  Uiso   1.00
N107   N     0.38265   0.16666   0.24998   0.00000  Uiso   1.00
N108   N     0.61735   0.16669   0.24999   0.00000  Uiso   1.00
N109   N     0.40143   0.11437   0.18213   0.00000  Uiso   1.00
O110   O     0.46042   0.22678   0.25000   0.00000  Uiso   1.00
O111   O     0.53961   0.22679   0.25000   0.00000  Uiso   1.00
O112   O     0.44108   0.16665   0.32549   0.00000  Uiso   1.00
O113   O     0.52027   0.16666   0.32549   0.00000  Uiso   1.00
O114   O     0.46039   0.10654   0.24999   0.00000  Uiso   1.00
O115   O     0.53958   0.10655   0.24999   0.00000  Uiso   1.00
O116   O     0.47973   0.16667   0.17451   0.00000  Uiso   1.00
O117   O     0.55892   0.16668   0.17451   0.00000  Uiso   1.00
O118   O     0.58869   0.03904   0.19487   0.00000  Uiso   1.00
C119   C     0.83337   0.24593   0.25001   0.00000  Uiso   1.00
C120   C     0.79122   0.16249   0.40739   0.00000  Uiso   1.00
C121   C     0.87785   0.31127   0.22599   0.00000  Uiso   1.00
C122   C     0.80716   0.16445   0.35003   0.00000  Uiso   1.00
C123   C     0.87846   0.02057   0.22218   0.00000  Uiso   1.00
C124   C     0.83451   0.04270   0.24511   0.00000  Uiso   1.00
C125   C     0.79045   0.02154   0.26749   0.00000  Uiso   1.00
C126   C     0.79000   0.31226   0.26882   0.00000  Uiso   1.00
C127   C     0.83378   0.29046   0.24875   0.00000  Uiso   1.00
C128   C     0.96596   0.19170   0.28316   0.00000  Uiso   1.00
C129   C     0.68221   0.19169   0.28316   0.00000  Uiso   1.00
C130   C     0.81111   0.15981   0.48981   0.00000  Uiso   1.00
C131   C     0.70061   0.14138   0.21684   0.00000  Uiso   1.00
C132   C     0.98424   0.14163   0.21690   0.00000  Uiso   1.00
C133   C     0.83389   0.08740   0.24794   0.00000  Uiso   1.00
C134   C     0.85952   0.16595   0.15002   0.00000  Uiso   1.00
C135   C     0.92945   0.13186   0.01453   0.00000  Uiso   1.00
C136   C     0.87426   0.16029   0.09351   0.00000  Uiso   1.00
C137   C     0.74379   0.17619   0.43432   0.00000  Uiso   1.00
C138   C     0.72937   0.18042   0.48808   0.00000  Uiso   1.00
C139   C     0.76267   0.17321   0.01562   0.00000  Uiso   1.00
C140   C     0.82371   0.15067   0.43579   0.00000  Uiso   1.00
C141   C     0.84731   0.15475   0.01592   0.00000  Uiso   1.00
C142   C     0.89336   0.13685   0.48927   0.00000  Uiso   1.00
C143   C     0.90251   0.12327   0.43810   0.00000  Uiso   1.00
C144   C     0.86799   0.12949   0.41198   0.00000  Uiso   1.00
C145   C     0.83939   0.16746   0.06762   0.00000  Uiso   1.00
C146   C     0.91983   0.14329   0.06658   0.00000  Uiso   1.00
Cu147  Cu    0.78645   0.16666   0.25000   0.00000  Uiso   1.00
Cu148  Cu    0.88022   0.16667   0.25000   0.00000  Uiso   1.00
H149   H     0.94721   0.13746   0.08618   0.00000  Uiso   1.00
H150   H     0.71795   0.18453   0.41368   0.00000  Uiso   1.00
H151   H     0.74886   0.17745   0.05720   0.00000  Uiso   1.00
H152   H     0.69251   0.19061   0.00846   0.00000  Uiso   1.00
H153   H     0.87620   0.11634   0.37339   0.00000  Uiso   1.00
H154   H     0.91155   0.29429   0.20901   0.00000  Uiso   1.00
H155   H     0.91435   0.06384   0.17744   0.00000  Uiso   1.00
H156   H     0.72190   0.08418   0.19003   0.00000  Uiso   1.00
H157   H     0.73518   0.12134   0.14408   0.00000  Uiso   1.00
H158   H     0.75645   0.03797   0.28487   0.00000  Uiso   1.00
H159   H     0.75568   0.29638   0.28650   0.00000  Uiso   1.00
H160   H     0.93987   0.21179   0.30975   0.00000  Uiso   1.00
H161   H     0.69349   0.21175   0.30972   0.00000  Uiso   1.00
H162   H     0.97267   0.12167   0.19045   0.00000  Uiso   1.00
H163   H     0.93660   0.10782   0.41806   0.00000  Uiso   1.00
H164   H     0.96465   0.11820   0.49435   0.00000  Uiso   1.00
H165   H     0.80609   0.18289   0.08904   0.00000  Uiso   1.00
N166   N     0.71598   0.16666   0.24998   0.00000  Uiso   1.00
N167   N     0.95069   0.16669   0.24999   0.00000  Uiso   1.00
N168   N     0.73477   0.11437   0.18213   0.00000  Uiso   1.00
O169   O     0.79375   0.22678   0.25000   0.00000  Uiso   1.00
O170   O     0.87294   0.22679   0.25000   0.00000  Uiso   1.00
O171   O     0.77441   0.16665   0.32549   0.00000  Uiso   1.00
O172   O     0.85360   0.16666   0.32549   0.00000  Uiso   1.00
O173   O     0.79373   0.10654   0.24999   0.00000  Uiso   1.00
O174   O     0.87292   0.10655   0.24999   0.00000  Uiso   1.00
O175   O     0.81306   0.16667   0.17451   0.00000  Uiso   1.00
O176   O     0.89225   0.16668   0.17451   0.00000  Uiso   1.00
O177   O     0.92203   0.03904   0.19487   0.00000  Uiso   1.00
C178   C     0.16671   0.57926   0.25001   0.00000  Uiso   1.00
C179   C     0.12455   0.49582   0.40739   0.00000  Uiso   1.00
C180   C     0.21118   0.64460   0.22599   0.00000  Uiso   1.00
C181   C     0.14049   0.49778   0.35003   0.00000  Uiso   1.00
C182   C     0.21179   0.35390   0.22218   0.00000  Uiso   1.00
C183   C     0.16784   0.37604   0.24511   0.00000  Uiso   1.00
C184   C     0.12379   0.35487   0.26749   0.00000  Uiso   1.00
C185   C     0.12333   0.64559   0.26882   0.00000  Uiso   1.00
C186   C     0.16712   0.62380   0.24875   0.00000  Uiso   1.00
C187   C     0.29929   0.52504   0.28316   0.00000  Uiso   1.00
C188   C     0.01555   0.52502   0.28316   0.00000  Uiso   1.00
C189   C     0.14444   0.49314   0.48981   0.00000  Uiso   1.00
C190   C     0.03395   0.47471   0.21684   0.00000  Uiso   1.00
C191   C     0.31757   0.47496   0.21690   0.00000  Uiso   1.00
C192   C     0.16722   0.42073   0.24794   0.00000  Uiso   1.00
C193   C     0.19286   0.49929   0.15002   0.00000  Uiso   1.00
C194   C     0.26278   0.46520   0.01453   0.00000  Uiso   1.00
C195   C     0.20760   0.49362   0.09351   0.00000  Uiso   1.00
C196   C     0.07713   0.50953   0.43432   0.00000  Uiso   1.00
C197   C     0.06271   0.51376   0.48808   0.00000  Uiso   1.00
C198   C     0.09600   0.50655   0.01562   0.00000  Uiso   1.00
C199   C     0.15704   0.48400   0.43579   0.00000  Uiso   1.00
C200   C     0.18064   0.48808   0.01592   0.00000  Uiso   1.00
C201   C     0.22669   0.47018   0.48927   0.00000  Uiso   1.00
C202   C     0.23584   0.45661   0.43810   0.00000  Uiso   1.00
C203   C     0.20133   0.46282   0.41198   0.00000  Uiso   1.00
C204   C     0.17273   0.50079   0.06762   0.00000  Uiso   1.00
C205   C     0.25316   0.47662   0.06658   0.00000  Uiso   1.00
Cu206  Cu    0.11978   0.49999   0.25000   0.00000  Uiso   1.00
Cu207  Cu    0.21355   0.50001   0.25000   0.00000  Uiso   1.00
H208   H     0.28054   0.47079   0.08618   0.00000  Uiso   1.00
H209   H     0.05128   0.51787   0.41368   0.00000  Uiso   1.00
H210   H     0.08219   0.51078   0.05720   0.00000  Uiso   1.00
H211   H     0.02585   0.52395   0.00846   0.00000  Uiso   1.00
H212   H     0.20953   0.44967   0.37339   0.00000  Uiso   1.00
H213   H     0.24488   0.62763   0.20901   0.00000  Uiso   1.00
H214   H     0.24768   0.39718   0.17744   0.00000  Uiso   1.00
H215   H     0.05523   0.41751   0.19003   0.00000  Uiso   1.00
H216   H     0.06851   0.45468   0.14408   0.00000  Uiso   1.00
H217   H     0.08978   0.37131   0.28487   0.00000  Uiso   1.00
H218   H     0.08901   0.62971   0.28650   0.00000  Uiso   1.00
H219   H     0.27320   0.54512   0.30975   0.00000  Uiso   1.00
H220   H     0.02682   0.54509   0.30972   0.00000  Uiso   1.00
H221   H     0.30600   0.45501   0.19045   0.00000  Uiso   1.00
H222   H     0.26993   0.44116   0.41806   0.00000  Uiso   1.00
H223   H     0.29798   0.45154   0.49435   0.00000  Uiso   1.00
H224   H     0.13942   0.51623   0.08904   0.00000  Uiso   1.00
N225   N     0.04931   0.49999   0.24998   0.00000  Uiso   1.00
N226   N     0.28402   0.50002   0.24999   0.00000  Uiso   1.00
N227   N     0.06810   0.44770   0.18213   0.00000  Uiso   1.00
O228   O     0.12708   0.56011   0.25000   0.00000  Uiso   1.00
O229   O     0.20627   0.56012   0.25000   0.00000  Uiso   1.00
O230   O     0.10775   0.49998   0.32549   0.00000  Uiso   1.00
O231   O     0.18694   0.49999   0.32549   0.00000  Uiso   1.00
O232   O     0.12706   0.43988   0.24999   0.00000  Uiso   1.00
O233   O     0.20625   0.43989   0.24999   0.00000  Uiso   1.00
O234   O     0.14640   0.50001   0.17451   0.00000  Uiso   1.00
O235   O     0.22559   0.50002   0.17451   0.00000  Uiso   1.00
O236   O     0.25536   0.37237   0.19487   0.00000  Uiso   1.00
C237   C     0.50004   0.57926   0.25001   0.00000  Uiso   1.00
C238   C     0.45789   0.49582   0.40739   0.00000  Uiso   1.00
C239   C     0.54451   0.64460   0.22599   0.00000  Uiso   1.00
C240   C     0.47382   0.49778   0.35003   0.00000  Uiso   1.00
C241   C     0.54512   0.35390   0.22218   0.00000  Uiso   1.00
C242   C     0.50117   0.37604   0.24511   0.00000  Uiso   1.00
C243   C     0.45712   0.35487   0.26749   0.00000  Uiso   1.00
C244   C     0.45667   0.64559   0.26882   0.00000  Uiso   1.00
C245   C     0.50045   0.62380   0.24875   0.00000  Uiso   1.00
C246   C     0.63263   0.52504   0.28316   0.00000  Uiso   1.00
C247   C     0.34888   0.52502   0.28316   0.00000  Uiso   1.00
C248   C     0.47777   0.49314   0.48981   0.00000  Uiso   1.00
C249   C     0.36728   0.47471   0.21684   0.00000  Uiso   1.00
C250   C     0.65091   0.47496   0.21690   0.00000  Uiso   1.00
C251   C     0.50055   0.42073   0.24794   0.00000  Uiso   1.00
C252   C     0.52619   0.49929   0.15002   0.00000  Uiso   1.00
C253   C     0.59611   0.46520   0.01453   0.00000  Uiso   1.00
C254   C     0.54093   0.49362   0.09351   0.00000  Uiso   1.00
C255   C     0.41046   0.50953   0.43432   0.00000  Uiso   1.00
C256   C     0.39604   0.51376   0.48808   0.00000  Uiso   1.00
C257   C     0.42933   0.50655   0.01562   0.00000  Uiso   1.00
C258   C     0.49037   0.48400   0.43579   0.00000  Uiso   1.00
C259   C     0.51398   0.48808   0.01592   0.00000  Uiso   1.00
C260   C     0.56003   0.47018   0.48927   0.00000  Uiso   1.00
C261   C     0.56918   0.45661   0.43810   0.00000  Uiso   1.00
C262   C     0.53466   0.46282   0.41198   0.00000  Uiso   1.00
C263   C     0.50606   0.50079   0.06762   0.00000  Uiso   1.00
C264   C     0.58650   0.47662   0.06658   0.00000  Uiso   1.00
Cu265  Cu    0.45311   0.49999   0.25000   0.00000  Uiso   1.00
Cu266  Cu    0.54689   0.50001   0.25000   0.00000  Uiso   1.00
H267   H     0.61387   0.47079   0.08618   0.00000  Uiso   1.00
H268   H     0.38462   0.51787   0.41368   0.00000  Uiso   1.00
H269   H     0.41553   0.51078   0.05720   0.00000  Uiso   1.00
H270   H     0.35918   0.52395   0.00846   0.00000  Uiso   1.00
H271   H     0.54286   0.44967   0.37339   0.00000  Uiso   1.00
H272   H     0.57822   0.62763   0.20901   0.00000  Uiso   1.00
H273   H     0.58102   0.39718   0.17744   0.00000  Uiso   1.00
H274   H     0.38856   0.41751   0.19003   0.00000  Uiso   1.00
H275   H     0.40184   0.45468   0.14408   0.00000  Uiso   1.00
H276   H     0.42311   0.37131   0.28487   0.00000  Uiso   1.00
H277   H     0.42235   0.62971   0.28650   0.00000  Uiso   1.00
H278   H     0.60654   0.54512   0.30975   0.00000  Uiso   1.00
H279   H     0.36015   0.54509   0.30972   0.00000  Uiso   1.00
H280   H     0.63933   0.45501   0.19045   0.00000  Uiso   1.00
H281   H     0.60327   0.44116   0.41806   0.00000  Uiso   1.00
H282   H     0.63131   0.45154   0.49435   0.00000  Uiso   1.00
H283   H     0.47275   0.51623   0.08904   0.00000  Uiso   1.00
N284   N     0.38265   0.49999   0.24998   0.00000  Uiso   1.00
N285   N     0.61735   0.50002   0.24999   0.00000  Uiso   1.00
N286   N     0.40143   0.44770   0.18213   0.00000  Uiso   1.00
O287   O     0.46042   0.56011   0.25000   0.00000  Uiso   1.00
O288   O     0.53961   0.56012   0.25000   0.00000  Uiso   1.00
O289   O     0.44108   0.49998   0.32549   0.00000  Uiso   1.00
O290   O     0.52027   0.49999   0.32549   0.00000  Uiso   1.00
O291   O     0.46039   0.43988   0.24999   0.00000  Uiso   1.00
O292   O     0.53958   0.43989   0.24999   0.00000  Uiso   1.00
O293   O     0.47973   0.50001   0.17451   0.00000  Uiso   1.00
O294   O     0.55892   0.50002   0.17451   0.00000  Uiso   1.00
O295   O     0.58869   0.37237   0.19487   0.00000  Uiso   1.00
C296   C     0.83337   0.57926   0.25001   0.00000  Uiso   1.00
C297   C     0.79122   0.49582   0.40739   0.00000  Uiso   1.00
C298   C     0.87785   0.64460   0.22599   0.00000  Uiso   1.00
C299   C     0.80716   0.49778   0.35003   0.00000  Uiso   1.00
C300   C     0.87846   0.35390   0.22218   0.00000  Uiso   1.00
C301   C     0.83451   0.37604   0.24511   0.00000  Uiso   1.00
C302   C     0.79045   0.35487   0.26749   0.00000  Uiso   1.00
C303   C     0.79000   0.64559   0.26882   0.00000  Uiso   1.00
C304   C     0.83378   0.62380   0.24875   0.00000  Uiso   1.00
C305   C     0.96596   0.52504   0.28316   0.00000  Uiso   1.00
C306   C     0.68221   0.52502   0.28316   0.00000  Uiso   1.00
C307   C     0.81111   0.49314   0.48981   0.00000  Uiso   1.00
C308   C     0.70061   0.47471   0.21684   0.00000  Uiso   1.00
C309   C     0.98424   0.47496   0.21690   0.00000  Uiso   1.00
C310   C     0.83389   0.42073   0.24794   0.00000  Uiso   1.00
C311   C     0.85952   0.49929   0.15002   0.00000  Uiso   1.00
C312   C     0.92945   0.46520   0.01453   0.00000  Uiso   1.00
C313   C     0.87426   0.49362   0.09351   0.00000  Uiso   1.00
C314   C     0.74379   0.50953   0.43432   0.00000  Uiso   1.00
C315   C     0.72937   0.51376   0.48808   0.00000  Uiso   1.00
C316   C     0.76267   0.50655   0.01562   0.00000  Uiso   1.00
C317   C     0.82371   0.48400   0.43579   0.00000  Uiso   1.00
C318   C     0.84731   0.48808   0.01592   0.00000  Uiso   1.00
C319   C     0.89336   0.47018   0.48927   0.00000  Uiso   1.00
C320   C     0.90251   0.45661   0.43810   0.00000  Uiso   1.00
C321   C     0.86799   0.46282   0.41198   0.00000  Uiso   1.00
C322   C     0.83939   0.50079   0.06762   0.00000  Uiso   1.00
C323   C     0.91983   0.47662   0.06658   0.00000  Uiso   1.00
Cu324  Cu    0.78645   0.49999   0.25000   0.00000  Uiso   1.00
Cu325  Cu    0.88022   0.50001   0.25000   0.00000  Uiso   1.00
H326   H     0.94721   0.47079   0.08618   0.00000  Uiso   1.00
H327   H     0.71795   0.51787   0.41368   0.00000  Uiso   1.00
H328   H     0.74886   0.51078   0.05720   0.00000  Uiso   1.00
H329   H     0.69251   0.52395   0.00846   0.00000  Uiso   1.00
H330   H     0.87620   0.44967   0.37339   0.00000  Uiso   1.00
H331   H     0.91155   0.62763   0.20901   0.00000  Uiso   1.00
H332   H     0.91435   0.39718   0.17744   0.00000  Uiso   1.00
H333   H     0.72190   0.41751   0.19003   0.00000  Uiso   1.00
H334   H     0.73518   0.45468   0.14408   0.00000  Uiso   1.00
H335   H     0.75645   0.37131   0.28487   0.00000  Uiso   1.00
H336   H     0.75568   0.62971   0.28650   0.00000  Uiso   1.00
H337   H     0.93987   0.54512   0.30975   0.00000  Uiso   1.00
H338   H     0.69349   0.54509   0.30972   0.00000  Uiso   1.00
H339   H     0.97267   0.45501   0.19045   0.00000  Uiso   1.00
H340   H     0.93660   0.44116   0.41806   0.00000  Uiso   1.00
H341   H     0.96465   0.45154   0.49435   0.00000  Uiso   1.00
H342   H     0.80609   0.51623   0.08904   0.00000  Uiso   1.00
N343   N     0.71598   0.49999   0.24998   0.00000  Uiso   1.00
N344   N     0.95069   0.50002   0.24999   0.00000  Uiso   1.00
N345   N     0.73477   0.44770   0.18213   0.00000  Uiso   1.00
O346   O     0.79375   0.56011   0.25000   0.00000  Uiso   1.00
O347   O     0.87294   0.56012   0.25000   0.00000  Uiso   1.00
O348   O     0.77441   0.49998   0.32549   0.00000  Uiso   1.00
O349   O     0.85360   0.49999   0.32549   0.00000  Uiso   1.00
O350   O     0.79373   0.43988   0.24999   0.00000  Uiso   1.00
O351   O     0.87292   0.43989   0.24999   0.00000  Uiso   1.00
O352   O     0.81306   0.50001   0.17451   0.00000  Uiso   1.00
O353   O     0.89225   0.50002   0.17451   0.00000  Uiso   1.00
O354   O     0.92203   0.37237   0.19487   0.00000  Uiso   1.00
C355   C     0.16671   0.91259   0.25001   0.00000  Uiso   1.00
C356   C     0.12455   0.82916   0.40739   0.00000  Uiso   1.00
C357   C     0.21118   0.97793   0.22599   0.00000  Uiso   1.00
C358   C     0.14049   0.83111   0.35003   0.00000  Uiso   1.00
C359   C     0.21179   0.68723   0.22218   0.00000  Uiso   1.00
C360   C     0.16784   0.70937   0.24511   0.00000  Uiso   1.00
C361   C     0.12379   0.68821   0.26749   0.00000  Uiso   1.00
C362   C     0.12333   0.97892   0.26882   0.00000  Uiso   1.00
C363   C     0.16712   0.95713   0.24875   0.00000  Uiso   1.00
C364   C     0.29929   0.85837   0.28316   0.00000  Uiso   1.00
C365   C     0.01555   0.85836   0.28316   0.00000  Uiso   1.00
C366   C     0.14444   0.82648   0.48981   0.00000  Uiso   1.00
C367   C     0.03395   0.80805   0.21684   0.00000  Uiso   1.00
C368   C     0.31757   0.80829   0.21690   0.00000  Uiso   1.00
C369   C     0.16722   0.75406   0.24794   0.00000  Uiso   1.00
C370   C     0.19286   0.83262   0.15002   0.00000  Uiso   1.00
C371   C     0.26278   0.79853   0.01453   0.00000  Uiso   1.00
C372   C     0.20760   0.82695   0.09351   0.00000  Uiso   1.00
C373   C     0.07713   0.84286   0.43432   0.00000  Uiso   1.00
C374   C     0.06271   0.84709   0.48808   0.00000  Uiso   1.00
C375   C     0.09600   0.83988   0.01562   0.00000  Uiso   1.00
C376   C     0.15704   0.81734   0.43579   0.00000  Uiso   1.00
C377   C     0.18064   0.82141   0.01592   0.00000  Uiso   1.00
C378   C     0.22669   0.80351   0.48927   0.00000  Uiso   1.00
C379   C     0.23584   0.78994   0.43810   0.00000  Uiso   1.00
C380   C     0.20133   0.79615   0.41198   0.00000  Uiso   1.00
C381   C     0.17273   0.83413   0.06762   0.00000  Uiso   1.00
C382   C     0.25316   0.80996   0.06658   0.00000  Uiso   1.00
Cu383  Cu    0.11978   0.83333   0.25000   0.00000  Uiso   1.00
Cu384  Cu    0.21355   0.83334   0.25000   0.00000  Uiso   1.00
H385   H     0.28054   0.80413   0.08618   0.00000  Uiso   1.00
H386   H     0.05128   0.85120   0.41368   0.00000  Uiso   1.00
H387   H     0.08219   0.84411   0.05720   0.00000  Uiso   1.00
H388   H     0.02585   0.85728   0.00846   0.00000  Uiso   1.00
H389   H     0.20953   0.78300   0.37339   0.00000  Uiso   1.00
H390   H     0.24488   0.96096   0.20901   0.00000  Uiso   1.00
H391   H     0.24768   0.73051   0.17744   0.00000  Uiso   1.00
H392   H     0.05523   0.75084   0.19003   0.00000  Uiso   1.00
H393   H     0.06851   0.78801   0.14408   0.00000  Uiso   1.00
H394   H     0.08978   0.70464   0.28487   0.00000  Uiso   1.00
H395   H     0.08901   0.96304   0.28650   0.00000  Uiso   1.00
H396   H     0.27320   0.87846   0.30975   0.00000  Uiso   1.00
H397   H     0.02682   0.87842   0.30972   0.00000  Uiso   1.00
H398   H     0.30600   0.78834   0.19045   0.00000  Uiso   1.00
H399   H     0.26993   0.77449   0.41806   0.00000  Uiso   1.00
H400   H     0.29798   0.78487   0.49435   0.00000  Uiso   1.00
H401   H     0.13942   0.84956   0.08904   0.00000  Uiso   1.00
N402   N     0.04931   0.83332   0.24998   0.00000  Uiso   1.00
N403   N     0.28402   0.83335   0.24999   0.00000  Uiso   1.00
N404   N     0.06810   0.78104   0.18213   0.00000  Uiso   1.00
O405   O     0.12708   0.89345   0.25000   0.00000  Uiso   1.00
O406   O     0.20627   0.89346   0.25000   0.00000  Uiso   1.00
O407   O     0.10775   0.83332   0.32549   0.00000  Uiso   1.00
O408   O     0.18694   0.83333   0.32549   0.00000  Uiso   1.00
O409   O     0.12706   0.77321   0.24999   0.00000  Uiso   1.00
O410   O     0.20625   0.77322   0.24999   0.00000  Uiso   1.00
O411   O     0.14640   0.83334   0.17451   0.00000  Uiso   1.00
O412   O     0.22559   0.83335   0.17451   0.00000  Uiso   1.00
O413   O     0.25536   0.70570   0.19487   0.00000  Uiso   1.00
C414   C     0.50004   0.91259   0.25001   0.00000  Uiso   1.00
C415   C     0.45789   0.82916   0.40739   0.00000  Uiso   1.00
C416   C     0.54451   0.97793   0.22599   0.00000  Uiso   1.00
C417   C     0.47382   0.83111   0.35003   0.00000  Uiso   1.00
C418   C     0.54512   0.68723   0.22218   0.00000  Uiso   1.00
C419   C     0.50117   0.70937   0.24511   0.00000  Uiso   1.00
C420   C     0.45712   0.68821   0.26749   0.00000  Uiso   1.00
C421   C     0.45667   0.97892   0.26882   0.00000  Uiso   1.00
C422   C     0.50045   0.95713   0.24875   0.00000  Uiso   1.00
C423   C     0.63263   0.85837   0.28316   0.00000  Uiso   1.00
C424   C     0.34888   0.85836   0.28316   0.00000  Uiso   1.00
C425   C     0.47777   0.82648   0.48981   0.00000  Uiso   1.00
C426   C     0.36728   0.80805   0.21684   0.00000  Uiso   1.00
C427   C     0.65091   0.80829   0.21690   0.00000  Uiso   1.00
C428   C     0.50055   0.75406   0.24794   0.00000  Uiso   1.00
C429   C     0.52619   0.83262   0.15002   0.00000  Uiso   1.00
C430   C     0.59611   0.79853   0.01453   0.00000  Uiso   1.00
C431   C     0.54093   0.82695   0.09351   0.00000  Uiso   1.00
C432   C     0.41046   0.84286   0.43432   0.00000  Uiso   1.00
C433   C     0.39604   0.84709   0.48808   0.00000  Uiso   1.00
C434   C     0.42933   0.83988   0.01562   0.00000  Uiso   1.00
C435   C     0.49037   0.81734   0.43579   0.00000  Uiso   1.00
C436   C     0.51398   0.82141   0.01592   0.00000  Uiso   1.00
C437   C     0.56003   0.80351   0.48927   0.00000  Uiso   1.00
C438   C     0.56918   0.78994   0.43810   0.00000  Uiso   1.00
C439   C     0.53466   0.79615   0.41198   0.00000  Uiso   1.00
C440   C     0.50606   0.83413   0.06762   0.00000  Uiso   1.00
C441   C     0.58650   0.80996   0.06658   0.00000  Uiso   1.00
Cu442  Cu    0.45311   0.83333   0.25000   0.00000  Uiso   1.00
Cu443  Cu    0.54689   0.83334   0.25000   0.00000  Uiso   1.00
H444   H     0.61387   0.80413   0.08618   0.00000  Uiso   1.00
H445   H     0.38462   0.85120   0.41368   0.00000  Uiso   1.00
H446   H     0.41553   0.84411   0.05720   0.00000  Uiso   1.00
H447   H     0.35918   0.85728   0.00846   0.00000  Uiso   1.00
H448   H     0.54286   0.78300   0.37339   0.00000  Uiso   1.00
H449   H     0.57822   0.96096   0.20901   0.00000  Uiso   1.00
H450   H     0.58102   0.73051   0.17744   0.00000  Uiso   1.00
H451   H     0.38856   0.75084   0.19003   0.00000  Uiso   1.00
H452   H     0.40184   0.78801   0.14408   0.00000  Uiso   1.00
H453   H     0.42311   0.70464   0.28487   0.00000  Uiso   1.00
H454   H     0.42235   0.96304   0.28650   0.00000  Uiso   1.00
H455   H     0.60654   0.87846   0.30975   0.00000  Uiso   1.00
H456   H     0.36015   0.87842   0.30972   0.00000  Uiso   1.00
H457   H     0.63933   0.78834   0.19045   0.00000  Uiso   1.00
H458   H     0.60327   0.77449   0.41806   0.00000  Uiso   1.00
H459   H     0.63131   0.78487   0.49435   0.00000  Uiso   1.00
H460   H     0.47275   0.84956   0.08904   0.00000  Uiso   1.00
N461   N     0.38265   0.83332   0.24998   0.00000  Uiso   1.00
N462   N     0.61735   0.83335   0.24999   0.00000  Uiso   1.00
N463   N     0.40143   0.78104   0.18213   0.00000  Uiso   1.00
O464   O     0.46042   0.89345   0.25000   0.00000  Uiso   1.00
O465   O     0.53961   0.89346   0.25000   0.00000  Uiso   1.00
O466   O     0.44108   0.83332   0.32549   0.00000  Uiso   1.00
O467   O     0.52027   0.83333   0.32549   0.00000  Uiso   1.00
O468   O     0.46039   0.77321   0.24999   0.00000  Uiso   1.00
O469   O     0.53958   0.77322   0.24999   0.00000  Uiso   1.00
O470   O     0.47973   0.83334   0.17451   0.00000  Uiso   1.00
O471   O     0.55892   0.83335   0.17451   0.00000  Uiso   1.00
O472   O     0.58869   0.70570   0.19487   0.00000  Uiso   1.00
C473   C     0.83337   0.91259   0.25001   0.00000  Uiso   1.00
C474   C     0.79122   0.82916   0.40739   0.00000  Uiso   1.00
C475   C     0.87785   0.97793   0.22599   0.00000  Uiso   1.00
C476   C     0.80716   0.83111   0.35003   0.00000  Uiso   1.00
C477   C     0.87846   0.68723   0.22218   0.00000  Uiso   1.00
C478   C     0.83451   0.70937   0.24511   0.00000  Uiso   1.00
C479   C     0.79045   0.68821   0.26749   0.00000  Uiso   1.00
C480   C     0.79000   0.97892   0.26882   0.00000  Uiso   1.00
C481   C     0.83378   0.95713   0.24875   0.00000  Uiso   1.00
C482   C     0.96596   0.85837   0.28316   0.00000  Uiso   1.00
C483   C     0.68221   0.85836   0.28316   0.00000  Uiso   1.00
C484   C     0.81111   0.82648   0.48981   0.00000  Uiso   1.00
C485   C     0.70061   0.80805   0.21684   0.00000  Uiso   1.00
C486   C     0.98424   0.80829   0.21690   0.00000  Uiso   1.00
C487   C     0.83389   0.75406   0.24794   0.00000  Uiso   1.00
C488   C     0.85952   0.83262   0.15002   0.00000  Uiso   1.00
C489   C     0.92945   0.79853   0.01453   0.00000  Uiso   1.00
C490   C     0.87426   0.82695   0.09351   0.00000  Uiso   1.00
C491   C     0.74379   0.84286   0.43432   0.00000  Uiso   1.00
C492   C     0.72937   0.84709   0.48808   0.00000  Uiso   1.00
C493   C     0.76267   0.83988   0.01562   0.00000  Uiso   1.00
C494   C     0.82371   0.81734   0.43579   0.00000  Uiso   1.00
C495   C     0.84731   0.82141   0.01592   0.00000  Uiso   1.00
C496   C     0.89336   0.80351   0.48927   0.00000  Uiso   1.00
C497   C     0.90251   0.78994   0.43810   0.00000  Uiso   1.00
C498   C     0.86799   0.79615   0.41198   0.00000  Uiso   1.00
C499   C     0.83939   0.83413   0.06762   0.00000  Uiso   1.00
C500   C     0.91983   0.80996   0.06658   0.00000  Uiso   1.00
Cu501  Cu    0.78645   0.83333   0.25000   0.00000  Uiso   1.00
Cu502  Cu    0.88022   0.83334   0.25000   0.00000  Uiso   1.00
H503   H     0.94721   0.80413   0.08618   0.00000  Uiso   1.00
H504   H     0.71795   0.85120   0.41368   0.00000  Uiso   1.00
H505   H     0.74886   0.84411   0.05720   0.00000  Uiso   1.00
H506   H     0.69251   0.85728   0.00846   0.00000  Uiso   1.00
H507   H     0.87620   0.78300   0.37339   0.00000  Uiso   1.00
H508   H     0.91155   0.96096   0.20901   0.00000  Uiso   1.00
H509   H     0.91435   0.73051   0.17744   0.00000  Uiso   1.00
H510   H     0.72190   0.75084   0.19003   0.00000  Uiso   1.00
H511   H     0.73518   0.78801   0.14408   0.00000  Uiso   1.00
H512   H     0.75645   0.70464   0.28487   0.00000  Uiso   1.00
H513   H     0.75568   0.96304   0.28650   0.00000  Uiso   1.00
H514   H     0.93987   0.87846   0.30975   0.00000  Uiso   1.00
H515   H     0.69349   0.87842   0.30972   0.00000  Uiso   1.00
H516   H     0.97267   0.78834   0.19045   0.00000  Uiso   1.00
H517   H     0.93660   0.77449   0.41806   0.00000  Uiso   1.00
H518   H     0.96465   0.78487   0.49435   0.00000  Uiso   1.00
H519   H     0.80609   0.84956   0.08904   0.00000  Uiso   1.00
N520   N     0.71598   0.83332   0.24998   0.00000  Uiso   1.00
N521   N     0.95069   0.83335   0.24999   0.00000  Uiso   1.00
N522   N     0.73477   0.78104   0.18213   0.00000  Uiso   1.00
O523   O     0.79375   0.89345   0.25000   0.00000  Uiso   1.00
O524   O     0.87294   0.89346   0.25000   0.00000  Uiso   1.00
O525   O     0.77441   0.83332   0.32549   0.00000  Uiso   1.00
O526   O     0.85360   0.83333   0.32549   0.00000  Uiso   1.00
O527   O     0.79373   0.77321   0.24999   0.00000  Uiso   1.00
O528   O     0.87292   0.77322   0.24999   0.00000  Uiso   1.00
O529   O     0.81306   0.83334   0.17451   0.00000  Uiso   1.00
O530   O     0.89225   0.83335   0.17451   0.00000  Uiso   1.00
O531   O     0.92203   0.70570   0.19487   0.00000  Uiso   1.00
C532   C     0.16671   0.24593   0.75001   0.00000  Uiso   1.00
C533   C     0.12455   0.16249   0.90739   0.00000  Uiso   1.00
C534   C     0.21118   0.31127   0.72599   0.00000  Uiso   1.00
C535   C     0.14049   0.16445   0.85003   0.00000  Uiso   1.00
C536   C     0.21179   0.02057   0.72218   0.00000  Uiso   1.00
C537   C     0.16784   0.04270   0.74511   0.00000  Uiso   1.00
C538   C     0.12379   0.02154   0.76749   0.00000  Uiso   1.00
C539   C     0.12333   0.31226   0.76882   0.00000  Uiso   1.00
C540   C     0.16712   0.29046   0.74875   0.00000  Uiso   1.00
C541   C     0.29929   0.19170   0.78316   0.00000  Uiso   1.00
C542   C     0.01555   0.19169   0.78316   0.00000  Uiso   1.00
C543   C     0.14444   0.15981   0.98981   0.00000  Uiso   1.00
C544   C     0.03395   0.14138   0.71684   0.00000  Uiso   1.00
C545   C     0.31757   0.14163   0.71690   0.00000  Uiso   1.00
C546   C     0.16722   0.08740   0.74794   0.00000  Uiso   1.00
C547   C     0.19286   0.16595   0.65002   0.00000  Uiso   1.00
C548   C     0.26278   0.13186   0.51453   0.00000  Uiso   1.00
C549   C     0.20760   0.16029   0.59351   0.00000  Uiso   1.00
C550   C     0.07713   0.17619   0.93432   0.00000  Uiso   1.00
C551   C     0.06271   0.18042   0.98808   0.00000  Uiso   1.00
C552   C     0.09600   0.17321   0.51562   0.00000  Uiso   1.00
C553   C     0.15704   0.15067   0.93579   0.00000  Uiso   1.00
C554   C     0.18064   0.15475   0.51592   0.00000  Uiso   1.00
C555   C     0.22669   0.13685   0.98927   0.00000  Uiso   1.00
C556   C     0.23584   0.12327   0.93810   0.00000  Uiso   1.00
C557   C     0.20133   0.12949   0.91198   0.00000  Uiso   1.00
C558   C     0.17273   0.16746   0.56762   0.00000  Uiso   1.00
C559   C     0.25316   0.14329   0.56658   0.00000  Uiso   1.00
Cu560  Cu    0.11978   0.16666   0.75000   0.00000  Uiso   1.00
Cu561  Cu    0.21355   0.16667   0.75000   0.00000  Uiso   1.00
H562   H     0.28054   0.13746   0.58618   0.00000  Uiso   1.00
H563   H     0.05128   0.18453   0.91368   0.00000  Uiso   1.00
H564   H     0.08219   0.17745   0.55720   0.00000  Uiso   1.00
H565   H     0.02585   0.19061   0.50846   0.00000  Uiso   1.00
H566   H     0.20953   0.11634   0.87339   0.00000  Uiso   1.00
H567   H     0.24488   0.29429   0.70901   0.00000  Uiso   1.00
H568   H     0.24768   0.06384   0.67744   0.00000  Uiso   1.00
H569   H     0.05523   0.08418   0.69003   0.00000  Uiso   1.00
H570   H     0.06851   0.12134   0.64408   0.00000  Uiso   1.00
H571   H     0.08978   0.03797   0.78487   0.00000  Uiso   1.00
H572   H     0.08901   0.29638   0.78650   0.00000  Uiso   1.00
H573   H     0.27320   0.21179   0.80975   0.00000  Uiso   1.00
H574   H     0.02682   0.21175   0.80972   0.00000  Uiso   1.00
H575   H     0.30600   0.12167   0.69045   0.00000  Uiso   1.00
H576   H     0.26993   0.10782   0.91806   0.00000  Uiso   1.00
H577   H     0.29798   0.11820   0.99435   0.00000  Uiso   1.00
H578   H     0.13942   0.18289   0.58904   0.00000  Uiso   1.00
N579   N     0.04931   0.16666   0.74998   0.00000  Uiso   1.00
N580   N     0.28402   0.16669   0.74999   0.00000  Uiso   1.00
N581   N     0.06810   0.11437   0.68213   0.00000  Uiso   1.00
O582   O     0.12708   0.22678   0.75000   0.00000  Uiso   1.00
O583   O     0.20627   0.22679   0.75000   0.00000  Uiso   1.00
O584   O     0.10775   0.16665   0.82549   0.00000  Uiso   1.00
O585   O     0.18694   0.16666   0.82549   0.00000  Uiso   1.00
O586   O     0.12706   0.10654   0.74999   0.00000  Uiso   1.00
O587   O     0.20625   0.10655   0.74999   0.00000  Uiso   1.00
O588   O     0.14640   0.16667   0.67451   0.00000  Uiso   1.00
O589   O     0.22559   0.16668   0.67451   0.00000  Uiso   1.00
O590   O     0.25536   0.03904   0.69487   0.00000  Uiso   1.00
C591   C     0.50004   0.24593   0.75001   0.00000  Uiso   1.00
C592   C     0.45789   0.16249   0.90739   0.00000  Uiso   1.00
C593   C     0.54451   0.31127   0.72599   0.00000  Uiso   1.00
C594   C     0.47382   0.16445   0.85003   0.00000  Uiso   1.00
C595   C     0.54512   0.02057   0.72218   0.00000  Uiso   1.00
C596   C     0.50117   0.04270   0.74511   0.00000  Uiso   1.00
C597   C     0.45712   0.02154   0.76749   0.00000  Uiso   1.00
C598   C     0.45667   0.31226   0.76882   0.00000  Uiso   1.00
C599   C     0.50045   0.29046   0.74875   0.00000  Uiso   1.00
C600   C     0.63263   0.19170   0.78316   0.00000  Uiso   1.00
C601   C     0.34888   0.19169   0.78316   0.00000  Uiso   1.00
C602   C     0.47777   0.15981   0.98981   0.00000  Uiso   1.00
C603   C     0.36728   0.14138   0.71684   0.00000  Uiso   1.00
C604   C     0.65091   0.14163   0.71690   0.00000  Uiso   1.00
C605   C     0.50055   0.08740   0.74794   0.00000  Uiso   1.00
C606   C     0.52619   0.16595   0.65002   0.00000  Uiso   1.00
C607   C     0.59611   0.13186   0.51453   0.00000  Uiso   1.00
C608   C     0.54093   0.16029   0.59351   0.00000  Uiso   1.00
C609   C     0.41046   0.17619   0.93432   0.00000  Uiso   1.00
C610   C     0.39604   0.18042   0.98808   0.00000  Uiso   1.00
C611   C     0.42933   0.17321   0.51562   0.00000  Uiso   1.00
C612   C     0.49037   0.15067   0.93579   0.00000  Uiso   1.00
C613   C     0.51398   0.15475   0.51592   0.00000  Uiso   1.00
C614   C     0.56003   0.13685   0.98927   0.00000  Uiso   1.00
C615   C     0.56918   0.12327   0.93810   0.00000  Uiso   1.00
C616   C     0.53466   0.12949   0.91198   0.00000  Uiso   1.00
C617   C     0.50606   0.16746   0.56762   0.00000  Uiso   1.00
C618   C     0.58650   0.14329   0.56658   0.00000  Uiso   1.00
Cu619  Cu    0.45311   0.16666   0.75000   0.00000  Uiso   1.00
Cu620  Cu    0.54689   0.16667   0.75000   0.00000  Uiso   1.00
H621   H     0.61387   0.13746   0.58618   0.00000  Uiso   1.00
H622   H     0.38462   0.18453   0.91368   0.00000  Uiso   1.00
H623   H     0.41553   0.17745   0.55720   0.00000  Uiso   1.00
H624   H     0.35918   0.19061   0.50846   0.00000  Uiso   1.00
H625   H     0.54286   0.11634   0.87339   0.00000  Uiso   1.00
H626   H     0.57822   0.29429   0.70901   0.00000  Uiso   1.00
H627   H     0.58102   0.06384   0.67744   0.00000  Uiso   1.00
H628   H     0.38856   0.08418   0.69003   0.00000  Uiso   1.00
H629   H     0.40184   0.12134   0.64408   0.00000  Uiso   1.00
H630   H     0.42311   0.03797   0.78487   0.00000  Uiso   1.00
H631   H     0.42235   0.29638   0.78650   0.00000  Uiso   1.00
H632   H     0.60654   0.21179   0.80975   0.00000  Uiso   1.00
H633   H     0.36015   0.21175   0.80972   0.00000  Uiso   1.00
H634   H     0.63933   0.12167   0.69045   0.00000  Uiso   1.00
H635   H     0.60327   0.10782   0.91806   0.00000  Uiso   1.00
H636   H     0.63131   0.11820   0.99435   0.00000  Uiso   1.00
H637   H     0.47275   0.18289   0.58904   0.00000  Uiso   1.00
N638   N     0.38265   0.16666   0.74998   0.00000  Uiso   1.00
N639   N     0.61735   0.16669   0.74999   0.00000  Uiso   1.00
N640   N     0.40143   0.11437   0.68213   0.00000  Uiso   1.00
O641   O     0.46042   0.22678   0.75000   0.00000  Uiso   1.00
O642   O     0.53961   0.22679   0.75000   0.00000  Uiso   1.00
O643   O     0.44108   0.16665   0.82549   0.00000  Uiso   1.00
O644   O     0.52027   0.16666   0.82549   0.00000  Uiso   1.00
O645   O     0.46039   0.10654   0.74999   0.00000  Uiso   1.00
O646   O     0.53958   0.10655   0.74999   0.00000  Uiso   1.00
O647   O     0.47973   0.16667   0.67451   0.00000  Uiso   1.00
O648   O     0.55892   0.16668   0.67451   0.00000  Uiso   1.00
O649   O     0.58869   0.03904   0.69487   0.00000  Uiso   1.00
C650   C     0.83337   0.24593   0.75001   0.00000  Uiso   1.00
C651   C     0.79122   0.16249   0.90739   0.00000  Uiso   1.00
C652   C     0.87785   0.31127   0.72599   0.00000  Uiso   1.00
C653   C     0.80716   0.16445   0.85003   0.00000  Uiso   1.00
C654   C     0.87846   0.02057   0.72218   0.00000  Uiso   1.00
C655   C     0.83451   0.04270   0.74511   0.00000  Uiso   1.00
C656   C     0.79045   0.02154   0.76749   0.00000  Uiso   1.00
C657   C     0.79000   0.31226   0.76882   0.00000  Uiso   1.00
C658   C     0.83378   0.29046   0.74875   0.00000  Uiso   1.00
C659   C     0.96596   0.19170   0.78316   0.00000  Uiso   1.00
C660   C     0.68221   0.19169   0.78316   0.00000  Uiso   1.00
C661   C     0.81111   0.15981   0.98981   0.00000  Uiso   1.00
C662   C     0.70061   0.14138   0.71684   0.00000  Uiso   1.00
C663   C     0.98424   0.14163   0.71690   0.00000  Uiso   1.00
C664   C     0.83389   0.08740   0.74794   0.00000  Uiso   1.00
C665   C     0.85952   0.16595   0.65002   0.00000  Uiso   1.00
C666   C     0.92945   0.13186   0.51453   0.00000  Uiso   1.00
C667   C     0.87426   0.16029   0.59351   0.00000  Uiso   1.00
C668   C     0.74379   0.17619   0.93432   0.00000  Uiso   1.00
C669   C     0.72937   0.18042   0.98808   0.00000  Uiso   1.00
C670   C     0.76267   0.17321   0.51562   0.00000  Uiso   1.00
C671   C     0.82371   0.15067   0.93579   0.00000  Uiso   1.00
C672   C     0.84731   0.15475   0.51592   0.00000  Uiso   1.00
C673   C     0.89336   0.13685   0.98927   0.00000  Uiso   1.00
C674   C     0.90251   0.12327   0.93810   0.00000  Uiso   1.00
C675   C     0.86799   0.12949   0.91198   0.00000  Uiso   1.00
C676   C     0.83939   0.16746   0.56762   0.00000  Uiso   1.00
C677   C     0.91983   0.14329   0.56658   0.00000  Uiso   1.00
Cu678  Cu    0.78645   0.16666   0.75000   0.00000  Uiso   1.00
Cu679  Cu    0.88022   0.16667   0.75000   0.00000  Uiso   1.00
H680   H     0.94721   0.13746   0.58618   0.00000  Uiso   1.00
H681   H     0.71795   0.18453   0.91368   0.00000  Uiso   1.00
H682   H     0.74886   0.17745   0.55720   0.00000  Uiso   1.00
H683   H     0.69251   0.19061   0.50846   0.00000  Uiso   1.00
H684   H     0.87620   0.11634   0.87339   0.00000  Uiso   1.00
H685   H     0.91155   0.29429   0.70901   0.00000  Uiso   1.00
H686   H     0.91435   0.06384   0.67744   0.00000  Uiso   1.00
H687   H     0.72190   0.08418   0.69003   0.00000  Uiso   1.00
H688   H     0.73518   0.12134   0.64408   0.00000  Uiso   1.00
H689   H     0.75645   0.03797   0.78487   0.00000  Uiso   1.00
H690   H     0.75568   0.29638   0.78650   0.00000  Uiso   1.00
H691   H     0.93987   0.21179   0.80975   0.00000  Uiso   1.00
H692   H     0.69349   0.21175   0.80972   0.00000  Uiso   1.00
H693   H     0.97267   0.12167   0.69045   0.00000  Uiso   1.00
H694   H     0.93660   0.10782   0.91806   0.00000  Uiso   1.00
H695   H     0.96465   0.11820   0.99435   0.00000  Uiso   1.00
H696   H     0.80609   0.18289   0.58904   0.00000  Uiso   1.00
N697   N     0.71598   0.16666   0.74998   0.00000  Uiso   1.00
N698   N     0.95069   0.16669   0.74999   0.00000  Uiso   1.00
N699   N     0.73477   0.11437   0.68213   0.00000  Uiso   1.00
O700   O     0.79375   0.22678   0.75000   0.00000  Uiso   1.00
O701   O     0.87294   0.22679   0.75000   0.00000  Uiso   1.00
O702   O     0.77441   0.16665   0.82549   0.00000  Uiso   1.00
O703   O     0.85360   0.16666   0.82549   0.00000  Uiso   1.00
O704   O     0.79373   0.10654   0.74999   0.00000  Uiso   1.00
O705   O     0.87292   0.10655   0.74999   0.00000  Uiso   1.00
O706   O     0.81306   0.16667   0.67451   0.00000  Uiso   1.00
O707   O     0.89225   0.16668   0.67451   0.00000  Uiso   1.00
O708   O     0.92203   0.03904   0.69487   0.00000  Uiso   1.00
C709   C     0.16671   0.57926   0.75001   0.00000  Uiso   1.00
C710   C     0.12455   0.49582   0.90739   0.00000  Uiso   1.00
C711   C     0.21118   0.64460   0.72599   0.00000  Uiso   1.00
C712   C     0.14049   0.49778   0.85003   0.00000  Uiso   1.00
C713   C     0.21179   0.35390   0.72218   0.00000  Uiso   1.00
C714   C     0.16784   0.37604   0.74511   0.00000  Uiso   1.00
C715   C     0.12379   0.35487   0.76749   0.00000  Uiso   1.00
C716   C     0.12333   0.64559   0.76882   0.00000  Uiso   1.00
C717   C     0.16712   0.62380   0.74875   0.00000  Uiso   1.00
C718   C     0.29929   0.52504   0.78316   0.00000  Uiso   1.00
C719   C     0.01555   0.52502   0.78316   0.00000  Uiso   1.00
C720   C     0.14444   0.49314   0.98981   0.00000  Uiso   1.00
C721   C     0.03395   0.47471   0.71684   0.00000  Uiso   1.00
C722   C     0.31757   0.47496   0.71690   0.00000  Uiso   1.00
C723   C     0.16722   0.42073   0.74794   0.00000  Uiso   1.00
C724   C     0.19286   0.49929   0.65002   0.00000  Uiso   1.00
C725   C     0.26278   0.46520   0.51453   0.00000  Uiso   1.00
C726   C     0.20760   0.49362   0.59351   0.00000  Uiso   1.00
C727   C     0.07713   0.50953   0.93432   0.00000  Uiso   1.00
C728   C     0.06271   0.51376   0.98808   0.00000  Uiso   1.00
C729   C     0.09600   0.50655   0.51562   0.00000  Uiso   1.00
C730   C     0.15704   0.48400   0.93579   0.00000  Uiso   1.00
C731   C     0.18064   0.48808   0.51592   0.00000  Uiso   1.00
C732   C     0.22669   0.47018   0.98927   0.00000  Uiso   1.00
C733   C     0.23584   0.45661   0.93810   0.00000  Uiso   1.00
C734   C     0.20133   0.46282   0.91198   0.00000  Uiso   1.00
C735   C     0.17273   0.50079   0.56762   0.00000  Uiso   1.00
C736   C     0.25316   0.47662   0.56658   0.00000  Uiso   1.00
Cu737  Cu    0.11978   0.49999   0.75000   0.00000  Uiso   1.00
Cu738  Cu    0.21355   0.50001   0.75000   0.00000  Uiso   1.00
H739   H     0.28054   0.47079   0.58618   0.00000  Uiso   1.00
H740   H     0.05128   0.51787   0.91368   0.00000  Uiso   1.00
H741   H     0.08219   0.51078   0.55720   0.00000  Uiso   1.00
H742   H     0.02585   0.52395   0.50846   0.00000  Uiso   1.00
H743   H     0.20953   0.44967   0.87339   0.00000  Uiso   1.00
H744   H     0.24488   0.62763   0.70901   0.00000  Uiso   1.00
H745   H     0.24768   0.39718   0.67744   0.00000  Uiso   1.00
H746   H     0.05523   0.41751   0.69003   0.00000  Uiso   1.00
H747   H     0.06851   0.45468   0.64408   0.00000  Uiso   1.00
H748   H     0.08978   0.37131   0.78487   0.00000  Uiso   1.00
H749   H     0.08901   0.62971   0.78650   0.00000  Uiso   1.00
H750   H     0.27320   0.54512   0.80975   0.00000  Uiso   1.00
H751   H     0.02682   0.54509   0.80972   0.00000  Uiso   1.00
H752   H     0.30600   0.45501   0.69045   0.00000  Uiso   1.00
H753   H     0.26993   0.44116   0.91806   0.00000  Uiso   1.00
H754   H     0.29798   0.45154   0.99435   0.00000  Uiso   1.00
H755   H     0.13942   0.51623   0.58904   0.00000  Uiso   1.00
N756   N     0.04931   0.49999   0.74998   0.00000  Uiso   1.00
N757   N     0.28402   0.50002   0.74999   0.00000  Uiso   1.00
N758   N     0.06810   0.44770   0.68213   0.00000  Uiso   1.00
O759   O     0.12708   0.56011   0.75000   0.00000  Uiso   1.00
O760   O     0.20627   0.56012   0.75000   0.00000  Uiso   1.00
O761   O     0.10775   0.49998   0.82549   0.00000  Uiso   1.00
O762   O     0.18694   0.49999   0.82549   0.00000  Uiso   1.00
O763   O     0.12706   0.43988   0.74999   0.00000  Uiso   1.00
O764   O     0.20625   0.43989   0.74999   0.00000  Uiso   1.00
O765   O     0.14640   0.50001   0.67451   0.00000  Uiso   1.00
O766   O     0.22559   0.50002   0.67451   0.00000  Uiso   1.00
O767   O     0.25536   0.37237   0.69487   0.00000  Uiso   1.00
C768   C     0.50004   0.57926   0.75001   0.00000  Uiso   1.00
C769   C     0.45789   0.49582   0.90739   0.00000  Uiso   1.00
C770   C     0.54451   0.64460   0.72599   0.00000  Uiso   1.00
C771   C     0.47382   0.49778   0.85003   0.00000  Uiso   1.00
C772   C     0.54512   0.35390   0.72218   0.00000  Uiso   1.00
C773   C     0.50117   0.37604   0.74511   0.00000  Uiso   1.00
C774   C     0.45712   0.35487   0.76749   0.00000  Uiso   1.00
C775   C     0.45667   0.64559   0.76882   0.00000  Uiso   1.00
C776   C     0.50045   0.62380   0.74875   0.00000  Uiso   1.00
C777   C     0.63263   0.52504   0.78316   0.00000  Uiso   1.00
C778   C     0.34888   0.52502   0.78316   0.00000  Uiso   1.00
C779   C     0.47777   0.49314   0.98981   0.00000  Uiso   1.00
C780   C     0.36728   0.47471   0.71684   0.00000  Uiso   1.00
C781   C     0.65091   0.47496   0.71690   0.00000  Uiso   1.00
C782   C     0.50055   0.42073   0.74794   0.00000  Uiso   1.00
C783   C     0.52619   0.49929   0.65002   0.00000  Uiso   1.00
C784   C     0.59611   0.46520   0.51453   0.00000  Uiso   1.00
C785   C     0.54093   0.49362   0.59351   0.00000  Uiso   1.00
C786   C     0.41046   0.50953   0.93432   0.00000  Uiso   1.00
C787   C     0.39604   0.51376   0.98808   0.00000  Uiso   1.00
C788   C     0.42933   0.50655   0.51562   0.00000  Uiso   1.00
C789   C     0.49037   0.48400   0.93579   0.00000  Uiso   1.00
C790   C     0.51398   0.48808   0.51592   0.00000  Uiso   1.00
C791   C     0.56003   0.47018   0.98927   0.00000  Uiso   1.00
C792   C     0.56918   0.45661   0.93810   0.00000  Uiso   1.00
C793   C     0.53466   0.46282   0.91198   0.00000  Uiso   1.00
C794   C     0.50606   0.50079   0.56762   0.00000  Uiso   1.00
C795   C     0.58650   0.47662   0.56658   0.00000  Uiso   1.00
Cu796  Cu    0.45311   0.49999   0.75000   0.00000  Uiso   1.00
Cu797  Cu    0.54689   0.50001   0.75000   0.00000  Uiso   1.00
H798   H     0.61387   0.47079   0.58618   0.00000  Uiso   1.00
H799   H     0.38462   0.51787   0.91368   0.00000  Uiso   1.00
H800   H     0.41553   0.51078   0.55720   0.00000  Uiso   1.00
H801   H     0.35918   0.52395   0.50846   0.00000  Uiso   1.00
H802   H     0.54286   0.44967   0.87339   0.00000  Uiso   1.00
H803   H     0.57822   0.62763   0.70901   0.00000  Uiso   1.00
H804   H     0.58102   0.39718   0.67744   0.00000  Uiso   1.00
H805   H     0.38856   0.41751   0.69003   0.00000  Uiso   1.00
H806   H     0.40184   0.45468   0.64408   0.00000  Uiso   1.00
H807   H     0.42311   0.37131   0.78487   0.00000  Uiso   1.00
H808   H     0.42235   0.62971   0.78650   0.00000  Uiso   1.00
H809   H     0.60654   0.54512   0.80975   0.00000  Uiso   1.00
H810   H     0.36015   0.54509   0.80972   0.00000  Uiso   1.00
H811   H     0.63933   0.45501   0.69045   0.00000  Uiso   1.00
H812   H     0.60327   0.44116   0.91806   0.00000  Uiso   1.00
H813   H     0.63131   0.45154   0.99435   0.00000  Uiso   1.00
H814   H     0.47275   0.51623   0.58904   0.00000  Uiso   1.00
N815   N     0.38265   0.49999   0.74998   0.00000  Uiso   1.00
N816   N     0.61735   0.50002   0.74999   0.00000  Uiso   1.00
N817   N     0.40143   0.44770   0.68213   0.00000  Uiso   1.00
O818   O     0.46042   0.56011   0.75000   0.00000  Uiso   1.00
O819   O     0.53961   0.56012   0.75000   0.00000  Uiso   1.00
O820   O     0.44108   0.49998   0.82549   0.00000  Uiso   1.00
O821   O     0.52027   0.49999   0.82549   0.00000  Uiso   1.00
O822   O     0.46039   0.43988   0.74999   0.00000  Uiso   1.00
O823   O     0.53958   0.43989   0.74999   0.00000  Uiso   1.00
O824   O     0.47973   0.50001   0.67451   0.00000  Uiso   1.00
O825   O     0.55892   0.50002   0.67451   0.00000  Uiso   1.00
O826   O     0.58869   0.37237   0.69487   0.00000  Uiso   1.00
C827   C     0.83337   0.57926   0.75001   0.00000  Uiso   1.00
C828   C     0.79122   0.49582   0.90739   0.00000  Uiso   1.00
C829   C     0.87785   0.64460   0.72599   0.00000  Uiso   1.00
C830   C     0.80716   0.49778   0.85003   0.00000  Uiso   1.00
C831   C     0.87846   0.35390   0.72218   0.00000  Uiso   1.00
C832   C     0.83451   0.37604   0.74511   0.00000  Uiso   1.00
C833   C     0.79045   0.35487   0.76749   0.00000  Uiso   1.00
C834   C     0.79000   0.64559   0.76882   0.00000  Uiso   1.00
C835   C     0.83378   0.62380   0.74875   0.00000  Uiso   1.00
C836   C     0.96596   0.52504   0.78316   0.00000  Uiso   1.00
C837   C     0.68221   0.52502   0.78316   0.00000  Uiso   1.00
C838   C     0.81111   0.49314   0.98981   0.00000  Uiso   1.00
C839   C     0.70061   0.47471   0.71684   0.00000  Uiso   1.00
C840   C     0.98424   0.47496   0.71690   0.00000  Uiso   1.00
C841   C     0.83389   0.42073   0.74794   0.00000  Uiso   1.00
C842   C     0.85952   0.49929   0.65002   0.00000  Uiso   1.00
C843   C     0.92945   0.46520   0.51453   0.00000  Uiso   1.00
C844   C     0.87426   0.49362   0.59351   0.00000  Uiso   1.00
C845   C     0.74379   0.50953   0.93432   0.00000  Uiso   1.00
C846   C     0.72937   0.51376   0.98808   0.00000  Uiso   1.00
C847   C     0.76267   0.50655   0.51562   0.00000  Uiso   1.00
C848   C     0.82371   0.48400   0.93579   0.00000  Uiso   1.00
C849   C     0.84731   0.48808   0.51592   0.00000  Uiso   1.00
C850   C     0.89336   0.47018   0.98927   0.00000  Uiso   1.00
C851   C     0.90251   0.45661   0.93810   0.00000  Uiso   1.00
C852   C     0.86799   0.46282   0.91198   0.00000  Uiso   1.00
C853   C     0.83939   0.50079   0.56762   0.00000  Uiso   1.00
C854   C     0.91983   0.47662   0.56658   0.00000  Uiso   1.00
Cu855  Cu    0.78645   0.49999   0.75000   0.00000  Uiso   1.00
Cu856  Cu    0.88022   0.50001   0.75000   0.00000  Uiso   1.00
H857   H     0.94721   0.47079   0.58618   0.00000  Uiso   1.00
H858   H     0.71795   0.51787   0.91368   0.00000  Uiso   1.00
H859   H     0.74886   0.51078   0.55720   0.00000  Uiso   1.00
H860   H     0.69251   0.52395   0.50846   0.00000  Uiso   1.00
H861   H     0.87620   0.44967   0.87339   0.00000  Uiso   1.00
H862   H     0.91155   0.62763   0.70901   0.00000  Uiso   1.00
H863   H     0.91435   0.39718   0.67744   0.00000  Uiso   1.00
H864   H     0.72190   0.41751   0.69003   0.00000  Uiso   1.00
H865   H     0.73518   0.45468   0.64408   0.00000  Uiso   1.00
H866   H     0.75645   0.37131   0.78487   0.00000  Uiso   1.00
H867   H     0.75568   0.62971   0.78650   0.00000  Uiso   1.00
H868   H     0.93987   0.54512   0.80975   0.00000  Uiso   1.00
H869   H     0.69349   0.54509   0.80972   0.00000  Uiso   1.00
H870   H     0.97267   0.45501   0.69045   0.00000  Uiso   1.00
H871   H     0.93660   0.44116   0.91806   0.00000  Uiso   1.00
H872   H     0.96465   0.45154   0.99435   0.00000  Uiso   1.00
H873   H     0.80609   0.51623   0.58904   0.00000  Uiso   1.00
N874   N     0.71598   0.49999   0.74998   0.00000  Uiso   1.00
N875   N     0.95069   0.50002   0.74999   0.00000  Uiso   1.00
N876   N     0.73477   0.44770   0.68213   0.00000  Uiso   1.00
O877   O     0.79375   0.56011   0.75000   0.00000  Uiso   1.00
O878   O     0.87294   0.56012   0.75000   0.00000  Uiso   1.00
O879   O     0.77441   0.49998   0.82549   0.00000  Uiso   1.00
O880   O     0.85360   0.49999   0.82549   0.00000  Uiso   1.00
O881   O     0.79373   0.43988   0.74999   0.00000  Uiso   1.00
O882   O     0.87292   0.43989   0.74999   0.00000  Uiso   1.00
O883   O     0.81306   0.50001   0.67451   0.00000  Uiso   1.00
O884   O     0.89225   0.50002   0.67451   0.00000  Uiso   1.00
O885   O     0.92203   0.37237   0.69487   0.00000  Uiso   1.00
C886   C     0.16671   0.91259   0.75001   0.00000  Uiso   1.00
C887   C     0.12455   0.82916   0.90739   0.00000  Uiso   1.00
C888   C     0.21118   0.97793   0.72599   0.00000  Uiso   1.00
C889   C     0.14049   0.83111   0.85003   0.00000  Uiso   1.00
C890   C     0.21179   0.68723   0.72218   0.00000  Uiso   1.00
C891   C     0.16784   0.70937   0.74511   0.00000  Uiso   1.00
C892   C     0.12379   0.68821   0.76749   0.00000  Uiso   1.00
C893   C     0.12333   0.97892   0.76882   0.00000  Uiso   1.00
C894   C     0.16712   0.95713   0.74875   0.00000  Uiso   1.00
C895   C     0.29929   0.85837   0.78316   0.00000  Uiso   1.00
C896   C     0.01555   0.85836   0.78316   0.00000  Uiso   1.00
C897   C     0.14444   0.82648   0.98981   0.00000  Uiso   1.00
C898   C     0.03395   0.80805   0.71684   0.00000  Uiso   1.00
C899   C     0.31757   0.80829   0.71690   0.00000  Uiso   1.00
C900   C     0.16722   0.75406   0.74794   0.00000  Uiso   1.00
C901   C     0.19286   0.83262   0.65002   0.00000  Uiso   1.00
C902   C     0.26278   0.79853   0.51453   0.00000  Uiso   1.00
C903   C     0.20760   0.82695   0.59351   0.00000  Uiso   1.00
C904   C     0.07713   0.84286   0.93432   0.00000  Uiso   1.00
C905   C     0.06271   0.84709   0.98808   0.00000  Uiso   1.00
C906   C     0.09600   0.83988   0.51562   0.00000  Uiso   1.00
C907   C     0.15704   0.81734   0.93579   0.00000  Uiso   1.00
C908   C     0.18064   0.82141   0.51592   0.00000  Uiso   1.00
C909   C     0.22669   0.80351   0.98927   0.00000  Uiso   1.00
C910   C     0.23584   0.78994   0.93810   0.00000  Uiso   1.00
C911   C     0.20133   0.79615   0.91198   0.00000  Uiso   1.00
C912   C     0.17273   0.83413   0.56762   0.00000  Uiso   1.00
C913   C     0.25316   0.80996   0.56658   0.00000  Uiso   1.00
Cu914  Cu    0.11978   0.83333   0.75000   0.00000  Uiso   1.00
Cu915  Cu    0.21355   0.83334   0.75000   0.00000  Uiso   1.00
H916   H     0.28054   0.80413   0.58618   0.00000  Uiso   1.00
H917   H     0.05128   0.85120   0.91368   0.00000  Uiso   1.00
H918   H     0.08219   0.84411   0.55720   0.00000  Uiso   1.00
H919   H     0.02585   0.85728   0.50846   0.00000  Uiso   1.00
H920   H     0.20953   0.78300   0.87339   0.00000  Uiso   1.00
H921   H     0.24488   0.96096   0.70901   0.00000  Uiso   1.00
H922   H     0.24768   0.73051   0.67744   0.00000  Uiso   1.00
H923   H     0.05523   0.75084   0.69003   0.00000  Uiso   1.00
H924   H     0.06851   0.78801   0.64408   0.00000  Uiso   1.00
H925   H     0.08978   0.70464   0.78487   0.00000  Uiso   1.00
H926   H     0.08901   0.96304   0.78650   0.00000  Uiso   1.00
H927   H     0.27320   0.87846   0.80975   0.00000  Uiso   1.00
H928   H     0.02682   0.87842   0.80972   0.00000  Uiso   1.00
H929   H     0.30600   0.78834   0.69045   0.00000  Uiso   1.00
H930   H     0.26993   0.77449   0.91806   0.00000  Uiso   1.00
H931   H     0.29798   0.78487   0.99435   0.00000  Uiso   1.00
H932   H     0.13942   0.84956   0.58904   0.00000  Uiso   1.00
N933   N     0.04931   0.83332   0.74998   0.00000  Uiso   1.00
N934   N     0.28402   0.83335   0.74999   0.00000  Uiso   1.00
N935   N     0.06810   0.78104   0.68213   0.00000  Uiso   1.00
O936   O     0.12708   0.89345   0.75000   0.00000  Uiso   1.00
O937   O     0.20627   0.89346   0.75000   0.00000  Uiso   1.00
O938   O     0.10775   0.83332   0.82549   0.00000  Uiso   1.00
O939   O     0.18694   0.83333   0.82549   0.00000  Uiso   1.00
O940   O     0.12706   0.77321   0.74999   0.00000  Uiso   1.00
O941   O     0.20625   0.77322   0.74999   0.00000  Uiso   1.00
O942   O     0.14640   0.83334   0.67451   0.00000  Uiso   1.00
O943   O     0.22559   0.83335   0.67451   0.00000  Uiso   1.00
O944   O     0.25536   0.70570   0.69487   0.00000  Uiso   1.00
C945   C     0.50004   0.91259   0.75001   0.00000  Uiso   1.00
C946   C     0.45789   0.82916   0.90739   0.00000  Uiso   1.00
C947   C     0.54451   0.97793   0.72599   0.00000  Uiso   1.00
C948   C     0.47382   0.83111   0.85003   0.00000  Uiso   1.00
C949   C     0.54512   0.68723   0.72218   0.00000  Uiso   1.00
C950   C     0.50117   0.70937   0.74511   0.00000  Uiso   1.00
C951   C     0.45712   0.68821   0.76749   0.00000  Uiso   1.00
C952   C     0.45667   0.97892   0.76882   0.00000  Uiso   1.00
C953   C     0.50045   0.95713   0.74875   0.00000  Uiso   1.00
C954   C     0.63263   0.85837   0.78316   0.00000  Uiso   1.00
C955   C     0.34888   0.85836   0.78316   0.00000  Uiso   1.00
C956   C     0.47777   0.82648   0.98981   0.00000  Uiso   1.00
C957   C     0.36728   0.80805   0.71684   0.00000  Uiso   1.00
C958   C     0.65091   0.80829   0.71690   0.00000  Uiso   1.00
C959   C     0.50055   0.75406   0.74794   0.00000  Uiso   1.00
C960   C     0.52619   0.83262   0.65002   0.00000  Uiso   1.00
C961   C     0.59611   0.79853   0.51453   0.00000  Uiso   1.00
C962   C     0.54093   0.82695   0.59351   0.00000  Uiso   1.00
C963   C     0.41046   0.84286   0.93432   0.00000  Uiso   1.00
C964   C     0.39604   0.84709   0.98808   0.00000  Uiso   1.00
C965   C     0.42933   0.83988   0.51562   0.00000  Uiso   1.00
C966   C     0.49037   0.81734   0.93579   0.00000  Uiso   1.00
C967   C     0.51398   0.82141   0.51592   0.00000  Uiso   1.00
C968   C     0.56003   0.80351   0.98927   0.00000  Uiso   1.00
C969   C     0.56918   0.78994   0.93810   0.00000  Uiso   1.00
C970   C     0.53466   0.79615   0.91198   0.00000  Uiso   1.00
C971   C     0.50606   0.83413   0.56762   0.00000  Uiso   1.00
C972   C     0.58650   0.80996   0.56658   0.00000  Uiso   1.00
Cu973  Cu    0.45311   0.83333   0.75000   0.00000  Uiso   1.00
Cu974  Cu    0.54689   0.83334   0.75000   0.00000  Uiso   1.00
H975   H     0.61387   0.80413   0.58618   0.00000  Uiso   1.00
H976   H     0.38462   0.85120   0.91368   0.00000  Uiso   1.00
H977   H     0.41553   0.84411   0.55720   0.00000  Uiso   1.00
H978   H     0.35918   0.85728   0.50846   0.00000  Uiso   1.00
H979   H     0.54286   0.78300   0.87339   0.00000  Uiso   1.00
H980   H     0.57822   0.96096   0.70901   0.00000  Uiso   1.00
H981   H     0.58102   0.73051   0.67744   0.00000  Uiso   1.00
H982   H     0.38856   0.75084   0.69003   0.00000  Uiso   1.00
H983   H     0.40184   0.78801   0.64408   0.00000  Uiso   1.00
H984   H     0.42311   0.70464   0.78487   0.00000  Uiso   1.00
H985   H     0.42235   0.96304   0.78650   0.00000  Uiso   1.00
H986   H     0.60654   0.87846   0.80975   0.00000  Uiso   1.00
H987   H     0.36015   0.87842   0.80972   0.00000  Uiso   1.00
H988   H     0.63933   0.78834   0.69045   0.00000  Uiso   1.00
H989   H     0.60327   0.77449   0.91806   0.00000  Uiso   1.00
H990   H     0.63131   0.78487   0.99435   0.00000  Uiso   1.00
H991   H     0.47275   0.84956   0.58904   0.00000  Uiso   1.00
N992   N     0.38265   0.83332   0.74998   0.00000  Uiso   1.00
N993   N     0.61735   0.83335   0.74999   0.00000  Uiso   1.00
N994   N     0.40143   0.78104   0.68213   0.00000  Uiso   1.00
O995   O     0.46042   0.89345   0.75000   0.00000  Uiso   1.00
O996   O     0.53961   0.89346   0.75000   0.00000  Uiso   1.00
O997   O     0.44108   0.83332   0.82549   0.00000  Uiso   1.00
O998   O     0.52027   0.83333   0.82549   0.00000  Uiso   1.00
O999   O     0.46039   0.77321   0.74999   0.00000  Uiso   1.00
O1000  O     0.53958   0.77322   0.74999   0.00000  Uiso   1.00
O1001  O     0.47973   0.83334   0.67451   0.00000  Uiso   1.00
O1002  O     0.55892   0.83335   0.67451   0.00000  Uiso   1.00
O1003  O     0.58869   0.70570   0.69487   0.00000  Uiso   1.00
C1004  C     0.83337   0.91259   0.75001   0.00000  Uiso   1.00
C1005  C     0.79122   0.82916   0.90739   0.00000  Uiso   1.00
C1006  C     0.87785   0.97793   0.72599   0.00000  Uiso   1.00
C1007  C     0.80716   0.83111   0.85003   0.00000  Uiso   1.00
C1008  C     0.87846   0.68723   0.72218   0.00000  Uiso   1.00
C1009  C     0.83451   0.70937   0.74511   0.00000  Uiso   1.00
C1010  C     0.79045   0.68821   0.76749   0.00000  Uiso   1.00
C1011  C     0.79000   0.97892   0.76882   0.00000  Uiso   1.00
C1012  C     0.83378   0.95713   0.74875   0.00000  Uiso   1.00
C1013  C     0.96596   0.85837   0.78316   0.00000  Uiso   1.00
C1014  C     0.68221   0.85836   0.78316   0.00000  Uiso   1.00
C1015  C     0.81111   0.82648   0.98981   0.00000  Uiso   1.00
C1016  C     0.70061   0.80805   0.71684   0.00000  Uiso   1.00
C1017  C     0.98424   0.80829   0.71690   0.00000  Uiso   1.00
C1018  C     0.83389   0.75406   0.74794   0.00000  Uiso   1.00
C1019  C     0.85952   0.83262   0.65002   0.00000  Uiso   1.00
C1020  C     0.92945   0.79853   0.51453   0.00000  Uiso   1.00
C1021  C     0.87426   0.82695   0.59351   0.00000  Uiso   1.00
C1022  C     0.74379   0.84286   0.93432   0.00000  Uiso   1.00
C1023  C     0.72937   0.84709   0.98808   0.00000  Uiso   1.00
C1024  C     0.76267   0.83988   0.51562   0.00000  Uiso   1.00
C1025  C     0.82371   0.81734   0.93579   0.00000  Uiso   1.00
C1026  C     0.84731   0.82141   0.51592   0.00000  Uiso   1.00
C1027  C     0.89336   0.80351   0.98927   0.00000  Uiso   1.00
C1028  C     0.90251   0.78994   0.93810   0.00000  Uiso   1.00
C1029  C     0.86799   0.79615   0.91198   0.00000  Uiso   1.00
C1030  C     0.83939   0.83413   0.56762   0.00000  Uiso   1.00
C1031  C     0.91983   0.80996   0.56658   0.00000  Uiso   1.00
Cu1032 Cu    0.78645   0.83333   0.75000   0.00000  Uiso   1.00
Cu1033 Cu    0.88022   0.83334   0.75000   0.00000  Uiso   1.00
H1034  H     0.94721   0.80413   0.58618   0.00000  Uiso   1.00
H1035  H     0.71795   0.85120   0.91368   0.00000  Uiso   1.00
H1036  H     0.74886   0.84411   0.55720   0.00000  Uiso   1.00
H1037  H     0.69251   0.85728   0.50846   0.00000  Uiso   1.00
H1038  H     0.87620   0.78300   0.87339   0.00000  Uiso   1.00
H1039  H     0.91155   0.96096   0.70901   0.00000  Uiso   1.00
H1040  H     0.91435   0.73051   0.67744   0.00000  Uiso   1.00
H1041  H     0.72190   0.75084   0.69003   0.00000  Uiso   1.00
H1042  H     0.73518   0.78801   0.64408   0.00000  Uiso   1.00
H1043  H     0.75645   0.70464   0.78487   0.00000  Uiso   1.00
H1044  H     0.75568   0.96304   0.78650   0.00000  Uiso   1.00
H1045  H     0.93987   0.87846   0.80975   0.00000  Uiso   1.00
H1046  H     0.69349   0.87842   0.80972   0.00000  Uiso   1.00
H1047  H     0.97267   0.78834   0.69045   0.00000  Uiso   1.00
H1048  H     0.93660   0.77449   0.91806   0.00000  Uiso   1.00
H1049  H     0.96465   0.78487   0.99435   0.00000  Uiso   1.00
H1050  H     0.80609   0.84956   0.58904   0.00000  Uiso   1.00
N1051  N     0.71598   0.83332   0.74998   0.00000  Uiso   1.00
N1052  N     0.95069   0.83335   0.74999   0.00000  Uiso   1.00
N1053  N     0.73477   0.78104   0.68213   0.00000  Uiso   1.00
O1054  O     0.79375   0.89345   0.75000   0.00000  Uiso   1.00
O1055  O     0.87294   0.89346   0.75000   0.00000  Uiso   1.00
O1056  O     0.77441   0.83332   0.82549   0.00000  Uiso   1.00
O1057  O     0.85360   0.83333   0.82549   0.00000  Uiso   1.00
O1058  O     0.79373   0.77321   0.74999   0.00000  Uiso   1.00
O1059  O     0.87292   0.77322   0.74999   0.00000  Uiso   1.00
O1060  O     0.81306   0.83334   0.67451   0.00000  Uiso   1.00
O1061  O     0.89225   0.83335   0.67451   0.00000  Uiso   1.00
O1062  O     0.92203   0.70570   0.69487   0.00000  Uiso   1.00
loop_
_geom_bond_atom_site_label_1
_geom_bond_atom_site_label_2
_geom_bond_distance
_geom_bond_site_symmetry_2
_ccdc_geom_bond_type
C1     O51     1.290   .     A
C1     C9      1.445   .     S
C1     O52     1.290   .     A
C2     C22     1.421   .     A
C2     C4      1.474   .     S
C2     C19     1.404   .     A
C3     C9      1.398   .     A
C3     H36     1.084   .     S
C3     C182    1.387   .     S
C4     O53     1.298   .     A
C4     O54     1.295   .     A
C5     C6      1.417   .     A
C5     O59     1.379   .     S
C5     C357    1.387   1_545 S
C6     C7      1.402   .     A
C6     C15     1.451   .     S
C7     H40     1.084   .     S
C7     C362    1.383   1_545 S
C8     H41     1.084   .     S
C8     C9      1.397   .     A
C8     C184    1.383   .     S
C10    H42     1.082   .     S
C10    N49     1.367   .     A
C10    C70     1.417   .     S
C11    H43     1.082   .     S
C11    N48     1.367   .     A
C11    C128    1.417   1_455 S
C12    C22     1.419   .     A
C12    C552    1.418   .     S
C12    C554    1.423   .     S
C13    N48     1.373   .     A
C13    N50     1.429   .     S
C13    C132    1.420   1_455 S
C14    H44     1.082   .     S
C14    N49     1.363   .     A
C14    C72     1.420   .     S
C15    O56     1.291   .     A
C15    O55     1.292   .     A
C16    O58     1.295   .     A
C16    O57     1.293   .     A
C16    C18     1.462   .     S
C17    C28     1.392   .     A
C17    C555    1.404   1_554 S
C17    H577    1.084   1_554 S
C18    C28     1.399   .     A
C18    C27     1.396   .     A
C19    C20     1.386   .     A
C19    H32     1.083   .     S
C20    C552    1.390   .     S
C20    H565    1.083   .     S
C21    H33     1.077   .     S
C21    C551    1.390   1_554 S
C21    C543    1.418   1_554 S
C22    C26     1.413   .     A
C23    C27     1.401   .     A
C23    C543    1.423   1_554 S
C23    C555    1.420   1_554 S
C24    C25     1.391   .     A
C24    C548    1.404   .     S
C24    C554    1.420   .     S
C25    C26     1.387   .     A
C25    H45     1.084   .     S
C26    H35     1.080   .     S
C27    H47     1.077   .     S
C28    H31     1.083   .     S
Cu29   O51     1.961   .     S
Cu29   Cu30    2.679   .     S
Cu29   O53     1.955   .     S
Cu29   O57     1.944   .     S
Cu29   N48     2.013   .     S
Cu29   O55     1.961   .     S
Cu30   O54     1.944   .     S
Cu30   O58     1.955   .     S
Cu30   N49     2.013   .     S
Cu30   O52     1.961   .     S
Cu30   O56     1.961   .     S
H34    C551    1.083   1_554 S
H37    O59     0.990   .     S
H38    N50     1.046   .     S
H39    N50     1.046   .     S
H46    C548    1.084   .     S
C60    O110    1.290   .     A
C60    C68     1.445   .     S
C60    O111    1.290   .     A
C61    C81     1.421   .     A
C61    C63     1.474   .     S
C61    C78     1.404   .     A
C62    C68     1.398   .     A
C62    H95     1.084   .     S
C62    C241    1.387   .     S
C63    O112    1.298   .     A
C63    O113    1.295   .     A
C64    C65     1.417   .     A
C64    O118    1.379   .     S
C64    C416    1.387   1_545 S
C65    C66     1.402   .     A
C65    C74     1.451   .     S
C66    H99     1.084   .     S
C66    C421    1.383   1_545 S
C67    H100    1.084   .     S
C67    C68     1.397   .     A
C67    C243    1.383   .     S
C69    H101    1.082   .     S
C69    N108    1.367   .     A
C69    C129    1.417   .     S
C70    H102    1.082   .     S
C70    N107    1.367   .     A
C71    C81     1.419   .     A
C71    C611    1.418   .     S
C71    C613    1.423   .     S
C72    N107    1.373   .     A
C72    N109    1.429   .     S
C73    H103    1.082   .     S
C73    N108    1.363   .     A
C73    C131    1.420   .     S
C74    O115    1.291   .     A
C74    O114    1.292   .     A
C75    O117    1.295   .     A
C75    O116    1.293   .     A
C75    C77     1.462   .     S
C76    C87     1.392   .     A
C76    C614    1.404   1_554 S
C76    H636    1.084   1_554 S
C77    C87     1.399   .     A
C77    C86     1.396   .     A
C78    C79     1.386   .     A
C78    H91     1.083   .     S
C79    C611    1.390   .     S
C79    H624    1.083   .     S
C80    H92     1.077   .     S
C80    C610    1.390   1_554 S
C80    C602    1.418   1_554 S
C81    C85     1.413   .     A
C82    C86     1.401   .     A
C82    C602    1.423   1_554 S
C82    C614    1.420   1_554 S
C83    C84     1.391   .     A
C83    C607    1.404   .     S
C83    C613    1.420   .     S
C84    C85     1.387   .     A
C84    H104    1.084   .     S
C85    H94     1.080   .     S
C86    H106    1.077   .     S
C87    H90     1.083   .     S
Cu88   O110    1.961   .     S
Cu88   Cu89    2.679   .     S
Cu88   O112    1.955   .     S
Cu88   O116    1.944   .     S
Cu88   N107    2.013   .     S
Cu88   O114    1.961   .     S
Cu89   O113    1.944   .     S
Cu89   O117    1.955   .     S
Cu89   N108    2.013   .     S
Cu89   O111    1.961   .     S
Cu89   O115    1.961   .     S
H93    C610    1.083   1_554 S
H96    O118    0.990   .     S
H97    N109    1.046   .     S
H98    N109    1.046   .     S
H105   C607    1.084   .     S
C119   O169    1.290   .     A
C119   C127    1.445   .     S
C119   O170    1.290   .     A
C120   C140    1.421   .     A
C120   C122    1.474   .     S
C120   C137    1.404   .     A
C121   C127    1.398   .     A
C121   H154    1.084   .     S
C121   C300    1.387   .     S
C122   O171    1.298   .     A
C122   O172    1.295   .     A
C123   C124    1.417   .     A
C123   O177    1.379   .     S
C123   C475    1.387   1_545 S
C124   C125    1.402   .     A
C124   C133    1.451   .     S
C125   H158    1.084   .     S
C125   C480    1.383   1_545 S
C126   H159    1.084   .     S
C126   C127    1.397   .     A
C126   C302    1.383   .     S
C128   H160    1.082   .     S
C128   N167    1.367   .     A
C128   C11     1.417   1_655 S
C129   H161    1.082   .     S
C129   N166    1.367   .     A
C130   C140    1.419   .     A
C130   C670    1.418   .     S
C130   C672    1.423   .     S
C131   N166    1.373   .     A
C131   N168    1.429   .     S
C132   H162    1.082   .     S
C132   N167    1.363   .     A
C132   C13     1.420   1_655 S
C133   O174    1.291   .     A
C133   O173    1.292   .     A
C134   O176    1.295   .     A
C134   O175    1.293   .     A
C134   C136    1.462   .     S
C135   C146    1.392   .     A
C135   C673    1.404   1_554 S
C135   H695    1.084   1_554 S
C136   C146    1.399   .     A
C136   C145    1.396   .     A
C137   C138    1.386   .     A
C137   H150    1.083   .     S
C138   C670    1.390   .     S
C138   H683    1.083   .     S
C139   H151    1.077   .     S
C139   C669    1.390   1_554 S
C139   C661    1.418   1_554 S
C140   C144    1.413   .     A
C141   C145    1.401   .     A
C141   C661    1.423   1_554 S
C141   C673    1.420   1_554 S
C142   C143    1.391   .     A
C142   C666    1.404   .     S
C142   C672    1.420   .     S
C143   C144    1.387   .     A
C143   H163    1.084   .     S
C144   H153    1.080   .     S
C145   H165    1.077   .     S
C146   H149    1.083   .     S
Cu147  O169    1.961   .     S
Cu147  Cu148   2.679   .     S
Cu147  O171    1.955   .     S
Cu147  O175    1.944   .     S
Cu147  N166    2.013   .     S
Cu147  O173    1.961   .     S
Cu148  O172    1.944   .     S
Cu148  O176    1.955   .     S
Cu148  N167    2.013   .     S
Cu148  O170    1.961   .     S
Cu148  O174    1.961   .     S
H152   C669    1.083   1_554 S
H155   O177    0.990   .     S
H156   N168    1.046   .     S
H157   N168    1.046   .     S
H164   C666    1.084   .     S
C178   O228    1.290   .     A
C178   C186    1.445   .     S
C178   O229    1.290   .     A
C179   C199    1.421   .     A
C179   C181    1.474   .     S
C179   C196    1.404   .     A
C180   C186    1.398   .     A
C180   H213    1.084   .     S
C180   C359    1.387   .     S
C181   O230    1.298   .     A
C181   O231    1.295   .     A
C182   C183    1.417   .     A
C182   O236    1.379   .     S
C183   C184    1.402   .     A
C183   C192    1.451   .     S
C184   H217    1.084   .     S
C185   H218    1.084   .     S
C185   C186    1.397   .     A
C185   C361    1.383   .     S
C187   H219    1.082   .     S
C187   N226    1.367   .     A
C187   C247    1.417   .     S
C188   H220    1.082   .     S
C188   N225    1.367   .     A
C188   C305    1.417   1_455 S
C189   C199    1.419   .     A
C189   C729    1.418   .     S
C189   C731    1.423   .     S
C190   N225    1.373   .     A
C190   N227    1.429   .     S
C190   C309    1.420   1_455 S
C191   H221    1.082   .     S
C191   N226    1.363   .     A
C191   C249    1.420   .     S
C192   O233    1.291   .     A
C192   O232    1.292   .     A
C193   O235    1.295   .     A
C193   O234    1.293   .     A
C193   C195    1.462   .     S
C194   C205    1.392   .     A
C194   C732    1.404   1_554 S
C194   H754    1.084   1_554 S
C195   C205    1.399   .     A
C195   C204    1.396   .     A
C196   C197    1.386   .     A
C196   H209    1.083   .     S
C197   C729    1.390   .     S
C197   H742    1.083   .     S
C198   H210    1.077   .     S
C198   C728    1.390   1_554 S
C198   C720    1.418   1_554 S
C199   C203    1.413   .     A
C200   C204    1.401   .     A
C200   C720    1.423   1_554 S
C200   C732    1.420   1_554 S
C201   C202    1.391   .     A
C201   C725    1.404   .     S
C201   C731    1.420   .     S
C202   C203    1.387   .     A
C202   H222    1.084   .     S
C203   H212    1.080   .     S
C204   H224    1.077   .     S
C205   H208    1.083   .     S
Cu206  O228    1.961   .     S
Cu206  Cu207   2.679   .     S
Cu206  O230    1.955   .     S
Cu206  O234    1.944   .     S
Cu206  N225    2.013   .     S
Cu206  O232    1.961   .     S
Cu207  O231    1.944   .     S
Cu207  O235    1.955   .     S
Cu207  N226    2.013   .     S
Cu207  O229    1.961   .     S
Cu207  O233    1.961   .     S
H211   C728    1.083   1_554 S
H214   O236    0.990   .     S
H215   N227    1.046   .     S
H216   N227    1.046   .     S
H223   C725    1.084   .     S
C237   O287    1.290   .     A
C237   C245    1.445   .     S
C237   O288    1.290   .     A
C238   C258    1.421   .     A
C238   C240    1.474   .     S
C238   C255    1.404   .     A
C239   C245    1.398   .     A
C239   H272    1.084   .     S
C239   C418    1.387   .     S
C240   O289    1.298   .     A
C240   O290    1.295   .     A
C241   C242    1.417   .     A
C241   O295    1.379   .     S
C242   C243    1.402   .     A
C242   C251    1.451   .     S
C243   H276    1.084   .     S
C244   H277    1.084   .     S
C244   C245    1.397   .     A
C244   C420    1.383   .     S
C246   H278    1.082   .     S
C246   N285    1.367   .     A
C246   C306    1.417   .     S
C247   H279    1.082   .     S
C247   N284    1.367   .     A
C248   C258    1.419   .     A
C248   C788    1.418   .     S
C248   C790    1.423   .     S
C249   N284    1.373   .     A
C249   N286    1.429   .     S
C250   H280    1.082   .     S
C250   N285    1.363   .     A
C250   C308    1.420   .     S
C251   O292    1.291   .     A
C251   O291    1.292   .     A
C252   O294    1.295   .     A
C252   O293    1.293   .     A
C252   C254    1.462   .     S
C253   C264    1.392   .     A
C253   C791    1.404   1_554 S
C253   H813    1.084   1_554 S
C254   C264    1.399   .     A
C254   C263    1.396   .     A
C255   C256    1.386   .     A
C255   H268    1.083   .     S
C256   C788    1.390   .     S
C256   H801    1.083   .     S
C257   H269    1.077   .     S
C257   C787    1.390   1_554 S
C257   C779    1.418   1_554 S
C258   C262    1.413   .     A
C259   C263    1.401   .     A
C259   C779    1.423   1_554 S
C259   C791    1.420   1_554 S
C260   C261    1.391   .     A
C260   C784    1.404   .     S
C260   C790    1.420   .     S
C261   C262    1.387   .     A
C261   H281    1.084   .     S
C262   H271    1.080   .     S
C263   H283    1.077   .     S
C264   H267    1.083   .     S
Cu265  O287    1.961   .     S
Cu265  Cu266   2.679   .     S
Cu265  O289    1.955   .     S
Cu265  O293    1.944   .     S
Cu265  N284    2.013   .     S
Cu265  O291    1.961   .     S
Cu266  O290    1.944   .     S
Cu266  O294    1.955   .     S
Cu266  N285    2.013   .     S
Cu266  O288    1.961   .     S
Cu266  O292    1.961   .     S
H270   C787    1.083   1_554 S
H273   O295    0.990   .     S
H274   N286    1.046   .     S
H275   N286    1.046   .     S
H282   C784    1.084   .     S
C296   O346    1.290   .     A
C296   C304    1.445   .     S
C296   O347    1.290   .     A
C297   C317    1.421   .     A
C297   C299    1.474   .     S
C297   C314    1.404   .     A
C298   C304    1.398   .     A
C298   H331    1.084   .     S
C298   C477    1.387   .     S
C299   O348    1.298   .     A
C299   O349    1.295   .     A
C300   C301    1.417   .     A
C300   O354    1.379   .     S
C301   C302    1.402   .     A
C301   C310    1.451   .     S
C302   H335    1.084   .     S
C303   H336    1.084   .     S
C303   C304    1.397   .     A
C303   C479    1.383   .     S
C305   H337    1.082   .     S
C305   N344    1.367   .     A
C305   C188    1.417   1_655 S
C306   H338    1.082   .     S
C306   N343    1.367   .     A
C307   C317    1.419   .     A
C307   C847    1.418   .     S
C307   C849    1.423   .     S
C308   N343    1.373   .     A
C308   N345    1.429   .     S
C309   H339    1.082   .     S
C309   N344    1.363   .     A
C309   C190    1.420   1_655 S
C310   O351    1.291   .     A
C310   O350    1.292   .     A
C311   O353    1.295   .     A
C311   O352    1.293   .     A
C311   C313    1.462   .     S
C312   C323    1.392   .     A
C312   C850    1.404   1_554 S
C312   H872    1.084   1_554 S
C313   C323    1.399   .     A
C313   C322    1.396   .     A
C314   C315    1.386   .     A
C314   H327    1.083   .     S
C315   C847    1.390   .     S
C315   H860    1.083   .     S
C316   H328    1.077   .     S
C316   C846    1.390   1_554 S
C316   C838    1.418   1_554 S
C317   C321    1.413   .     A
C318   C322    1.401   .     A
C318   C838    1.423   1_554 S
C318   C850    1.420   1_554 S
C319   C320    1.391   .     A
C319   C843    1.404   .     S
C319   C849    1.420   .     S
C320   C321    1.387   .     A
C320   H340    1.084   .     S
C321   H330    1.080   .     S
C322   H342    1.077   .     S
C323   H326    1.083   .     S
Cu324  O346    1.961   .     S
Cu324  Cu325   2.679   .     S
Cu324  O348    1.955   .     S
Cu324  O352    1.944   .     S
Cu324  N343    2.013   .     S
Cu324  O350    1.961   .     S
Cu325  O349    1.944   .     S
Cu325  O353    1.955   .     S
Cu325  N344    2.013   .     S
Cu325  O347    1.961   .     S
Cu325  O351    1.961   .     S
H329   C846    1.083   1_554 S
H332   O354    0.990   .     S
H333   N345    1.046   .     S
H334   N345    1.046   .     S
H341   C843    1.084   .     S
C355   O405    1.290   .     A
C355   C363    1.445   .     S
C355   O406    1.290   .     A
C356   C376    1.421   .     A
C356   C358    1.474   .     S
C356   C373    1.404   .     A
C357   C363    1.398   .     A
C357   H390    1.084   .     S
C357   C5      1.387   1_565 S
C358   O407    1.298   .     A
C358   O408    1.295   .     A
C359   C360    1.417   .     A
C359   O413    1.379   .     S
C360   C361    1.402   .     A
C360   C369    1.451   .     S
C361   H394    1.084   .     S
C362   H395    1.084   .     S
C362   C363    1.397   .     A
C362   C7      1.383   1_565 S
C364   H396    1.082   .     S
C364   N403    1.367   .     A
C364   C424    1.417   .     S
C365   H397    1.082   .     S
C365   N402    1.367   .     A
C365   C482    1.417   1_455 S
C366   C376    1.419   .     A
C366   C906    1.418   .     S
C366   C908    1.423   .     S
C367   N402    1.373   .     A
C367   N404    1.429   .     S
C367   C486    1.420   1_455 S
C368   H398    1.082   .     S
C368   N403    1.363   .     A
C368   C426    1.420   .     S
C369   O410    1.291   .     A
C369   O409    1.292   .     A
C370   O412    1.295   .     A
C370   O411    1.293   .     A
C370   C372    1.462   .     S
C371   C382    1.392   .     A
C371   C909    1.404   1_554 S
C371   H931    1.084   1_554 S
C372   C382    1.399   .     A
C372   C381    1.396   .     A
C373   C374    1.386   .     A
C373   H386    1.083   .     S
C374   C906    1.390   .     S
C374   H919    1.083   .     S
C375   H387    1.077   .     S
C375   C905    1.390   1_554 S
C375   C897    1.418   1_554 S
C376   C380    1.413   .     A
C377   C381    1.401   .     A
C377   C897    1.423   1_554 S
C377   C909    1.420   1_554 S
C378   C379    1.391   .     A
C378   C902    1.404   .     S
C378   C908    1.420   .     S
C379   C380    1.387   .     A
C379   H399    1.084   .     S
C380   H389    1.080   .     S
C381   H401    1.077   .     S
C382   H385    1.083   .     S
Cu383  O405    1.961   .     S
Cu383  Cu384   2.679   .     S
Cu383  O407    1.955   .     S
Cu383  O411    1.944   .     S
Cu383  N402    2.013   .     S
Cu383  O409    1.961   .     S
Cu384  O408    1.944   .     S
Cu384  O412    1.955   .     S
Cu384  N403    2.013   .     S
Cu384  O406    1.961   .     S
Cu384  O410    1.961   .     S
H388   C905    1.083   1_554 S
H391   O413    0.990   .     S
H392   N404    1.046   .     S
H393   N404    1.046   .     S
H400   C902    1.084   .     S
C414   O464    1.290   .     A
C414   C422    1.445   .     S
C414   O465    1.290   .     A
C415   C435    1.421   .     A
C415   C417    1.474   .     S
C415   C432    1.404   .     A
C416   C422    1.398   .     A
C416   H449    1.084   .     S
C416   C64     1.387   1_565 S
C417   O466    1.298   .     A
C417   O467    1.295   .     A
C418   C419    1.417   .     A
C418   O472    1.379   .     S
C419   C420    1.402   .     A
C419   C428    1.451   .     S
C420   H453    1.084   .     S
C421   H454    1.084   .     S
C421   C422    1.397   .     A
C421   C66     1.383   1_565 S
C423   H455    1.082   .     S
C423   N462    1.367   .     A
C423   C483    1.417   .     S
C424   H456    1.082   .     S
C424   N461    1.367   .     A
C425   C435    1.419   .     A
C425   C965    1.418   .     S
C425   C967    1.423   .     S
C426   N461    1.373   .     A
C426   N463    1.429   .     S
C427   H457    1.082   .     S
C427   N462    1.363   .     A
C427   C485    1.420   .     S
C428   O469    1.291   .     A
C428   O468    1.292   .     A
C429   O471    1.295   .     A
C429   O470    1.293   .     A
C429   C431    1.462   .     S
C430   C441    1.392   .     A
C430   C968    1.404   1_554 S
C430   H990    1.084   1_554 S
C431   C441    1.399   .     A
C431   C440    1.396   .     A
C432   C433    1.386   .     A
C432   H445    1.083   .     S
C433   C965    1.390   .     S
C433   H978    1.083   .     S
C434   H446    1.077   .     S
C434   C964    1.390   1_554 S
C434   C956    1.418   1_554 S
C435   C439    1.413   .     A
C436   C440    1.401   .     A
C436   C956    1.423   1_554 S
C436   C968    1.420   1_554 S
C437   C438    1.391   .     A
C437   C961    1.404   .     S
C437   C967    1.420   .     S
C438   C439    1.387   .     A
C438   H458    1.084   .     S
C439   H448    1.080   .     S
C440   H460    1.077   .     S
C441   H444    1.083   .     S
Cu442  O464    1.961   .     S
Cu442  Cu443   2.679   .     S
Cu442  O466    1.955   .     S
Cu442  O470    1.944   .     S
Cu442  N461    2.013   .     S
Cu442  O468    1.961   .     S
Cu443  O467    1.944   .     S
Cu443  O471    1.955   .     S
Cu443  N462    2.013   .     S
Cu443  O465    1.961   .     S
Cu443  O469    1.961   .     S
H447   C964    1.083   1_554 S
H450   O472    0.990   .     S
H451   N463    1.046   .     S
H452   N463    1.046   .     S
H459   C961    1.084   .     S
C473   O523    1.290   .     A
C473   C481    1.445   .     S
C473   O524    1.290   .     A
C474   C494    1.421   .     A
C474   C476    1.474   .     S
C474   C491    1.404   .     A
C475   C481    1.398   .     A
C475   H508    1.084   .     S
C475   C123    1.387   1_565 S
C476   O525    1.298   .     A
C476   O526    1.295   .     A
C477   C478    1.417   .     A
C477   O531    1.379   .     S
C478   C479    1.402   .     A
C478   C487    1.451   .     S
C479   H512    1.084   .     S
C480   H513    1.084   .     S
C480   C481    1.397   .     A
C480   C125    1.383   1_565 S
C482   H514    1.082   .     S
C482   N521    1.367   .     A
C482   C365    1.417   1_655 S
C483   H515    1.082   .     S
C483   N520    1.367   .     A
C484   C494    1.419   .     A
C484   C1024   1.418   .     S
C484   C1026   1.423   .     S
C485   N520    1.373   .     A
C485   N522    1.429   .     S
C486   H516    1.082   .     S
C486   N521    1.363   .     A
C486   C367    1.420   1_655 S
C487   O528    1.291   .     A
C487   O527    1.292   .     A
C488   O530    1.295   .     A
C488   O529    1.293   .     A
C488   C490    1.462   .     S
C489   C500    1.392   .     A
C489   C1027   1.404   1_554 S
C489   H1049   1.084   1_554 S
C490   C500    1.399   .     A
C490   C499    1.396   .     A
C491   C492    1.386   .     A
C491   H504    1.083   .     S
C492   C1024   1.390   .     S
C492   H1037   1.083   .     S
C493   H505    1.077   .     S
C493   C1023   1.390   1_554 S
C493   C1015   1.418   1_554 S
C494   C498    1.413   .     A
C495   C499    1.401   .     A
C495   C1015   1.423   1_554 S
C495   C1027   1.420   1_554 S
C496   C497    1.391   .     A
C496   C1020   1.404   .     S
C496   C1026   1.420   .     S
C497   C498    1.387   .     A
C497   H517    1.084   .     S
C498   H507    1.080   .     S
C499   H519    1.077   .     S
C500   H503    1.083   .     S
Cu501  O523    1.961   .     S
Cu501  Cu502   2.679   .     S
Cu501  O525    1.955   .     S
Cu501  O529    1.944   .     S
Cu501  N520    2.013   .     S
Cu501  O527    1.961   .     S
Cu502  O526    1.944   .     S
Cu502  O530    1.955   .     S
Cu502  N521    2.013   .     S
Cu502  O524    1.961   .     S
Cu502  O528    1.961   .     S
H506   C1023   1.083   1_554 S
H509   O531    0.990   .     S
H510   N522    1.046   .     S
H511   N522    1.046   .     S
H518   C1020   1.084   .     S
C532   O582    1.290   .     A
C532   C540    1.445   .     S
C532   O583    1.290   .     A
C533   C553    1.421   .     A
C533   C535    1.474   .     S
C533   C550    1.404   .     A
C534   C540    1.398   .     A
C534   H567    1.084   .     S
C534   C713    1.387   .     S
C535   O584    1.298   .     A
C535   O585    1.295   .     A
C536   C537    1.417   .     A
C536   O590    1.379   .     S
C536   C888    1.387   1_545 S
C537   C538    1.402   .     A
C537   C546    1.451   .     S
C538   H571    1.084   .     S
C538   C893    1.383   1_545 S
C539   H572    1.084   .     S
C539   C540    1.397   .     A
C539   C715    1.383   .     S
C541   H573    1.082   .     S
C541   N580    1.367   .     A
C541   C601    1.417   .     S
C542   H574    1.082   .     S
C542   N579    1.367   .     A
C542   C659    1.417   1_455 S
C543   C553    1.419   .     A
C543   C21     1.418   1_556 S
C543   C23     1.423   1_556 S
C544   N579    1.373   .     A
C544   N581    1.429   .     S
C544   C663    1.420   1_455 S
C545   H575    1.082   .     S
C545   N580    1.363   .     A
C545   C603    1.420   .     S
C546   O587    1.291   .     A
C546   O586    1.292   .     A
C547   O589    1.295   .     A
C547   O588    1.293   .     A
C547   C549    1.462   .     S
C548   C559    1.392   .     A
C549   C559    1.399   .     A
C549   C558    1.396   .     A
C550   C551    1.386   .     A
C550   H563    1.083   .     S
C551   C21     1.390   1_556 S
C551   H34     1.083   1_556 S
C552   H564    1.077   .     S
C553   C557    1.413   .     A
C554   C558    1.401   .     A
C555   C556    1.391   .     A
C555   C17     1.404   1_556 S
C555   C23     1.420   1_556 S
C556   C557    1.387   .     A
C556   H576    1.084   .     S
C557   H566    1.080   .     S
C558   H578    1.077   .     S
C559   H562    1.083   .     S
Cu560  O582    1.961   .     S
Cu560  Cu561   2.679   .     S
Cu560  O584    1.955   .     S
Cu560  O588    1.944   .     S
Cu560  N579    2.013   .     S
Cu560  O586    1.961   .     S
Cu561  O585    1.944   .     S
Cu561  O589    1.955   .     S
Cu561  N580    2.013   .     S
Cu561  O583    1.961   .     S
Cu561  O587    1.961   .     S
H568   O590    0.990   .     S
H569   N581    1.046   .     S
H570   N581    1.046   .     S
H577   C17     1.084   1_556 S
C591   O641    1.290   .     A
C591   C599    1.445   .     S
C591   O642    1.290   .     A
C592   C612    1.421   .     A
C592   C594    1.474   .     S
C592   C609    1.404   .     A
C593   C599    1.398   .     A
C593   H626    1.084   .     S
C593   C772    1.387   .     S
C594   O643    1.298   .     A
C594   O644    1.295   .     A
C595   C596    1.417   .     A
C595   O649    1.379   .     S
C595   C947    1.387   1_545 S
C596   C597    1.402   .     A
C596   C605    1.451   .     S
C597   H630    1.084   .     S
C597   C952    1.383   1_545 S
C598   H631    1.084   .     S
C598   C599    1.397   .     A
C598   C774    1.383   .     S
C600   H632    1.082   .     S
C600   N639    1.367   .     A
C600   C660    1.417   .     S
C601   H633    1.082   .     S
C601   N638    1.367   .     A
C602   C612    1.419   .     A
C602   C80     1.418   1_556 S
C602   C82     1.423   1_556 S
C603   N638    1.373   .     A
C603   N640    1.429   .     S
C604   H634    1.082   .     S
C604   N639    1.363   .     A
C604   C662    1.420   .     S
C605   O646    1.291   .     A
C605   O645    1.292   .     A
C606   O648    1.295   .     A
C606   O647    1.293   .     A
C606   C608    1.462   .     S
C607   C618    1.392   .     A
C608   C618    1.399   .     A
C608   C617    1.396   .     A
C609   C610    1.386   .     A
C609   H622    1.083   .     S
C610   C80     1.390   1_556 S
C610   H93     1.083   1_556 S
C611   H623    1.077   .     S
C612   C616    1.413   .     A
C613   C617    1.401   .     A
C614   C615    1.391   .     A
C614   C76     1.404   1_556 S
C614   C82     1.420   1_556 S
C615   C616    1.387   .     A
C615   H635    1.084   .     S
C616   H625    1.080   .     S
C617   H637    1.077   .     S
C618   H621    1.083   .     S
Cu619  O641    1.961   .     S
Cu619  Cu620   2.679   .     S
Cu619  O643    1.955   .     S
Cu619  O647    1.944   .     S
Cu619  N638    2.013   .     S
Cu619  O645    1.961   .     S
Cu620  O644    1.944   .     S
Cu620  O648    1.955   .     S
Cu620  N639    2.013   .     S
Cu620  O642    1.961   .     S
Cu620  O646    1.961   .     S
H627   O649    0.990   .     S
H628   N640    1.046   .     S
H629   N640    1.046   .     S
H636   C76     1.084   1_556 S
C650   O700    1.290   .     A
C650   C658    1.445   .     S
C650   O701    1.290   .     A
C651   C671    1.421   .     A
C651   C653    1.474   .     S
C651   C668    1.404   .     A
C652   C658    1.398   .     A
C652   H685    1.084   .     S
C652   C831    1.387   .     S
C653   O702    1.298   .     A
C653   O703    1.295   .     A
C654   C655    1.417   .     A
C654   O708    1.379   .     S
C654   C1006   1.387   1_545 S
C655   C656    1.402   .     A
C655   C664    1.451   .     S
C656   H689    1.084   .     S
C656   C1011   1.383   1_545 S
C657   H690    1.084   .     S
C657   C658    1.397   .     A
C657   C833    1.383   .     S
C659   H691    1.082   .     S
C659   N698    1.367   .     A
C659   C542    1.417   1_655 S
C660   H692    1.082   .     S
C660   N697    1.367   .     A
C661   C671    1.419   .     A
C661   C139    1.418   1_556 S
C661   C141    1.423   1_556 S
C662   N697    1.373   .     A
C662   N699    1.429   .     S
C663   H693    1.082   .     S
C663   N698    1.363   .     A
C663   C544    1.420   1_655 S
C664   O705    1.291   .     A
C664   O704    1.292   .     A
C665   O707    1.295   .     A
C665   O706    1.293   .     A
C665   C667    1.462   .     S
C666   C677    1.392   .     A
C667   C677    1.399   .     A
C667   C676    1.396   .     A
C668   C669    1.386   .     A
C668   H681    1.083   .     S
C669   C139    1.390   1_556 S
C669   H152    1.083   1_556 S
C670   H682    1.077   .     S
C671   C675    1.413   .     A
C672   C676    1.401   .     A
C673   C674    1.391   .     A
C673   C135    1.404   1_556 S
C673   C141    1.420   1_556 S
C674   C675    1.387   .     A
C674   H694    1.084   .     S
C675   H684    1.080   .     S
C676   H696    1.077   .     S
C677   H680    1.083   .     S
Cu678  O700    1.961   .     S
Cu678  Cu679   2.679   .     S
Cu678  O702    1.955   .     S
Cu678  O706    1.944   .     S
Cu678  N697    2.013   .     S
Cu678  O704    1.961   .     S
Cu679  O703    1.944   .     S
Cu679  O707    1.955   .     S
Cu679  N698    2.013   .     S
Cu679  O701    1.961   .     S
Cu679  O705    1.961   .     S
H686   O708    0.990   .     S
H687   N699    1.046   .     S
H688   N699    1.046   .     S
H695   C135    1.084   1_556 S
C709   O759    1.290   .     A
C709   C717    1.445   .     S
C709   O760    1.290   .     A
C710   C730    1.421   .     A
C710   C712    1.474   .     S
C710   C727    1.404   .     A
C711   C717    1.398   .     A
C711   H744    1.084   .     S
C711   C890    1.387   .     S
C712   O761    1.298   .     A
C712   O762    1.295   .     A
C713   C714    1.417   .     A
C713   O767    1.379   .     S
C714   C715    1.402   .     A
C714   C723    1.451   .     S
C715   H748    1.084   .     S
C716   H749    1.084   .     S
C716   C717    1.397   .     A
C716   C892    1.383   .     S
C718   H750    1.082   .     S
C718   N757    1.367   .     A
C718   C778    1.417   .     S
C719   H751    1.082   .     S
C719   N756    1.367   .     A
C719   C836    1.417   1_455 S
C720   C730    1.419   .     A
C720   C198    1.418   1_556 S
C720   C200    1.423   1_556 S
C721   N756    1.373   .     A
C721   N758    1.429   .     S
C721   C840    1.420   1_455 S
C722   H752    1.082   .     S
C722   N757    1.363   .     A
C722   C780    1.420   .     S
C723   O764    1.291   .     A
C723   O763    1.292   .     A
C724   O766    1.295   .     A
C724   O765    1.293   .     A
C724   C726    1.462   .     S
C725   C736    1.392   .     A
C726   C736    1.399   .     A
C726   C735    1.396   .     A
C727   C728    1.386   .     A
C727   H740    1.083   .     S
C728   C198    1.390   1_556 S
C728   H211    1.083   1_556 S
C729   H741    1.077   .     S
C730   C734    1.413   .     A
C731   C735    1.401   .     A
C732   C733    1.391   .     A
C732   C194    1.404   1_556 S
C732   C200    1.420   1_556 S
C733   C734    1.387   .     A
C733   H753    1.084   .     S
C734   H743    1.080   .     S
C735   H755    1.077   .     S
C736   H739    1.083   .     S
Cu737  O759    1.961   .     S
Cu737  Cu738   2.679   .     S
Cu737  O761    1.955   .     S
Cu737  O765    1.944   .     S
Cu737  N756    2.013   .     S
Cu737  O763    1.961   .     S
Cu738  O762    1.944   .     S
Cu738  O766    1.955   .     S
Cu738  N757    2.013   .     S
Cu738  O760    1.961   .     S
Cu738  O764    1.961   .     S
H745   O767    0.990   .     S
H746   N758    1.046   .     S
H747   N758    1.046   .     S
H754   C194    1.084   1_556 S
C768   O818    1.290   .     A
C768   C776    1.445   .     S
C768   O819    1.290   .     A
C769   C789    1.421   .     A
C769   C771    1.474   .     S
C769   C786    1.404   .     A
C770   C776    1.398   .     A
C770   H803    1.084   .     S
C770   C949    1.387   .     S
C771   O820    1.298   .     A
C771   O821    1.295   .     A
C772   C773    1.417   .     A
C772   O826    1.379   .     S
C773   C774    1.402   .     A
C773   C782    1.451   .     S
C774   H807    1.084   .     S
C775   H808    1.084   .     S
C775   C776    1.397   .     A
C775   C951    1.383   .     S
C777   H809    1.082   .     S
C777   N816    1.367   .     A
C777   C837    1.417   .     S
C778   H810    1.082   .     S
C778   N815    1.367   .     A
C779   C789    1.419   .     A
C779   C257    1.418   1_556 S
C779   C259    1.423   1_556 S
C780   N815    1.373   .     A
C780   N817    1.429   .     S
C781   H811    1.082   .     S
C781   N816    1.363   .     A
C781   C839    1.420   .     S
C782   O823    1.291   .     A
C782   O822    1.292   .     A
C783   O825    1.295   .     A
C783   O824    1.293   .     A
C783   C785    1.462   .     S
C784   C795    1.392   .     A
C785   C795    1.399   .     A
C785   C794    1.396   .     A
C786   C787    1.386   .     A
C786   H799    1.083   .     S
C787   C257    1.390   1_556 S
C787   H270    1.083   1_556 S
C788   H800    1.077   .     S
C789   C793    1.413   .     A
C790   C794    1.401   .     A
C791   C792    1.391   .     A
C791   C253    1.404   1_556 S
C791   C259    1.420   1_556 S
C792   C793    1.387   .     A
C792   H812    1.084   .     S
C793   H802    1.080   .     S
C794   H814    1.077   .     S
C795   H798    1.083   .     S
Cu796  O818    1.961   .     S
Cu796  Cu797   2.679   .     S
Cu796  O820    1.955   .     S
Cu796  O824    1.944   .     S
Cu796  N815    2.013   .     S
Cu796  O822    1.961   .     S
Cu797  O821    1.944   .     S
Cu797  O825    1.955   .     S
Cu797  N816    2.013   .     S
Cu797  O819    1.961   .     S
Cu797  O823    1.961   .     S
H804   O826    0.990   .     S
H805   N817    1.046   .     S
H806   N817    1.046   .     S
H813   C253    1.084   1_556 S
C827   O877    1.290   .     A
C827   C835    1.445   .     S
C827   O878    1.290   .     A
C828   C848    1.421   .     A
C828   C830    1.474   .     S
C828   C845    1.404   .     A
C829   C835    1.398   .     A
C829   H862    1.084   .     S
C829   C1008   1.387   .     S
C830   O879    1.298   .     A
C830   O880    1.295   .     A
C831   C832    1.417   .     A
C831   O885    1.379   .     S
C832   C833    1.402   .     A
C832   C841    1.451   .     S
C833   H866    1.084   .     S
C834   H867    1.084   .     S
C834   C835    1.397   .     A
C834   C1010   1.383   .     S
C836   H868    1.082   .     S
C836   N875    1.367   .     A
C836   C719    1.417   1_655 S
C837   H869    1.082   .     S
C837   N874    1.367   .     A
C838   C848    1.419   .     A
C838   C316    1.418   1_556 S
C838   C318    1.423   1_556 S
C839   N874    1.373   .     A
C839   N876    1.429   .     S
C840   H870    1.082   .     S
C840   N875    1.363   .     A
C840   C721    1.420   1_655 S
C841   O882    1.291   .     A
C841   O881    1.292   .     A
C842   O884    1.295   .     A
C842   O883    1.293   .     A
C842   C844    1.462   .     S
C843   C854    1.392   .     A
C844   C854    1.399   .     A
C844   C853    1.396   .     A
C845   C846    1.386   .     A
C845   H858    1.083   .     S
C846   C316    1.390   1_556 S
C846   H329    1.083   1_556 S
C847   H859    1.077   .     S
C848   C852    1.413   .     A
C849   C853    1.401   .     A
C850   C851    1.391   .     A
C850   C312    1.404   1_556 S
C850   C318    1.420   1_556 S
C851   C852    1.387   .     A
C851   H871    1.084   .     S
C852   H861    1.080   .     S
C853   H873    1.077   .     S
C854   H857    1.083   .     S
Cu855  O877    1.961   .     S
Cu855  Cu856   2.679   .     S
Cu855  O879    1.955   .     S
Cu855  O883    1.944   .     S
Cu855  N874    2.013   .     S
Cu855  O881    1.961   .     S
Cu856  O880    1.944   .     S
Cu856  O884    1.955   .     S
Cu856  N875    2.013   .     S
Cu856  O878    1.961   .     S
Cu856  O882    1.961   .     S
H863   O885    0.990   .     S
H864   N876    1.046   .     S
H865   N876    1.046   .     S
H872   C312    1.084   1_556 S
C886   O936    1.290   .     A
C886   C894    1.445   .     S
C886   O937    1.290   .     A
C887   C907    1.421   .     A
C887   C889    1.474   .     S
C887   C904    1.404   .     A
C888   C894    1.398   .     A
C888   H921    1.084   .     S
C888   C536    1.387   1_565 S
C889   O938    1.298   .     A
C889   O939    1.295   .     A
C890   C891    1.417   .     A
C890   O944    1.379   .     S
C891   C892    1.402   .     A
C891   C900    1.451   .     S
C892   H925    1.084   .     S
C893   H926    1.084   .     S
C893   C894    1.397   .     A
C893   C538    1.383   1_565 S
C895   H927    1.082   .     S
C895   N934    1.367   .     A
C895   C955    1.417   .     S
C896   H928    1.082   .     S
C896   N933    1.367   .     A
C896   C1013   1.417   1_455 S
C897   C907    1.419   .     A
C897   C375    1.418   1_556 S
C897   C377    1.423   1_556 S
C898   N933    1.373   .     A
C898   N935    1.429   .     S
C898   C1017   1.420   1_455 S
C899   H929    1.082   .     S
C899   N934    1.363   .     A
C899   C957    1.420   .     S
C900   O941    1.291   .     A
C900   O940    1.292   .     A
C901   O943    1.295   .     A
C901   O942    1.293   .     A
C901   C903    1.462   .     S
C902   C913    1.392   .     A
C903   C913    1.399   .     A
C903   C912    1.396   .     A
C904   C905    1.386   .     A
C904   H917    1.083   .     S
C905   C375    1.390   1_556 S
C905   H388    1.083   1_556 S
C906   H918    1.077   .     S
C907   C911    1.413   .     A
C908   C912    1.401   .     A
C909   C910    1.391   .     A
C909   C371    1.404   1_556 S
C909   C377    1.420   1_556 S
C910   C911    1.387   .     A
C910   H930    1.084   .     S
C911   H920    1.080   .     S
C912   H932    1.077   .     S
C913   H916    1.083   .     S
Cu914  O936    1.961   .     S
Cu914  Cu915   2.679   .     S
Cu914  O938    1.955   .     S
Cu914  O942    1.944   .     S
Cu914  N933    2.013   .     S
Cu914  O940    1.961   .     S
Cu915  O939    1.944   .     S
Cu915  O943    1.955   .     S
Cu915  N934    2.013   .     S
Cu915  O937    1.961   .     S
Cu915  O941    1.961   .     S
H922   O944    0.990   .     S
H923   N935    1.046   .     S
H924   N935    1.046   .     S
H931   C371    1.084   1_556 S
C945   O995    1.290   .     A
C945   C953    1.445   .     S
C945   O996    1.290   .     A
C946   C966    1.421   .     A
C946   C948    1.474   .     S
C946   C963    1.404   .     A
C947   C953    1.398   .     A
C947   H980    1.084   .     S
C947   C595    1.387   1_565 S
C948   O997    1.298   .     A
C948   O998    1.295   .     A
C949   C950    1.417   .     A
C949   O1003   1.379   .     S
C950   C951    1.402   .     A
C950   C959    1.451   .     S
C951   H984    1.084   .     S
C952   H985    1.084   .     S
C952   C953    1.397   .     A
C952   C597    1.383   1_565 S
C954   H986    1.082   .     S
C954   N993    1.367   .     A
C954   C1014   1.417   .     S
C955   H987    1.082   .     S
C955   N992    1.367   .     A
C956   C966    1.419   .     A
C956   C434    1.418   1_556 S
C956   C436    1.423   1_556 S
C957   N992    1.373   .     A
C957   N994    1.429   .     S
C958   H988    1.082   .     S
C958   N993    1.363   .     A
C958   C1016   1.420   .     S
C959   O1000   1.291   .     A
C959   O999    1.292   .     A
C960   O1002   1.295   .     A
C960   O1001   1.293   .     A
C960   C962    1.462   .     S
C961   C972    1.392   .     A
C962   C972    1.399   .     A
C962   C971    1.396   .     A
C963   C964    1.386   .     A
C963   H976    1.083   .     S
C964   C434    1.390   1_556 S
C964   H447    1.083   1_556 S
C965   H977    1.077   .     S
C966   C970    1.413   .     A
C967   C971    1.401   .     A
C968   C969    1.391   .     A
C968   C430    1.404   1_556 S
C968   C436    1.420   1_556 S
C969   C970    1.387   .     A
C969   H989    1.084   .     S
C970   H979    1.080   .     S
C971   H991    1.077   .     S
C972   H975    1.083   .     S
Cu973  O995    1.961   .     S
Cu973  Cu974   2.679   .     S
Cu973  O997    1.955   .     S
Cu973  O1001   1.944   .     S
Cu973  N992    2.013   .     S
Cu973  O999    1.961   .     S
Cu974  O998    1.944   .     S
Cu974  O1002   1.955   .     S
Cu974  N993    2.013   .     S
Cu974  O996    1.961   .     S
Cu974  O1000   1.961   .     S
H981   O1003   0.990   .     S
H982   N994    1.046   .     S
H983   N994    1.046   .     S
H990   C430    1.084   1_556 S
C1004  O1054   1.290   .     A
C1004  C1012   1.445   .     S
C1004  O1055   1.290   .     A
C1005  C1025   1.421   .     A
C1005  C1007   1.474   .     S
C1005  C1022   1.404   .     A
C1006  C1012   1.398   .     A
C1006  H1039   1.084   .     S
C1006  C654    1.387   1_565 S
C1007  O1056   1.298   .     A
C1007  O1057   1.295   .     A
C1008  C1009   1.417   .     A
C1008  O1062   1.379   .     S
C1009  C1010   1.402   .     A
C1009  C1018   1.451   .     S
C1010  H1043   1.084   .     S
C1011  H1044   1.084   .     S
C1011  C1012   1.397   .     A
C1011  C656    1.383   1_565 S
C1013  H1045   1.082   .     S
C1013  N1052   1.367   .     A
C1013  C896    1.417   1_655 S
C1014  H1046   1.082   .     S
C1014  N1051   1.367   .     A
C1015  C1025   1.419   .     A
C1015  C493    1.418   1_556 S
C1015  C495    1.423   1_556 S
C1016  N1051   1.373   .     A
C1016  N1053   1.429   .     S
C1017  H1047   1.082   .     S
C1017  N1052   1.363   .     A
C1017  C898    1.420   1_655 S
C1018  O1059   1.291   .     A
C1018  O1058   1.292   .     A
C1019  O1061   1.295   .     A
C1019  O1060   1.293   .     A
C1019  C1021   1.462   .     S
C1020  C1031   1.392   .     A
C1021  C1031   1.399   .     A
C1021  C1030   1.396   .     A
C1022  C1023   1.386   .     A
C1022  H1035   1.083   .     S
C1023  C493    1.390   1_556 S
C1023  H506    1.083   1_556 S
C1024  H1036   1.077   .     S
C1025  C1029   1.413   .     A
C1026  C1030   1.401   .     A
C1027  C1028   1.391   .     A
C1027  C489    1.404   1_556 S
C1027  C495    1.420   1_556 S
C1028  C1029   1.387   .     A
C1028  H1048   1.084   .     S
C1029  H1038   1.080   .     S
C1030  H1050   1.077   .     S
C1031  H1034   1.083   .     S
Cu1032 O1054   1.961   .     S
Cu1032 Cu1033  2.679   .     S
Cu1032 O1056   1.955   .     S
Cu1032 O1060   1.944   .     S
Cu1032 N1051   2.013   .     S
Cu1032 O1058   1.961   .     S
Cu1033 O1057   1.944   .     S
Cu1033 O1061   1.955   .     S
Cu1033 N1052   2.013   .     S
Cu1033 O1055   1.961   .     S
Cu1033 O1059   1.961   .     S
H1040  O1062   0.990   .     S
H1041  N1053   1.046   .     S
H1042  N1053   1.046   .     S
H1049  C489    1.084   1_556 S
