data_str_m2_o2_o10_pcu_sym.65
_audit_creation_date              2020-01-03
_audit_creation_method            'Materials Studio'
_symmetry_space_group_name_H-M    'P1'
_symmetry_Int_Tables_number       1
_symmetry_cell_setting            triclinic
loop_
_symmetry_equiv_pos_as_xyz
  x,y,z
_cell_length_a                    26.5646
_cell_length_b                    30.1725
_cell_length_c                    27.7292
_cell_angle_alpha                 89.4973
_cell_angle_beta                  96.8699
_cell_angle_gamma                 89.2997
loop_
_atom_site_label
_atom_site_type_symbol
_atom_site_fract_x
_atom_site_fract_y
_atom_site_fract_z
_atom_site_U_iso_or_equiv
_atom_site_adp_type
_atom_site_occupancy
C1     C     0.16693   0.16502   0.25016   0.00000  Uiso   1.00
C2     C     0.13930   0.28108   0.44319   0.00000  Uiso   1.00
C3     C     0.16667   0.25058   0.02715   0.00000  Uiso   1.00
C4     C     0.16639   0.24874   0.47272   0.00000  Uiso   1.00
C5     C     0.06828   0.25005   0.23810   0.00000  Uiso   1.00
C6     C     0.26511   0.24954   0.26199   0.00000  Uiso   1.00
C7     C     0.01404   0.25624   0.23226   0.00000  Uiso   1.00
C8     C     0.31945   0.24320   0.26809   0.00000  Uiso   1.00
C9     C     0.20736   0.04515   0.26816   0.00000  Uiso   1.00
C10    C     0.12127   0.45291   0.26617   0.00000  Uiso   1.00
C11    C     0.21006   0.09151   0.26844   0.00000  Uiso   1.00
C12    C     0.16449   0.33491   0.24950   0.00000  Uiso   1.00
C13    C     0.12003   0.40638   0.26539   0.00000  Uiso   1.00
C14    C     0.16666   0.11677   0.25025   0.00000  Uiso   1.00
C15    C     0.16086   0.38305   0.24820   0.00000  Uiso   1.00
C16    C     0.12217   0.09573   0.23106   0.00000  Uiso   1.00
C17    C     0.19904   0.40603   0.22839   0.00000  Uiso   1.00
C18    C     0.12013   0.04974   0.23028   0.00000  Uiso   1.00
C19    C     0.19866   0.45196   0.22758   0.00000  Uiso   1.00
C20    C     0.16256   0.02424   0.24891   0.00000  Uiso   1.00
C21    C     0.16057   0.47565   0.24741   0.00000  Uiso   1.00
C22    C     0.32662   0.28247   0.18670   0.00000  Uiso   1.00
C23    C     0.19081   0.28485   0.05585   0.00000  Uiso   1.00
C24    C     0.31458   0.25175   0.14336   0.00000  Uiso   1.00
C25    C     0.00728   0.21763   0.31422   0.00000  Uiso   1.00
C26    C     0.01742   0.24849   0.35757   0.00000  Uiso   1.00
C27    C     0.25992   0.11310   0.28572   0.00000  Uiso   1.00
C28    C     0.28868   0.12454   0.24283   0.00000  Uiso   1.00
C29    C     0.07434   0.38308   0.28146   0.00000  Uiso   1.00
C30    C     0.02654   0.39217   0.24613   0.00000  Uiso   1.00
C31    C     0.21392   0.32478   0.03304   0.00000  Uiso   1.00
C32    C     0.26111   0.31361   0.00865   0.00000  Uiso   1.00
C33    C     0.22366   0.17924   0.47830   0.00000  Uiso   1.00
C34    C     0.19378   0.21600   0.44960   0.00000  Uiso   1.00
C35    C     0.27323   0.19588   0.00517   0.00000  Uiso   1.00
C36    C     0.19059   0.28310   0.10714   0.00000  Uiso   1.00
C37    C     0.19347   0.21791   0.39832   0.00000  Uiso   1.00
C38    C     0.14133   0.21828   0.10161   0.00000  Uiso   1.00
C39    C     0.14055   0.28166   0.39273   0.00000  Uiso   1.00
C40    C     0.14134   0.21787   0.05093   0.00000  Uiso   1.00
Cu41   Cu    0.16667   0.24999   0.29821   0.00000  Uiso   1.00
Cu42   Cu    0.16667   0.25000   0.20178   0.00000  Uiso   1.00
F43    F     0.24835   0.02031   0.28661   0.00000  Uiso   1.00
F44    F     0.08494   0.47600   0.28632   0.00000  Uiso   1.00
F45    F     0.21438   0.31512   0.13481   0.00000  Uiso   1.00
F46    F     0.22143   0.18813   0.37627   0.00000  Uiso   1.00
F47    F     0.11489   0.18691   0.12268   0.00000  Uiso   1.00
F48    F     0.11585   0.31477   0.36616   0.00000  Uiso   1.00
H49    H     0.08898   0.11503   0.21666   0.00000  Uiso   1.00
H50    H     0.29396   0.30407   0.19258   0.00000  Uiso   1.00
H51    H     0.02200   0.30653   0.17720   0.00000  Uiso   1.00
H52    H     0.03482   0.27960   0.34670   0.00000  Uiso   1.00
H53    H     0.31476   0.25720   0.37209   0.00000  Uiso   1.00
H54    H     0.04305   0.23175   0.38693   0.00000  Uiso   1.00
H55    H     0.31283   0.19300   0.32369   0.00000  Uiso   1.00
H56    H     0.04096   0.19684   0.30940   0.00000  Uiso   1.00
H57    H     0.26762   0.15009   0.21910   0.00000  Uiso   1.00
H58    H     0.32658   0.13759   0.25629   0.00000  Uiso   1.00
H59    H     0.29417   0.09444   0.22116   0.00000  Uiso   1.00
H60    H     0.22964   0.38828   0.21406   0.00000  Uiso   1.00
H61    H     0.25302   0.14323   0.30642   0.00000  Uiso   1.00
H62    H     0.28422   0.09093   0.31117   0.00000  Uiso   1.00
H63    H     0.01510   0.42765   0.24642   0.00000  Uiso   1.00
H64    H     0.03314   0.38299   0.20868   0.00000  Uiso   1.00
H65    H     0.32822   0.37206   0.25691   0.00000  Uiso   1.00
H66    H     0.07970   0.34668   0.28362   0.00000  Uiso   1.00
H67    H     0.06812   0.39434   0.31836   0.00000  Uiso   1.00
H68    H     0.29025   0.29650   0.03430   0.00000  Uiso   1.00
H69    H     0.25184   0.29284   0.47620   0.00000  Uiso   1.00
H70    H     0.27765   0.34480   0.49644   0.00000  Uiso   1.00
H71    H     0.08558   0.03402   0.21470   0.00000  Uiso   1.00
H72    H     0.18515   0.34109   0.00621   0.00000  Uiso   1.00
H73    H     0.22486   0.35040   0.06067   0.00000  Uiso   1.00
H74    H     0.29618   0.16728   0.02136   0.00000  Uiso   1.00
H75    H     0.29549   0.21360   0.47972   0.00000  Uiso   1.00
H76    H     0.26568   0.21822   0.03506   0.00000  Uiso   1.00
H77    H     0.20056   0.16373   0.00444   0.00000  Uiso   1.00
H78    H     0.23308   0.15213   0.45393   0.00000  Uiso   1.00
H79    H     0.22858   0.46909   0.21200   0.00000  Uiso   1.00
H80    H     0.12093   0.19216   0.03007   0.00000  Uiso   1.00
H81    H     0.11738   0.30627   0.45926   0.00000  Uiso   1.00
H82    H     0.29751   0.27146   0.11170   0.00000  Uiso   1.00
H83    H     0.01636   0.23562   0.13360   0.00000  Uiso   1.00
H84    H     0.28774   0.22548   0.15109   0.00000  Uiso   1.00
N85    N     0.16667   0.25001   0.12935   0.00000  Uiso   1.00
N86    N     0.16667   0.24999   0.37065   0.00000  Uiso   1.00
O87    O     0.16667   0.18572   0.29071   0.00000  Uiso   1.00
O88    O     0.16666   0.31427   0.20928   0.00000  Uiso   1.00
O89    O     0.16667   0.18573   0.20928   0.00000  Uiso   1.00
O90    O     0.16666   0.31427   0.29072   0.00000  Uiso   1.00
O91    O     0.09161   0.24999   0.28132   0.00000  Uiso   1.00
O92    O     0.24172   0.25000   0.21868   0.00000  Uiso   1.00
O93    O     0.09161   0.25000   0.19988   0.00000  Uiso   1.00
O94    O     0.24172   0.25000   0.30011   0.00000  Uiso   1.00
C95    C     0.50026   0.16502   0.25016   0.00000  Uiso   1.00
C96    C     0.47264   0.28108   0.44319   0.00000  Uiso   1.00
C97    C     0.50001   0.25058   0.02715   0.00000  Uiso   1.00
C98    C     0.49972   0.24874   0.47272   0.00000  Uiso   1.00
C99    C     0.40161   0.25005   0.23810   0.00000  Uiso   1.00
C100   C     0.59844   0.24954   0.26199   0.00000  Uiso   1.00
C101   C     0.34738   0.25624   0.23226   0.00000  Uiso   1.00
C102   C     0.65278   0.24320   0.26809   0.00000  Uiso   1.00
C103   C     0.54069   0.04515   0.26816   0.00000  Uiso   1.00
C104   C     0.45460   0.45291   0.26617   0.00000  Uiso   1.00
C105   C     0.54339   0.09151   0.26844   0.00000  Uiso   1.00
C106   C     0.49782   0.33491   0.24950   0.00000  Uiso   1.00
C107   C     0.45336   0.40638   0.26539   0.00000  Uiso   1.00
C108   C     0.49999   0.11677   0.25025   0.00000  Uiso   1.00
C109   C     0.49420   0.38305   0.24820   0.00000  Uiso   1.00
C110   C     0.45550   0.09573   0.23106   0.00000  Uiso   1.00
C111   C     0.53237   0.40603   0.22839   0.00000  Uiso   1.00
C112   C     0.45346   0.04974   0.23028   0.00000  Uiso   1.00
C113   C     0.53200   0.45196   0.22758   0.00000  Uiso   1.00
C114   C     0.49590   0.02424   0.24891   0.00000  Uiso   1.00
C115   C     0.49390   0.47565   0.24741   0.00000  Uiso   1.00
C116   C     0.65995   0.28247   0.18670   0.00000  Uiso   1.00
C117   C     0.52414   0.28485   0.05585   0.00000  Uiso   1.00
C118   C     0.64791   0.25175   0.14336   0.00000  Uiso   1.00
C119   C     0.34061   0.21763   0.31422   0.00000  Uiso   1.00
C120   C     0.35076   0.24849   0.35757   0.00000  Uiso   1.00
C121   C     0.59325   0.11310   0.28572   0.00000  Uiso   1.00
C122   C     0.62201   0.12454   0.24283   0.00000  Uiso   1.00
C123   C     0.40767   0.38308   0.28146   0.00000  Uiso   1.00
C124   C     0.35987   0.39217   0.24613   0.00000  Uiso   1.00
C125   C     0.54725   0.32478   0.03304   0.00000  Uiso   1.00
C126   C     0.59444   0.31361   0.00865   0.00000  Uiso   1.00
C127   C     0.55700   0.17924   0.47830   0.00000  Uiso   1.00
C128   C     0.52712   0.21600   0.44960   0.00000  Uiso   1.00
C129   C     0.60656   0.19588   0.00517   0.00000  Uiso   1.00
C130   C     0.52393   0.28310   0.10714   0.00000  Uiso   1.00
C131   C     0.52680   0.21791   0.39832   0.00000  Uiso   1.00
C132   C     0.47466   0.21828   0.10161   0.00000  Uiso   1.00
C133   C     0.47388   0.28166   0.39273   0.00000  Uiso   1.00
C134   C     0.47467   0.21787   0.05093   0.00000  Uiso   1.00
Cu135  Cu    0.50000   0.24999   0.29821   0.00000  Uiso   1.00
Cu136  Cu    0.50000   0.25000   0.20178   0.00000  Uiso   1.00
F137   F     0.58169   0.02031   0.28661   0.00000  Uiso   1.00
F138   F     0.41827   0.47600   0.28632   0.00000  Uiso   1.00
F139   F     0.54771   0.31512   0.13481   0.00000  Uiso   1.00
F140   F     0.55477   0.18813   0.37627   0.00000  Uiso   1.00
F141   F     0.44823   0.18691   0.12268   0.00000  Uiso   1.00
F142   F     0.44919   0.31477   0.36616   0.00000  Uiso   1.00
H143   H     0.42231   0.11503   0.21666   0.00000  Uiso   1.00
H144   H     0.62730   0.30407   0.19258   0.00000  Uiso   1.00
H145   H     0.35533   0.30653   0.17720   0.00000  Uiso   1.00
H146   H     0.36815   0.27960   0.34670   0.00000  Uiso   1.00
H147   H     0.64810   0.25720   0.37209   0.00000  Uiso   1.00
H148   H     0.37638   0.23175   0.38693   0.00000  Uiso   1.00
H149   H     0.64617   0.19300   0.32369   0.00000  Uiso   1.00
H150   H     0.37430   0.19684   0.30940   0.00000  Uiso   1.00
H151   H     0.60095   0.15009   0.21910   0.00000  Uiso   1.00
H152   H     0.65991   0.13759   0.25629   0.00000  Uiso   1.00
H153   H     0.62750   0.09444   0.22116   0.00000  Uiso   1.00
H154   H     0.56297   0.38828   0.21406   0.00000  Uiso   1.00
H155   H     0.58636   0.14323   0.30642   0.00000  Uiso   1.00
H156   H     0.61755   0.09093   0.31117   0.00000  Uiso   1.00
H157   H     0.34843   0.42765   0.24642   0.00000  Uiso   1.00
H158   H     0.36648   0.38299   0.20868   0.00000  Uiso   1.00
H159   H     0.66155   0.37206   0.25691   0.00000  Uiso   1.00
H160   H     0.41303   0.34668   0.28362   0.00000  Uiso   1.00
H161   H     0.40145   0.39434   0.31836   0.00000  Uiso   1.00
H162   H     0.62359   0.29650   0.03430   0.00000  Uiso   1.00
H163   H     0.58517   0.29284   0.47620   0.00000  Uiso   1.00
H164   H     0.61098   0.34480   0.49644   0.00000  Uiso   1.00
H165   H     0.41891   0.03402   0.21470   0.00000  Uiso   1.00
H166   H     0.51848   0.34109   0.00621   0.00000  Uiso   1.00
H167   H     0.55819   0.35040   0.06067   0.00000  Uiso   1.00
H168   H     0.62952   0.16728   0.02136   0.00000  Uiso   1.00
H169   H     0.62883   0.21360   0.47972   0.00000  Uiso   1.00
H170   H     0.59902   0.21822   0.03506   0.00000  Uiso   1.00
H171   H     0.53390   0.16373   0.00444   0.00000  Uiso   1.00
H172   H     0.56641   0.15213   0.45393   0.00000  Uiso   1.00
H173   H     0.56191   0.46909   0.21200   0.00000  Uiso   1.00
H174   H     0.45427   0.19216   0.03007   0.00000  Uiso   1.00
H175   H     0.45072   0.30627   0.45926   0.00000  Uiso   1.00
H176   H     0.63084   0.27146   0.11170   0.00000  Uiso   1.00
H177   H     0.34970   0.23562   0.13360   0.00000  Uiso   1.00
H178   H     0.62107   0.22548   0.15109   0.00000  Uiso   1.00
N179   N     0.50000   0.25001   0.12935   0.00000  Uiso   1.00
N180   N     0.50000   0.24999   0.37065   0.00000  Uiso   1.00
O181   O     0.50000   0.18572   0.29071   0.00000  Uiso   1.00
O182   O     0.50000   0.31427   0.20928   0.00000  Uiso   1.00
O183   O     0.50000   0.18573   0.20928   0.00000  Uiso   1.00
O184   O     0.50000   0.31427   0.29072   0.00000  Uiso   1.00
O185   O     0.42495   0.24999   0.28132   0.00000  Uiso   1.00
O186   O     0.57505   0.25000   0.21868   0.00000  Uiso   1.00
O187   O     0.42495   0.25000   0.19988   0.00000  Uiso   1.00
O188   O     0.57505   0.25000   0.30011   0.00000  Uiso   1.00
C189   C     0.83359   0.16502   0.25016   0.00000  Uiso   1.00
C190   C     0.80597   0.28108   0.44319   0.00000  Uiso   1.00
C191   C     0.83334   0.25058   0.02715   0.00000  Uiso   1.00
C192   C     0.83305   0.24874   0.47272   0.00000  Uiso   1.00
C193   C     0.73494   0.25005   0.23810   0.00000  Uiso   1.00
C194   C     0.93178   0.24954   0.26199   0.00000  Uiso   1.00
C195   C     0.68071   0.25624   0.23226   0.00000  Uiso   1.00
C196   C     0.98611   0.24320   0.26809   0.00000  Uiso   1.00
C197   C     0.87403   0.04515   0.26816   0.00000  Uiso   1.00
C198   C     0.78794   0.45291   0.26617   0.00000  Uiso   1.00
C199   C     0.87673   0.09151   0.26844   0.00000  Uiso   1.00
C200   C     0.83115   0.33491   0.24950   0.00000  Uiso   1.00
C201   C     0.78669   0.40638   0.26539   0.00000  Uiso   1.00
C202   C     0.83332   0.11677   0.25025   0.00000  Uiso   1.00
C203   C     0.82753   0.38305   0.24820   0.00000  Uiso   1.00
C204   C     0.78884   0.09573   0.23106   0.00000  Uiso   1.00
C205   C     0.86571   0.40603   0.22839   0.00000  Uiso   1.00
C206   C     0.78680   0.04974   0.23028   0.00000  Uiso   1.00
C207   C     0.86533   0.45196   0.22758   0.00000  Uiso   1.00
C208   C     0.82923   0.02424   0.24891   0.00000  Uiso   1.00
C209   C     0.82724   0.47565   0.24741   0.00000  Uiso   1.00
C210   C     0.99328   0.28247   0.18670   0.00000  Uiso   1.00
C211   C     0.85748   0.28485   0.05585   0.00000  Uiso   1.00
C212   C     0.98125   0.25175   0.14336   0.00000  Uiso   1.00
C213   C     0.67395   0.21763   0.31422   0.00000  Uiso   1.00
C214   C     0.68409   0.24849   0.35757   0.00000  Uiso   1.00
C215   C     0.92659   0.11310   0.28572   0.00000  Uiso   1.00
C216   C     0.95534   0.12454   0.24283   0.00000  Uiso   1.00
C217   C     0.74101   0.38308   0.28146   0.00000  Uiso   1.00
C218   C     0.69321   0.39217   0.24613   0.00000  Uiso   1.00
C219   C     0.88058   0.32478   0.03304   0.00000  Uiso   1.00
C220   C     0.92777   0.31361   0.00865   0.00000  Uiso   1.00
C221   C     0.89033   0.17924   0.47830   0.00000  Uiso   1.00
C222   C     0.86045   0.21600   0.44960   0.00000  Uiso   1.00
C223   C     0.93990   0.19588   0.00517   0.00000  Uiso   1.00
C224   C     0.85726   0.28310   0.10714   0.00000  Uiso   1.00
C225   C     0.86013   0.21791   0.39832   0.00000  Uiso   1.00
C226   C     0.80799   0.21828   0.10161   0.00000  Uiso   1.00
C227   C     0.80722   0.28166   0.39273   0.00000  Uiso   1.00
C228   C     0.80800   0.21787   0.05093   0.00000  Uiso   1.00
Cu229  Cu    0.83333   0.24999   0.29821   0.00000  Uiso   1.00
Cu230  Cu    0.83333   0.25000   0.20178   0.00000  Uiso   1.00
F231   F     0.91502   0.02031   0.28661   0.00000  Uiso   1.00
F232   F     0.75160   0.47600   0.28632   0.00000  Uiso   1.00
F233   F     0.88104   0.31512   0.13481   0.00000  Uiso   1.00
F234   F     0.88810   0.18813   0.37627   0.00000  Uiso   1.00
F235   F     0.78156   0.18691   0.12268   0.00000  Uiso   1.00
F236   F     0.78252   0.31477   0.36616   0.00000  Uiso   1.00
H237   H     0.75565   0.11503   0.21666   0.00000  Uiso   1.00
H238   H     0.96063   0.30407   0.19258   0.00000  Uiso   1.00
H239   H     0.68866   0.30653   0.17720   0.00000  Uiso   1.00
H240   H     0.70148   0.27960   0.34670   0.00000  Uiso   1.00
H241   H     0.98143   0.25720   0.37209   0.00000  Uiso   1.00
H242   H     0.70972   0.23175   0.38693   0.00000  Uiso   1.00
H243   H     0.97950   0.19300   0.32369   0.00000  Uiso   1.00
H244   H     0.70763   0.19684   0.30940   0.00000  Uiso   1.00
H245   H     0.93429   0.15009   0.21910   0.00000  Uiso   1.00
H246   H     0.99324   0.13759   0.25629   0.00000  Uiso   1.00
H247   H     0.96083   0.09444   0.22116   0.00000  Uiso   1.00
H248   H     0.89630   0.38828   0.21406   0.00000  Uiso   1.00
H249   H     0.91969   0.14323   0.30642   0.00000  Uiso   1.00
H250   H     0.95089   0.09093   0.31117   0.00000  Uiso   1.00
H251   H     0.68177   0.42765   0.24642   0.00000  Uiso   1.00
H252   H     0.69981   0.38299   0.20868   0.00000  Uiso   1.00
H253   H     0.99488   0.37206   0.25691   0.00000  Uiso   1.00
H254   H     0.74636   0.34668   0.28362   0.00000  Uiso   1.00
H255   H     0.73479   0.39434   0.31836   0.00000  Uiso   1.00
H256   H     0.95692   0.29650   0.03430   0.00000  Uiso   1.00
H257   H     0.91851   0.29284   0.47620   0.00000  Uiso   1.00
H258   H     0.94431   0.34480   0.49644   0.00000  Uiso   1.00
H259   H     0.75225   0.03402   0.21470   0.00000  Uiso   1.00
H260   H     0.85181   0.34109   0.00621   0.00000  Uiso   1.00
H261   H     0.89153   0.35040   0.06067   0.00000  Uiso   1.00
H262   H     0.96285   0.16728   0.02136   0.00000  Uiso   1.00
H263   H     0.96216   0.21360   0.47972   0.00000  Uiso   1.00
H264   H     0.93235   0.21822   0.03506   0.00000  Uiso   1.00
H265   H     0.86723   0.16373   0.00444   0.00000  Uiso   1.00
H266   H     0.89975   0.15213   0.45393   0.00000  Uiso   1.00
H267   H     0.89525   0.46909   0.21200   0.00000  Uiso   1.00
H268   H     0.78760   0.19216   0.03007   0.00000  Uiso   1.00
H269   H     0.78405   0.30627   0.45926   0.00000  Uiso   1.00
H270   H     0.96418   0.27146   0.11170   0.00000  Uiso   1.00
H271   H     0.68303   0.23562   0.13360   0.00000  Uiso   1.00
H272   H     0.95441   0.22548   0.15109   0.00000  Uiso   1.00
N273   N     0.83333   0.25001   0.12935   0.00000  Uiso   1.00
N274   N     0.83333   0.24999   0.37065   0.00000  Uiso   1.00
O275   O     0.83334   0.18572   0.29071   0.00000  Uiso   1.00
O276   O     0.83333   0.31427   0.20928   0.00000  Uiso   1.00
O277   O     0.83334   0.18573   0.20928   0.00000  Uiso   1.00
O278   O     0.83333   0.31427   0.29072   0.00000  Uiso   1.00
O279   O     0.75828   0.24999   0.28132   0.00000  Uiso   1.00
O280   O     0.90839   0.25000   0.21868   0.00000  Uiso   1.00
O281   O     0.75828   0.25000   0.19988   0.00000  Uiso   1.00
O282   O     0.90839   0.25000   0.30011   0.00000  Uiso   1.00
C283   C     0.16693   0.66502   0.25016   0.00000  Uiso   1.00
C284   C     0.13930   0.78108   0.44319   0.00000  Uiso   1.00
C285   C     0.16667   0.75058   0.02715   0.00000  Uiso   1.00
C286   C     0.16639   0.74874   0.47272   0.00000  Uiso   1.00
C287   C     0.06828   0.75005   0.23810   0.00000  Uiso   1.00
C288   C     0.26511   0.74954   0.26199   0.00000  Uiso   1.00
C289   C     0.01404   0.75624   0.23226   0.00000  Uiso   1.00
C290   C     0.31945   0.74320   0.26809   0.00000  Uiso   1.00
C291   C     0.20736   0.54515   0.26816   0.00000  Uiso   1.00
C292   C     0.12127   0.95291   0.26617   0.00000  Uiso   1.00
C293   C     0.21006   0.59151   0.26844   0.00000  Uiso   1.00
C294   C     0.16449   0.83491   0.24950   0.00000  Uiso   1.00
C295   C     0.12003   0.90638   0.26539   0.00000  Uiso   1.00
C296   C     0.16666   0.61677   0.25025   0.00000  Uiso   1.00
C297   C     0.16086   0.88305   0.24820   0.00000  Uiso   1.00
C298   C     0.12217   0.59573   0.23106   0.00000  Uiso   1.00
C299   C     0.19904   0.90603   0.22839   0.00000  Uiso   1.00
C300   C     0.12013   0.54974   0.23028   0.00000  Uiso   1.00
C301   C     0.19866   0.95196   0.22758   0.00000  Uiso   1.00
C302   C     0.16256   0.52424   0.24891   0.00000  Uiso   1.00
C303   C     0.16057   0.97565   0.24741   0.00000  Uiso   1.00
C304   C     0.32662   0.78247   0.18670   0.00000  Uiso   1.00
C305   C     0.19081   0.78485   0.05585   0.00000  Uiso   1.00
C306   C     0.31458   0.75175   0.14336   0.00000  Uiso   1.00
C307   C     0.00728   0.71763   0.31422   0.00000  Uiso   1.00
C308   C     0.01742   0.74849   0.35757   0.00000  Uiso   1.00
C309   C     0.25992   0.61310   0.28572   0.00000  Uiso   1.00
C310   C     0.28868   0.62454   0.24283   0.00000  Uiso   1.00
C311   C     0.07434   0.88308   0.28146   0.00000  Uiso   1.00
C312   C     0.02654   0.89217   0.24613   0.00000  Uiso   1.00
C313   C     0.21392   0.82478   0.03304   0.00000  Uiso   1.00
C314   C     0.26111   0.81361   0.00865   0.00000  Uiso   1.00
C315   C     0.22366   0.67924   0.47830   0.00000  Uiso   1.00
C316   C     0.19378   0.71600   0.44960   0.00000  Uiso   1.00
C317   C     0.27323   0.69588   0.00517   0.00000  Uiso   1.00
C318   C     0.19059   0.78310   0.10714   0.00000  Uiso   1.00
C319   C     0.19347   0.71791   0.39832   0.00000  Uiso   1.00
C320   C     0.14133   0.71828   0.10161   0.00000  Uiso   1.00
C321   C     0.14055   0.78166   0.39273   0.00000  Uiso   1.00
C322   C     0.14134   0.71787   0.05093   0.00000  Uiso   1.00
Cu323  Cu    0.16667   0.74999   0.29821   0.00000  Uiso   1.00
Cu324  Cu    0.16667   0.75000   0.20178   0.00000  Uiso   1.00
F325   F     0.24835   0.52031   0.28661   0.00000  Uiso   1.00
F326   F     0.08494   0.97600   0.28632   0.00000  Uiso   1.00
F327   F     0.21438   0.81512   0.13481   0.00000  Uiso   1.00
F328   F     0.22143   0.68813   0.37627   0.00000  Uiso   1.00
F329   F     0.11489   0.68691   0.12268   0.00000  Uiso   1.00
F330   F     0.11585   0.81477   0.36616   0.00000  Uiso   1.00
H331   H     0.08898   0.61503   0.21666   0.00000  Uiso   1.00
H332   H     0.29396   0.80407   0.19258   0.00000  Uiso   1.00
H333   H     0.02200   0.80653   0.17720   0.00000  Uiso   1.00
H334   H     0.03482   0.77960   0.34670   0.00000  Uiso   1.00
H335   H     0.31476   0.75720   0.37209   0.00000  Uiso   1.00
H336   H     0.04305   0.73175   0.38693   0.00000  Uiso   1.00
H337   H     0.31283   0.69300   0.32369   0.00000  Uiso   1.00
H338   H     0.04096   0.69684   0.30940   0.00000  Uiso   1.00
H339   H     0.26762   0.65009   0.21910   0.00000  Uiso   1.00
H340   H     0.32658   0.63759   0.25629   0.00000  Uiso   1.00
H341   H     0.29417   0.59444   0.22116   0.00000  Uiso   1.00
H342   H     0.22964   0.88828   0.21406   0.00000  Uiso   1.00
H343   H     0.25302   0.64323   0.30642   0.00000  Uiso   1.00
H344   H     0.28422   0.59093   0.31117   0.00000  Uiso   1.00
H345   H     0.01510   0.92765   0.24642   0.00000  Uiso   1.00
H346   H     0.03314   0.88299   0.20868   0.00000  Uiso   1.00
H347   H     0.32822   0.87206   0.25691   0.00000  Uiso   1.00
H348   H     0.07970   0.84668   0.28362   0.00000  Uiso   1.00
H349   H     0.06812   0.89434   0.31836   0.00000  Uiso   1.00
H350   H     0.29025   0.79650   0.03430   0.00000  Uiso   1.00
H351   H     0.25184   0.79284   0.47620   0.00000  Uiso   1.00
H352   H     0.27765   0.84480   0.49644   0.00000  Uiso   1.00
H353   H     0.08558   0.53402   0.21470   0.00000  Uiso   1.00
H354   H     0.18515   0.84109   0.00621   0.00000  Uiso   1.00
H355   H     0.22486   0.85040   0.06067   0.00000  Uiso   1.00
H356   H     0.29618   0.66728   0.02136   0.00000  Uiso   1.00
H357   H     0.29549   0.71360   0.47972   0.00000  Uiso   1.00
H358   H     0.26568   0.71822   0.03506   0.00000  Uiso   1.00
H359   H     0.20056   0.66373   0.00444   0.00000  Uiso   1.00
H360   H     0.23308   0.65213   0.45393   0.00000  Uiso   1.00
H361   H     0.22858   0.96909   0.21200   0.00000  Uiso   1.00
H362   H     0.12093   0.69216   0.03007   0.00000  Uiso   1.00
H363   H     0.11738   0.80627   0.45926   0.00000  Uiso   1.00
H364   H     0.29751   0.77146   0.11170   0.00000  Uiso   1.00
H365   H     0.01636   0.73562   0.13360   0.00000  Uiso   1.00
H366   H     0.28774   0.72548   0.15109   0.00000  Uiso   1.00
N367   N     0.16667   0.75001   0.12935   0.00000  Uiso   1.00
N368   N     0.16667   0.74999   0.37065   0.00000  Uiso   1.00
O369   O     0.16667   0.68572   0.29071   0.00000  Uiso   1.00
O370   O     0.16666   0.81427   0.20928   0.00000  Uiso   1.00
O371   O     0.16667   0.68573   0.20928   0.00000  Uiso   1.00
O372   O     0.16666   0.81427   0.29072   0.00000  Uiso   1.00
O373   O     0.09161   0.74999   0.28132   0.00000  Uiso   1.00
O374   O     0.24172   0.75000   0.21868   0.00000  Uiso   1.00
O375   O     0.09161   0.75000   0.19988   0.00000  Uiso   1.00
O376   O     0.24172   0.75000   0.30011   0.00000  Uiso   1.00
C377   C     0.50026   0.66502   0.25016   0.00000  Uiso   1.00
C378   C     0.47264   0.78108   0.44319   0.00000  Uiso   1.00
C379   C     0.50001   0.75058   0.02715   0.00000  Uiso   1.00
C380   C     0.49972   0.74874   0.47272   0.00000  Uiso   1.00
C381   C     0.40161   0.75005   0.23810   0.00000  Uiso   1.00
C382   C     0.59844   0.74954   0.26199   0.00000  Uiso   1.00
C383   C     0.34738   0.75624   0.23226   0.00000  Uiso   1.00
C384   C     0.65278   0.74320   0.26809   0.00000  Uiso   1.00
C385   C     0.54069   0.54515   0.26816   0.00000  Uiso   1.00
C386   C     0.45460   0.95291   0.26617   0.00000  Uiso   1.00
C387   C     0.54339   0.59151   0.26844   0.00000  Uiso   1.00
C388   C     0.49782   0.83491   0.24950   0.00000  Uiso   1.00
C389   C     0.45336   0.90638   0.26539   0.00000  Uiso   1.00
C390   C     0.49999   0.61677   0.25025   0.00000  Uiso   1.00
C391   C     0.49420   0.88305   0.24820   0.00000  Uiso   1.00
C392   C     0.45550   0.59573   0.23106   0.00000  Uiso   1.00
C393   C     0.53237   0.90603   0.22839   0.00000  Uiso   1.00
C394   C     0.45346   0.54974   0.23028   0.00000  Uiso   1.00
C395   C     0.53200   0.95196   0.22758   0.00000  Uiso   1.00
C396   C     0.49590   0.52424   0.24891   0.00000  Uiso   1.00
C397   C     0.49390   0.97565   0.24741   0.00000  Uiso   1.00
C398   C     0.65995   0.78247   0.18670   0.00000  Uiso   1.00
C399   C     0.52414   0.78485   0.05585   0.00000  Uiso   1.00
C400   C     0.64791   0.75175   0.14336   0.00000  Uiso   1.00
C401   C     0.34061   0.71763   0.31422   0.00000  Uiso   1.00
C402   C     0.35076   0.74849   0.35757   0.00000  Uiso   1.00
C403   C     0.59325   0.61310   0.28572   0.00000  Uiso   1.00
C404   C     0.62201   0.62454   0.24283   0.00000  Uiso   1.00
C405   C     0.40767   0.88308   0.28146   0.00000  Uiso   1.00
C406   C     0.35987   0.89217   0.24613   0.00000  Uiso   1.00
C407   C     0.54725   0.82478   0.03304   0.00000  Uiso   1.00
C408   C     0.59444   0.81361   0.00865   0.00000  Uiso   1.00
C409   C     0.55700   0.67924   0.47830   0.00000  Uiso   1.00
C410   C     0.52712   0.71600   0.44960   0.00000  Uiso   1.00
C411   C     0.60656   0.69588   0.00517   0.00000  Uiso   1.00
C412   C     0.52393   0.78310   0.10714   0.00000  Uiso   1.00
C413   C     0.52680   0.71791   0.39832   0.00000  Uiso   1.00
C414   C     0.47466   0.71828   0.10161   0.00000  Uiso   1.00
C415   C     0.47388   0.78166   0.39273   0.00000  Uiso   1.00
C416   C     0.47467   0.71787   0.05093   0.00000  Uiso   1.00
Cu417  Cu    0.50000   0.74999   0.29821   0.00000  Uiso   1.00
Cu418  Cu    0.50000   0.75000   0.20178   0.00000  Uiso   1.00
F419   F     0.58169   0.52031   0.28661   0.00000  Uiso   1.00
F420   F     0.41827   0.97600   0.28632   0.00000  Uiso   1.00
F421   F     0.54771   0.81512   0.13481   0.00000  Uiso   1.00
F422   F     0.55477   0.68813   0.37627   0.00000  Uiso   1.00
F423   F     0.44823   0.68691   0.12268   0.00000  Uiso   1.00
F424   F     0.44919   0.81477   0.36616   0.00000  Uiso   1.00
H425   H     0.42231   0.61503   0.21666   0.00000  Uiso   1.00
H426   H     0.62730   0.80407   0.19258   0.00000  Uiso   1.00
H427   H     0.35533   0.80653   0.17720   0.00000  Uiso   1.00
H428   H     0.36815   0.77960   0.34670   0.00000  Uiso   1.00
H429   H     0.64810   0.75720   0.37209   0.00000  Uiso   1.00
H430   H     0.37638   0.73175   0.38693   0.00000  Uiso   1.00
H431   H     0.64617   0.69300   0.32369   0.00000  Uiso   1.00
H432   H     0.37430   0.69684   0.30940   0.00000  Uiso   1.00
H433   H     0.60095   0.65009   0.21910   0.00000  Uiso   1.00
H434   H     0.65991   0.63759   0.25629   0.00000  Uiso   1.00
H435   H     0.62750   0.59444   0.22116   0.00000  Uiso   1.00
H436   H     0.56297   0.88828   0.21406   0.00000  Uiso   1.00
H437   H     0.58636   0.64323   0.30642   0.00000  Uiso   1.00
H438   H     0.61755   0.59093   0.31117   0.00000  Uiso   1.00
H439   H     0.34843   0.92765   0.24642   0.00000  Uiso   1.00
H440   H     0.36648   0.88299   0.20868   0.00000  Uiso   1.00
H441   H     0.66155   0.87206   0.25691   0.00000  Uiso   1.00
H442   H     0.41303   0.84668   0.28362   0.00000  Uiso   1.00
H443   H     0.40145   0.89434   0.31836   0.00000  Uiso   1.00
H444   H     0.62359   0.79650   0.03430   0.00000  Uiso   1.00
H445   H     0.58517   0.79284   0.47620   0.00000  Uiso   1.00
H446   H     0.61098   0.84480   0.49644   0.00000  Uiso   1.00
H447   H     0.41891   0.53402   0.21470   0.00000  Uiso   1.00
H448   H     0.51848   0.84109   0.00621   0.00000  Uiso   1.00
H449   H     0.55819   0.85040   0.06067   0.00000  Uiso   1.00
H450   H     0.62952   0.66728   0.02136   0.00000  Uiso   1.00
H451   H     0.62883   0.71360   0.47972   0.00000  Uiso   1.00
H452   H     0.59902   0.71822   0.03506   0.00000  Uiso   1.00
H453   H     0.53390   0.66373   0.00444   0.00000  Uiso   1.00
H454   H     0.56641   0.65213   0.45393   0.00000  Uiso   1.00
H455   H     0.56191   0.96909   0.21200   0.00000  Uiso   1.00
H456   H     0.45427   0.69216   0.03007   0.00000  Uiso   1.00
H457   H     0.45072   0.80627   0.45926   0.00000  Uiso   1.00
H458   H     0.63084   0.77146   0.11170   0.00000  Uiso   1.00
H459   H     0.34970   0.73562   0.13360   0.00000  Uiso   1.00
H460   H     0.62107   0.72548   0.15109   0.00000  Uiso   1.00
N461   N     0.50000   0.75001   0.12935   0.00000  Uiso   1.00
N462   N     0.50000   0.74999   0.37065   0.00000  Uiso   1.00
O463   O     0.50000   0.68572   0.29071   0.00000  Uiso   1.00
O464   O     0.50000   0.81427   0.20928   0.00000  Uiso   1.00
O465   O     0.50000   0.68573   0.20928   0.00000  Uiso   1.00
O466   O     0.50000   0.81427   0.29072   0.00000  Uiso   1.00
O467   O     0.42495   0.74999   0.28132   0.00000  Uiso   1.00
O468   O     0.57505   0.75000   0.21868   0.00000  Uiso   1.00
O469   O     0.42495   0.75000   0.19988   0.00000  Uiso   1.00
O470   O     0.57505   0.75000   0.30011   0.00000  Uiso   1.00
C471   C     0.83359   0.66502   0.25016   0.00000  Uiso   1.00
C472   C     0.80597   0.78108   0.44319   0.00000  Uiso   1.00
C473   C     0.83334   0.75058   0.02715   0.00000  Uiso   1.00
C474   C     0.83305   0.74874   0.47272   0.00000  Uiso   1.00
C475   C     0.73494   0.75005   0.23810   0.00000  Uiso   1.00
C476   C     0.93178   0.74954   0.26199   0.00000  Uiso   1.00
C477   C     0.68071   0.75624   0.23226   0.00000  Uiso   1.00
C478   C     0.98611   0.74320   0.26809   0.00000  Uiso   1.00
C479   C     0.87403   0.54515   0.26816   0.00000  Uiso   1.00
C480   C     0.78794   0.95291   0.26617   0.00000  Uiso   1.00
C481   C     0.87673   0.59151   0.26844   0.00000  Uiso   1.00
C482   C     0.83115   0.83491   0.24950   0.00000  Uiso   1.00
C483   C     0.78669   0.90638   0.26539   0.00000  Uiso   1.00
C484   C     0.83332   0.61677   0.25025   0.00000  Uiso   1.00
C485   C     0.82753   0.88305   0.24820   0.00000  Uiso   1.00
C486   C     0.78884   0.59573   0.23106   0.00000  Uiso   1.00
C487   C     0.86571   0.90603   0.22839   0.00000  Uiso   1.00
C488   C     0.78680   0.54974   0.23028   0.00000  Uiso   1.00
C489   C     0.86533   0.95196   0.22758   0.00000  Uiso   1.00
C490   C     0.82923   0.52424   0.24891   0.00000  Uiso   1.00
C491   C     0.82724   0.97565   0.24741   0.00000  Uiso   1.00
C492   C     0.99328   0.78247   0.18670   0.00000  Uiso   1.00
C493   C     0.85748   0.78485   0.05585   0.00000  Uiso   1.00
C494   C     0.98125   0.75175   0.14336   0.00000  Uiso   1.00
C495   C     0.67395   0.71763   0.31422   0.00000  Uiso   1.00
C496   C     0.68409   0.74849   0.35757   0.00000  Uiso   1.00
C497   C     0.92659   0.61310   0.28572   0.00000  Uiso   1.00
C498   C     0.95534   0.62454   0.24283   0.00000  Uiso   1.00
C499   C     0.74101   0.88308   0.28146   0.00000  Uiso   1.00
C500   C     0.69321   0.89217   0.24613   0.00000  Uiso   1.00
C501   C     0.88058   0.82478   0.03304   0.00000  Uiso   1.00
C502   C     0.92777   0.81361   0.00865   0.00000  Uiso   1.00
C503   C     0.89033   0.67924   0.47830   0.00000  Uiso   1.00
C504   C     0.86045   0.71600   0.44960   0.00000  Uiso   1.00
C505   C     0.93990   0.69588   0.00517   0.00000  Uiso   1.00
C506   C     0.85726   0.78310   0.10714   0.00000  Uiso   1.00
C507   C     0.86013   0.71791   0.39832   0.00000  Uiso   1.00
C508   C     0.80799   0.71828   0.10161   0.00000  Uiso   1.00
C509   C     0.80722   0.78166   0.39273   0.00000  Uiso   1.00
C510   C     0.80800   0.71787   0.05093   0.00000  Uiso   1.00
Cu511  Cu    0.83333   0.74999   0.29821   0.00000  Uiso   1.00
Cu512  Cu    0.83333   0.75000   0.20178   0.00000  Uiso   1.00
F513   F     0.91502   0.52031   0.28661   0.00000  Uiso   1.00
F514   F     0.75160   0.97600   0.28632   0.00000  Uiso   1.00
F515   F     0.88104   0.81512   0.13481   0.00000  Uiso   1.00
F516   F     0.88810   0.68813   0.37627   0.00000  Uiso   1.00
F517   F     0.78156   0.68691   0.12268   0.00000  Uiso   1.00
F518   F     0.78252   0.81477   0.36616   0.00000  Uiso   1.00
H519   H     0.75565   0.61503   0.21666   0.00000  Uiso   1.00
H520   H     0.96063   0.80407   0.19258   0.00000  Uiso   1.00
H521   H     0.68866   0.80653   0.17720   0.00000  Uiso   1.00
H522   H     0.70148   0.77960   0.34670   0.00000  Uiso   1.00
H523   H     0.98143   0.75720   0.37209   0.00000  Uiso   1.00
H524   H     0.70972   0.73175   0.38693   0.00000  Uiso   1.00
H525   H     0.97950   0.69300   0.32369   0.00000  Uiso   1.00
H526   H     0.70763   0.69684   0.30940   0.00000  Uiso   1.00
H527   H     0.93429   0.65009   0.21910   0.00000  Uiso   1.00
H528   H     0.99324   0.63759   0.25629   0.00000  Uiso   1.00
H529   H     0.96083   0.59444   0.22116   0.00000  Uiso   1.00
H530   H     0.89630   0.88828   0.21406   0.00000  Uiso   1.00
H531   H     0.91969   0.64323   0.30642   0.00000  Uiso   1.00
H532   H     0.95089   0.59093   0.31117   0.00000  Uiso   1.00
H533   H     0.68177   0.92765   0.24642   0.00000  Uiso   1.00
H534   H     0.69981   0.88299   0.20868   0.00000  Uiso   1.00
H535   H     0.99488   0.87206   0.25691   0.00000  Uiso   1.00
H536   H     0.74636   0.84668   0.28362   0.00000  Uiso   1.00
H537   H     0.73479   0.89434   0.31836   0.00000  Uiso   1.00
H538   H     0.95692   0.79650   0.03430   0.00000  Uiso   1.00
H539   H     0.91851   0.79284   0.47620   0.00000  Uiso   1.00
H540   H     0.94431   0.84480   0.49644   0.00000  Uiso   1.00
H541   H     0.75225   0.53402   0.21470   0.00000  Uiso   1.00
H542   H     0.85181   0.84109   0.00621   0.00000  Uiso   1.00
H543   H     0.89153   0.85040   0.06067   0.00000  Uiso   1.00
H544   H     0.96285   0.66728   0.02136   0.00000  Uiso   1.00
H545   H     0.96216   0.71360   0.47972   0.00000  Uiso   1.00
H546   H     0.93235   0.71822   0.03506   0.00000  Uiso   1.00
H547   H     0.86723   0.66373   0.00444   0.00000  Uiso   1.00
H548   H     0.89975   0.65213   0.45393   0.00000  Uiso   1.00
H549   H     0.89525   0.96909   0.21200   0.00000  Uiso   1.00
H550   H     0.78760   0.69216   0.03007   0.00000  Uiso   1.00
H551   H     0.78405   0.80627   0.45926   0.00000  Uiso   1.00
H552   H     0.96418   0.77146   0.11170   0.00000  Uiso   1.00
H553   H     0.68303   0.73562   0.13360   0.00000  Uiso   1.00
H554   H     0.95441   0.72548   0.15109   0.00000  Uiso   1.00
N555   N     0.83333   0.75001   0.12935   0.00000  Uiso   1.00
N556   N     0.83333   0.74999   0.37065   0.00000  Uiso   1.00
O557   O     0.83334   0.68572   0.29071   0.00000  Uiso   1.00
O558   O     0.83333   0.81427   0.20928   0.00000  Uiso   1.00
O559   O     0.83334   0.68573   0.20928   0.00000  Uiso   1.00
O560   O     0.83333   0.81427   0.29072   0.00000  Uiso   1.00
O561   O     0.75828   0.74999   0.28132   0.00000  Uiso   1.00
O562   O     0.90839   0.75000   0.21868   0.00000  Uiso   1.00
O563   O     0.75828   0.75000   0.19988   0.00000  Uiso   1.00
O564   O     0.90839   0.75000   0.30011   0.00000  Uiso   1.00
C565   C     0.16693   0.16502   0.75016   0.00000  Uiso   1.00
C566   C     0.13930   0.28108   0.94319   0.00000  Uiso   1.00
C567   C     0.16667   0.25058   0.52715   0.00000  Uiso   1.00
C568   C     0.16639   0.24874   0.97272   0.00000  Uiso   1.00
C569   C     0.06828   0.25005   0.73810   0.00000  Uiso   1.00
C570   C     0.26511   0.24954   0.76199   0.00000  Uiso   1.00
C571   C     0.01404   0.25624   0.73226   0.00000  Uiso   1.00
C572   C     0.31945   0.24320   0.76809   0.00000  Uiso   1.00
C573   C     0.20736   0.04515   0.76816   0.00000  Uiso   1.00
C574   C     0.12127   0.45291   0.76617   0.00000  Uiso   1.00
C575   C     0.21006   0.09151   0.76844   0.00000  Uiso   1.00
C576   C     0.16449   0.33491   0.74950   0.00000  Uiso   1.00
C577   C     0.12003   0.40638   0.76539   0.00000  Uiso   1.00
C578   C     0.16666   0.11677   0.75025   0.00000  Uiso   1.00
C579   C     0.16086   0.38305   0.74820   0.00000  Uiso   1.00
C580   C     0.12217   0.09573   0.73106   0.00000  Uiso   1.00
C581   C     0.19904   0.40603   0.72839   0.00000  Uiso   1.00
C582   C     0.12013   0.04974   0.73028   0.00000  Uiso   1.00
C583   C     0.19866   0.45196   0.72758   0.00000  Uiso   1.00
C584   C     0.16256   0.02424   0.74891   0.00000  Uiso   1.00
C585   C     0.16057   0.47565   0.74741   0.00000  Uiso   1.00
C586   C     0.32662   0.28247   0.68670   0.00000  Uiso   1.00
C587   C     0.19081   0.28485   0.55585   0.00000  Uiso   1.00
C588   C     0.31458   0.25175   0.64336   0.00000  Uiso   1.00
C589   C     0.00728   0.21763   0.81422   0.00000  Uiso   1.00
C590   C     0.01742   0.24849   0.85757   0.00000  Uiso   1.00
C591   C     0.25992   0.11310   0.78572   0.00000  Uiso   1.00
C592   C     0.28868   0.12454   0.74283   0.00000  Uiso   1.00
C593   C     0.07434   0.38308   0.78146   0.00000  Uiso   1.00
C594   C     0.02654   0.39217   0.74613   0.00000  Uiso   1.00
C595   C     0.21392   0.32478   0.53304   0.00000  Uiso   1.00
C596   C     0.26111   0.31361   0.50865   0.00000  Uiso   1.00
C597   C     0.22366   0.17924   0.97830   0.00000  Uiso   1.00
C598   C     0.19378   0.21600   0.94960   0.00000  Uiso   1.00
C599   C     0.27323   0.19588   0.50517   0.00000  Uiso   1.00
C600   C     0.19059   0.28310   0.60714   0.00000  Uiso   1.00
C601   C     0.19347   0.21791   0.89832   0.00000  Uiso   1.00
C602   C     0.14133   0.21828   0.60161   0.00000  Uiso   1.00
C603   C     0.14055   0.28166   0.89273   0.00000  Uiso   1.00
C604   C     0.14134   0.21787   0.55093   0.00000  Uiso   1.00
Cu605  Cu    0.16667   0.24999   0.79821   0.00000  Uiso   1.00
Cu606  Cu    0.16667   0.25000   0.70178   0.00000  Uiso   1.00
F607   F     0.24835   0.02031   0.78661   0.00000  Uiso   1.00
F608   F     0.08494   0.47600   0.78632   0.00000  Uiso   1.00
F609   F     0.21438   0.31512   0.63481   0.00000  Uiso   1.00
F610   F     0.22143   0.18813   0.87627   0.00000  Uiso   1.00
F611   F     0.11489   0.18691   0.62268   0.00000  Uiso   1.00
F612   F     0.11585   0.31477   0.86616   0.00000  Uiso   1.00
H613   H     0.08898   0.11503   0.71666   0.00000  Uiso   1.00
H614   H     0.29396   0.30407   0.69258   0.00000  Uiso   1.00
H615   H     0.02200   0.30653   0.67720   0.00000  Uiso   1.00
H616   H     0.03482   0.27960   0.84670   0.00000  Uiso   1.00
H617   H     0.31476   0.25720   0.87209   0.00000  Uiso   1.00
H618   H     0.04305   0.23175   0.88693   0.00000  Uiso   1.00
H619   H     0.31283   0.19300   0.82369   0.00000  Uiso   1.00
H620   H     0.04096   0.19684   0.80940   0.00000  Uiso   1.00
H621   H     0.26762   0.15009   0.71910   0.00000  Uiso   1.00
H622   H     0.32658   0.13759   0.75629   0.00000  Uiso   1.00
H623   H     0.29417   0.09444   0.72116   0.00000  Uiso   1.00
H624   H     0.22964   0.38828   0.71406   0.00000  Uiso   1.00
H625   H     0.25302   0.14323   0.80642   0.00000  Uiso   1.00
H626   H     0.28422   0.09093   0.81117   0.00000  Uiso   1.00
H627   H     0.01510   0.42765   0.74642   0.00000  Uiso   1.00
H628   H     0.03314   0.38299   0.70868   0.00000  Uiso   1.00
H629   H     0.32822   0.37206   0.75691   0.00000  Uiso   1.00
H630   H     0.07970   0.34668   0.78362   0.00000  Uiso   1.00
H631   H     0.06812   0.39434   0.81836   0.00000  Uiso   1.00
H632   H     0.29025   0.29650   0.53430   0.00000  Uiso   1.00
H633   H     0.25184   0.29284   0.97620   0.00000  Uiso   1.00
H634   H     0.27765   0.34480   0.99644   0.00000  Uiso   1.00
H635   H     0.08558   0.03402   0.71470   0.00000  Uiso   1.00
H636   H     0.18515   0.34109   0.50621   0.00000  Uiso   1.00
H637   H     0.22486   0.35040   0.56067   0.00000  Uiso   1.00
H638   H     0.29618   0.16728   0.52136   0.00000  Uiso   1.00
H639   H     0.29549   0.21360   0.97972   0.00000  Uiso   1.00
H640   H     0.26568   0.21822   0.53506   0.00000  Uiso   1.00
H641   H     0.20056   0.16373   0.50444   0.00000  Uiso   1.00
H642   H     0.23308   0.15213   0.95393   0.00000  Uiso   1.00
H643   H     0.22858   0.46909   0.71200   0.00000  Uiso   1.00
H644   H     0.12093   0.19216   0.53007   0.00000  Uiso   1.00
H645   H     0.11738   0.30627   0.95926   0.00000  Uiso   1.00
H646   H     0.29751   0.27146   0.61170   0.00000  Uiso   1.00
H647   H     0.01636   0.23562   0.63360   0.00000  Uiso   1.00
H648   H     0.28774   0.22548   0.65109   0.00000  Uiso   1.00
N649   N     0.16667   0.25001   0.62935   0.00000  Uiso   1.00
N650   N     0.16667   0.24999   0.87065   0.00000  Uiso   1.00
O651   O     0.16667   0.18572   0.79071   0.00000  Uiso   1.00
O652   O     0.16666   0.31427   0.70928   0.00000  Uiso   1.00
O653   O     0.16667   0.18573   0.70928   0.00000  Uiso   1.00
O654   O     0.16666   0.31427   0.79072   0.00000  Uiso   1.00
O655   O     0.09161   0.24999   0.78132   0.00000  Uiso   1.00
O656   O     0.24172   0.25000   0.71868   0.00000  Uiso   1.00
O657   O     0.09161   0.25000   0.69988   0.00000  Uiso   1.00
O658   O     0.24172   0.25000   0.80011   0.00000  Uiso   1.00
C659   C     0.50026   0.16502   0.75016   0.00000  Uiso   1.00
C660   C     0.47264   0.28108   0.94319   0.00000  Uiso   1.00
C661   C     0.50001   0.25058   0.52715   0.00000  Uiso   1.00
C662   C     0.49972   0.24874   0.97272   0.00000  Uiso   1.00
C663   C     0.40161   0.25005   0.73810   0.00000  Uiso   1.00
C664   C     0.59844   0.24954   0.76199   0.00000  Uiso   1.00
C665   C     0.34738   0.25624   0.73226   0.00000  Uiso   1.00
C666   C     0.65278   0.24320   0.76809   0.00000  Uiso   1.00
C667   C     0.54069   0.04515   0.76816   0.00000  Uiso   1.00
C668   C     0.45460   0.45291   0.76617   0.00000  Uiso   1.00
C669   C     0.54339   0.09151   0.76844   0.00000  Uiso   1.00
C670   C     0.49782   0.33491   0.74950   0.00000  Uiso   1.00
C671   C     0.45336   0.40638   0.76539   0.00000  Uiso   1.00
C672   C     0.49999   0.11677   0.75025   0.00000  Uiso   1.00
C673   C     0.49420   0.38305   0.74820   0.00000  Uiso   1.00
C674   C     0.45550   0.09573   0.73106   0.00000  Uiso   1.00
C675   C     0.53237   0.40603   0.72839   0.00000  Uiso   1.00
C676   C     0.45346   0.04974   0.73028   0.00000  Uiso   1.00
C677   C     0.53200   0.45196   0.72758   0.00000  Uiso   1.00
C678   C     0.49590   0.02424   0.74891   0.00000  Uiso   1.00
C679   C     0.49390   0.47565   0.74741   0.00000  Uiso   1.00
C680   C     0.65995   0.28247   0.68670   0.00000  Uiso   1.00
C681   C     0.52414   0.28485   0.55585   0.00000  Uiso   1.00
C682   C     0.64791   0.25175   0.64336   0.00000  Uiso   1.00
C683   C     0.34061   0.21763   0.81422   0.00000  Uiso   1.00
C684   C     0.35076   0.24849   0.85757   0.00000  Uiso   1.00
C685   C     0.59325   0.11310   0.78572   0.00000  Uiso   1.00
C686   C     0.62201   0.12454   0.74283   0.00000  Uiso   1.00
C687   C     0.40767   0.38308   0.78146   0.00000  Uiso   1.00
C688   C     0.35987   0.39217   0.74613   0.00000  Uiso   1.00
C689   C     0.54725   0.32478   0.53304   0.00000  Uiso   1.00
C690   C     0.59444   0.31361   0.50865   0.00000  Uiso   1.00
C691   C     0.55700   0.17924   0.97830   0.00000  Uiso   1.00
C692   C     0.52712   0.21600   0.94960   0.00000  Uiso   1.00
C693   C     0.60656   0.19588   0.50517   0.00000  Uiso   1.00
C694   C     0.52393   0.28310   0.60714   0.00000  Uiso   1.00
C695   C     0.52680   0.21791   0.89832   0.00000  Uiso   1.00
C696   C     0.47466   0.21828   0.60161   0.00000  Uiso   1.00
C697   C     0.47388   0.28166   0.89273   0.00000  Uiso   1.00
C698   C     0.47467   0.21787   0.55093   0.00000  Uiso   1.00
Cu699  Cu    0.50000   0.24999   0.79821   0.00000  Uiso   1.00
Cu700  Cu    0.50000   0.25000   0.70178   0.00000  Uiso   1.00
F701   F     0.58169   0.02031   0.78661   0.00000  Uiso   1.00
F702   F     0.41827   0.47600   0.78632   0.00000  Uiso   1.00
F703   F     0.54771   0.31512   0.63481   0.00000  Uiso   1.00
F704   F     0.55477   0.18813   0.87627   0.00000  Uiso   1.00
F705   F     0.44823   0.18691   0.62268   0.00000  Uiso   1.00
F706   F     0.44919   0.31477   0.86616   0.00000  Uiso   1.00
H707   H     0.42231   0.11503   0.71666   0.00000  Uiso   1.00
H708   H     0.62730   0.30407   0.69258   0.00000  Uiso   1.00
H709   H     0.35533   0.30653   0.67720   0.00000  Uiso   1.00
H710   H     0.36815   0.27960   0.84670   0.00000  Uiso   1.00
H711   H     0.64810   0.25720   0.87209   0.00000  Uiso   1.00
H712   H     0.37638   0.23175   0.88693   0.00000  Uiso   1.00
H713   H     0.64617   0.19300   0.82369   0.00000  Uiso   1.00
H714   H     0.37430   0.19684   0.80940   0.00000  Uiso   1.00
H715   H     0.60095   0.15009   0.71910   0.00000  Uiso   1.00
H716   H     0.65991   0.13759   0.75629   0.00000  Uiso   1.00
H717   H     0.62750   0.09444   0.72116   0.00000  Uiso   1.00
H718   H     0.56297   0.38828   0.71406   0.00000  Uiso   1.00
H719   H     0.58636   0.14323   0.80642   0.00000  Uiso   1.00
H720   H     0.61755   0.09093   0.81117   0.00000  Uiso   1.00
H721   H     0.34843   0.42765   0.74642   0.00000  Uiso   1.00
H722   H     0.36648   0.38299   0.70868   0.00000  Uiso   1.00
H723   H     0.66155   0.37206   0.75691   0.00000  Uiso   1.00
H724   H     0.41303   0.34668   0.78362   0.00000  Uiso   1.00
H725   H     0.40145   0.39434   0.81836   0.00000  Uiso   1.00
H726   H     0.62359   0.29650   0.53430   0.00000  Uiso   1.00
H727   H     0.58517   0.29284   0.97620   0.00000  Uiso   1.00
H728   H     0.61098   0.34480   0.99644   0.00000  Uiso   1.00
H729   H     0.41891   0.03402   0.71470   0.00000  Uiso   1.00
H730   H     0.51848   0.34109   0.50621   0.00000  Uiso   1.00
H731   H     0.55819   0.35040   0.56067   0.00000  Uiso   1.00
H732   H     0.62952   0.16728   0.52136   0.00000  Uiso   1.00
H733   H     0.62883   0.21360   0.97972   0.00000  Uiso   1.00
H734   H     0.59902   0.21822   0.53506   0.00000  Uiso   1.00
H735   H     0.53390   0.16373   0.50444   0.00000  Uiso   1.00
H736   H     0.56641   0.15213   0.95393   0.00000  Uiso   1.00
H737   H     0.56191   0.46909   0.71200   0.00000  Uiso   1.00
H738   H     0.45427   0.19216   0.53007   0.00000  Uiso   1.00
H739   H     0.45072   0.30627   0.95926   0.00000  Uiso   1.00
H740   H     0.63084   0.27146   0.61170   0.00000  Uiso   1.00
H741   H     0.34970   0.23562   0.63360   0.00000  Uiso   1.00
H742   H     0.62107   0.22548   0.65109   0.00000  Uiso   1.00
N743   N     0.50000   0.25001   0.62935   0.00000  Uiso   1.00
N744   N     0.50000   0.24999   0.87065   0.00000  Uiso   1.00
O745   O     0.50000   0.18572   0.79071   0.00000  Uiso   1.00
O746   O     0.50000   0.31427   0.70928   0.00000  Uiso   1.00
O747   O     0.50000   0.18573   0.70928   0.00000  Uiso   1.00
O748   O     0.50000   0.31427   0.79072   0.00000  Uiso   1.00
O749   O     0.42495   0.24999   0.78132   0.00000  Uiso   1.00
O750   O     0.57505   0.25000   0.71868   0.00000  Uiso   1.00
O751   O     0.42495   0.25000   0.69988   0.00000  Uiso   1.00
O752   O     0.57505   0.25000   0.80011   0.00000  Uiso   1.00
C753   C     0.83359   0.16502   0.75016   0.00000  Uiso   1.00
C754   C     0.80597   0.28108   0.94319   0.00000  Uiso   1.00
C755   C     0.83334   0.25058   0.52715   0.00000  Uiso   1.00
C756   C     0.83305   0.24874   0.97272   0.00000  Uiso   1.00
C757   C     0.73494   0.25005   0.73810   0.00000  Uiso   1.00
C758   C     0.93178   0.24954   0.76199   0.00000  Uiso   1.00
C759   C     0.68071   0.25624   0.73226   0.00000  Uiso   1.00
C760   C     0.98611   0.24320   0.76809   0.00000  Uiso   1.00
C761   C     0.87403   0.04515   0.76816   0.00000  Uiso   1.00
C762   C     0.78794   0.45291   0.76617   0.00000  Uiso   1.00
C763   C     0.87673   0.09151   0.76844   0.00000  Uiso   1.00
C764   C     0.83115   0.33491   0.74950   0.00000  Uiso   1.00
C765   C     0.78669   0.40638   0.76539   0.00000  Uiso   1.00
C766   C     0.83332   0.11677   0.75025   0.00000  Uiso   1.00
C767   C     0.82753   0.38305   0.74820   0.00000  Uiso   1.00
C768   C     0.78884   0.09573   0.73106   0.00000  Uiso   1.00
C769   C     0.86571   0.40603   0.72839   0.00000  Uiso   1.00
C770   C     0.78680   0.04974   0.73028   0.00000  Uiso   1.00
C771   C     0.86533   0.45196   0.72758   0.00000  Uiso   1.00
C772   C     0.82923   0.02424   0.74891   0.00000  Uiso   1.00
C773   C     0.82724   0.47565   0.74741   0.00000  Uiso   1.00
C774   C     0.99328   0.28247   0.68670   0.00000  Uiso   1.00
C775   C     0.85748   0.28485   0.55585   0.00000  Uiso   1.00
C776   C     0.98125   0.25175   0.64336   0.00000  Uiso   1.00
C777   C     0.67395   0.21763   0.81422   0.00000  Uiso   1.00
C778   C     0.68409   0.24849   0.85757   0.00000  Uiso   1.00
C779   C     0.92659   0.11310   0.78572   0.00000  Uiso   1.00
C780   C     0.95534   0.12454   0.74283   0.00000  Uiso   1.00
C781   C     0.74101   0.38308   0.78146   0.00000  Uiso   1.00
C782   C     0.69321   0.39217   0.74613   0.00000  Uiso   1.00
C783   C     0.88058   0.32478   0.53304   0.00000  Uiso   1.00
C784   C     0.92777   0.31361   0.50865   0.00000  Uiso   1.00
C785   C     0.89033   0.17924   0.97830   0.00000  Uiso   1.00
C786   C     0.86045   0.21600   0.94960   0.00000  Uiso   1.00
C787   C     0.93990   0.19588   0.50517   0.00000  Uiso   1.00
C788   C     0.85726   0.28310   0.60714   0.00000  Uiso   1.00
C789   C     0.86013   0.21791   0.89832   0.00000  Uiso   1.00
C790   C     0.80799   0.21828   0.60161   0.00000  Uiso   1.00
C791   C     0.80722   0.28166   0.89273   0.00000  Uiso   1.00
C792   C     0.80800   0.21787   0.55093   0.00000  Uiso   1.00
Cu793  Cu    0.83333   0.24999   0.79821   0.00000  Uiso   1.00
Cu794  Cu    0.83333   0.25000   0.70178   0.00000  Uiso   1.00
F795   F     0.91502   0.02031   0.78661   0.00000  Uiso   1.00
F796   F     0.75160   0.47600   0.78632   0.00000  Uiso   1.00
F797   F     0.88104   0.31512   0.63481   0.00000  Uiso   1.00
F798   F     0.88810   0.18813   0.87627   0.00000  Uiso   1.00
F799   F     0.78156   0.18691   0.62268   0.00000  Uiso   1.00
F800   F     0.78252   0.31477   0.86616   0.00000  Uiso   1.00
H801   H     0.75565   0.11503   0.71666   0.00000  Uiso   1.00
H802   H     0.96063   0.30407   0.69258   0.00000  Uiso   1.00
H803   H     0.68866   0.30653   0.67720   0.00000  Uiso   1.00
H804   H     0.70148   0.27960   0.84670   0.00000  Uiso   1.00
H805   H     0.98143   0.25720   0.87209   0.00000  Uiso   1.00
H806   H     0.70972   0.23175   0.88693   0.00000  Uiso   1.00
H807   H     0.97950   0.19300   0.82369   0.00000  Uiso   1.00
H808   H     0.70763   0.19684   0.80940   0.00000  Uiso   1.00
H809   H     0.93429   0.15009   0.71910   0.00000  Uiso   1.00
H810   H     0.99324   0.13759   0.75629   0.00000  Uiso   1.00
H811   H     0.96083   0.09444   0.72116   0.00000  Uiso   1.00
H812   H     0.89630   0.38828   0.71406   0.00000  Uiso   1.00
H813   H     0.91969   0.14323   0.80642   0.00000  Uiso   1.00
H814   H     0.95089   0.09093   0.81117   0.00000  Uiso   1.00
H815   H     0.68177   0.42765   0.74642   0.00000  Uiso   1.00
H816   H     0.69981   0.38299   0.70868   0.00000  Uiso   1.00
H817   H     0.99488   0.37206   0.75691   0.00000  Uiso   1.00
H818   H     0.74636   0.34668   0.78362   0.00000  Uiso   1.00
H819   H     0.73479   0.39434   0.81836   0.00000  Uiso   1.00
H820   H     0.95692   0.29650   0.53430   0.00000  Uiso   1.00
H821   H     0.91851   0.29284   0.97620   0.00000  Uiso   1.00
H822   H     0.94431   0.34480   0.99644   0.00000  Uiso   1.00
H823   H     0.75225   0.03402   0.71470   0.00000  Uiso   1.00
H824   H     0.85181   0.34109   0.50621   0.00000  Uiso   1.00
H825   H     0.89153   0.35040   0.56067   0.00000  Uiso   1.00
H826   H     0.96285   0.16728   0.52136   0.00000  Uiso   1.00
H827   H     0.96216   0.21360   0.97972   0.00000  Uiso   1.00
H828   H     0.93235   0.21822   0.53506   0.00000  Uiso   1.00
H829   H     0.86723   0.16373   0.50444   0.00000  Uiso   1.00
H830   H     0.89975   0.15213   0.95393   0.00000  Uiso   1.00
H831   H     0.89525   0.46909   0.71200   0.00000  Uiso   1.00
H832   H     0.78760   0.19216   0.53007   0.00000  Uiso   1.00
H833   H     0.78405   0.30627   0.95926   0.00000  Uiso   1.00
H834   H     0.96418   0.27146   0.61170   0.00000  Uiso   1.00
H835   H     0.68303   0.23562   0.63360   0.00000  Uiso   1.00
H836   H     0.95441   0.22548   0.65109   0.00000  Uiso   1.00
N837   N     0.83333   0.25001   0.62935   0.00000  Uiso   1.00
N838   N     0.83333   0.24999   0.87065   0.00000  Uiso   1.00
O839   O     0.83334   0.18572   0.79071   0.00000  Uiso   1.00
O840   O     0.83333   0.31427   0.70928   0.00000  Uiso   1.00
O841   O     0.83334   0.18573   0.70928   0.00000  Uiso   1.00
O842   O     0.83333   0.31427   0.79072   0.00000  Uiso   1.00
O843   O     0.75828   0.24999   0.78132   0.00000  Uiso   1.00
O844   O     0.90839   0.25000   0.71868   0.00000  Uiso   1.00
O845   O     0.75828   0.25000   0.69988   0.00000  Uiso   1.00
O846   O     0.90839   0.25000   0.80011   0.00000  Uiso   1.00
C847   C     0.16693   0.66502   0.75016   0.00000  Uiso   1.00
C848   C     0.13930   0.78108   0.94319   0.00000  Uiso   1.00
C849   C     0.16667   0.75058   0.52715   0.00000  Uiso   1.00
C850   C     0.16639   0.74874   0.97272   0.00000  Uiso   1.00
C851   C     0.06828   0.75005   0.73810   0.00000  Uiso   1.00
C852   C     0.26511   0.74954   0.76199   0.00000  Uiso   1.00
C853   C     0.01404   0.75624   0.73226   0.00000  Uiso   1.00
C854   C     0.31945   0.74320   0.76809   0.00000  Uiso   1.00
C855   C     0.20736   0.54515   0.76816   0.00000  Uiso   1.00
C856   C     0.12127   0.95291   0.76617   0.00000  Uiso   1.00
C857   C     0.21006   0.59151   0.76844   0.00000  Uiso   1.00
C858   C     0.16449   0.83491   0.74950   0.00000  Uiso   1.00
C859   C     0.12003   0.90638   0.76539   0.00000  Uiso   1.00
C860   C     0.16666   0.61677   0.75025   0.00000  Uiso   1.00
C861   C     0.16086   0.88305   0.74820   0.00000  Uiso   1.00
C862   C     0.12217   0.59573   0.73106   0.00000  Uiso   1.00
C863   C     0.19904   0.90603   0.72839   0.00000  Uiso   1.00
C864   C     0.12013   0.54974   0.73028   0.00000  Uiso   1.00
C865   C     0.19866   0.95196   0.72758   0.00000  Uiso   1.00
C866   C     0.16256   0.52424   0.74891   0.00000  Uiso   1.00
C867   C     0.16057   0.97565   0.74741   0.00000  Uiso   1.00
C868   C     0.32662   0.78247   0.68670   0.00000  Uiso   1.00
C869   C     0.19081   0.78485   0.55585   0.00000  Uiso   1.00
C870   C     0.31458   0.75175   0.64336   0.00000  Uiso   1.00
C871   C     0.00728   0.71763   0.81422   0.00000  Uiso   1.00
C872   C     0.01742   0.74849   0.85757   0.00000  Uiso   1.00
C873   C     0.25992   0.61310   0.78572   0.00000  Uiso   1.00
C874   C     0.28868   0.62454   0.74283   0.00000  Uiso   1.00
C875   C     0.07434   0.88308   0.78146   0.00000  Uiso   1.00
C876   C     0.02654   0.89217   0.74613   0.00000  Uiso   1.00
C877   C     0.21392   0.82478   0.53304   0.00000  Uiso   1.00
C878   C     0.26111   0.81361   0.50865   0.00000  Uiso   1.00
C879   C     0.22366   0.67924   0.97830   0.00000  Uiso   1.00
C880   C     0.19378   0.71600   0.94960   0.00000  Uiso   1.00
C881   C     0.27323   0.69588   0.50517   0.00000  Uiso   1.00
C882   C     0.19059   0.78310   0.60714   0.00000  Uiso   1.00
C883   C     0.19347   0.71791   0.89832   0.00000  Uiso   1.00
C884   C     0.14133   0.71828   0.60161   0.00000  Uiso   1.00
C885   C     0.14055   0.78166   0.89273   0.00000  Uiso   1.00
C886   C     0.14134   0.71787   0.55093   0.00000  Uiso   1.00
Cu887  Cu    0.16667   0.74999   0.79821   0.00000  Uiso   1.00
Cu888  Cu    0.16667   0.75000   0.70178   0.00000  Uiso   1.00
F889   F     0.24835   0.52031   0.78661   0.00000  Uiso   1.00
F890   F     0.08494   0.97600   0.78632   0.00000  Uiso   1.00
F891   F     0.21438   0.81512   0.63481   0.00000  Uiso   1.00
F892   F     0.22143   0.68813   0.87627   0.00000  Uiso   1.00
F893   F     0.11489   0.68691   0.62268   0.00000  Uiso   1.00
F894   F     0.11585   0.81477   0.86616   0.00000  Uiso   1.00
H895   H     0.08898   0.61503   0.71666   0.00000  Uiso   1.00
H896   H     0.29396   0.80407   0.69258   0.00000  Uiso   1.00
H897   H     0.02200   0.80653   0.67720   0.00000  Uiso   1.00
H898   H     0.03482   0.77960   0.84670   0.00000  Uiso   1.00
H899   H     0.31476   0.75720   0.87209   0.00000  Uiso   1.00
H900   H     0.04305   0.73175   0.88693   0.00000  Uiso   1.00
H901   H     0.31283   0.69300   0.82369   0.00000  Uiso   1.00
H902   H     0.04096   0.69684   0.80940   0.00000  Uiso   1.00
H903   H     0.26762   0.65009   0.71910   0.00000  Uiso   1.00
H904   H     0.32658   0.63759   0.75629   0.00000  Uiso   1.00
H905   H     0.29417   0.59444   0.72116   0.00000  Uiso   1.00
H906   H     0.22964   0.88828   0.71406   0.00000  Uiso   1.00
H907   H     0.25302   0.64323   0.80642   0.00000  Uiso   1.00
H908   H     0.28422   0.59093   0.81117   0.00000  Uiso   1.00
H909   H     0.01510   0.92765   0.74642   0.00000  Uiso   1.00
H910   H     0.03314   0.88299   0.70868   0.00000  Uiso   1.00
H911   H     0.32822   0.87206   0.75691   0.00000  Uiso   1.00
H912   H     0.07970   0.84668   0.78362   0.00000  Uiso   1.00
H913   H     0.06812   0.89434   0.81836   0.00000  Uiso   1.00
H914   H     0.29025   0.79650   0.53430   0.00000  Uiso   1.00
H915   H     0.25184   0.79284   0.97620   0.00000  Uiso   1.00
H916   H     0.27765   0.84480   0.99644   0.00000  Uiso   1.00
H917   H     0.08558   0.53402   0.71470   0.00000  Uiso   1.00
H918   H     0.18515   0.84109   0.50621   0.00000  Uiso   1.00
H919   H     0.22486   0.85040   0.56067   0.00000  Uiso   1.00
H920   H     0.29618   0.66728   0.52136   0.00000  Uiso   1.00
H921   H     0.29549   0.71360   0.97972   0.00000  Uiso   1.00
H922   H     0.26568   0.71822   0.53506   0.00000  Uiso   1.00
H923   H     0.20056   0.66373   0.50444   0.00000  Uiso   1.00
H924   H     0.23308   0.65213   0.95393   0.00000  Uiso   1.00
H925   H     0.22858   0.96909   0.71200   0.00000  Uiso   1.00
H926   H     0.12093   0.69216   0.53007   0.00000  Uiso   1.00
H927   H     0.11738   0.80627   0.95926   0.00000  Uiso   1.00
H928   H     0.29751   0.77146   0.61170   0.00000  Uiso   1.00
H929   H     0.01636   0.73562   0.63360   0.00000  Uiso   1.00
H930   H     0.28774   0.72548   0.65109   0.00000  Uiso   1.00
N931   N     0.16667   0.75001   0.62935   0.00000  Uiso   1.00
N932   N     0.16667   0.74999   0.87065   0.00000  Uiso   1.00
O933   O     0.16667   0.68572   0.79071   0.00000  Uiso   1.00
O934   O     0.16666   0.81427   0.70928   0.00000  Uiso   1.00
O935   O     0.16667   0.68573   0.70928   0.00000  Uiso   1.00
O936   O     0.16666   0.81427   0.79072   0.00000  Uiso   1.00
O937   O     0.09161   0.74999   0.78132   0.00000  Uiso   1.00
O938   O     0.24172   0.75000   0.71868   0.00000  Uiso   1.00
O939   O     0.09161   0.75000   0.69988   0.00000  Uiso   1.00
O940   O     0.24172   0.75000   0.80011   0.00000  Uiso   1.00
C941   C     0.50026   0.66502   0.75016   0.00000  Uiso   1.00
C942   C     0.47264   0.78108   0.94319   0.00000  Uiso   1.00
C943   C     0.50001   0.75058   0.52715   0.00000  Uiso   1.00
C944   C     0.49972   0.74874   0.97272   0.00000  Uiso   1.00
C945   C     0.40161   0.75005   0.73810   0.00000  Uiso   1.00
C946   C     0.59844   0.74954   0.76199   0.00000  Uiso   1.00
C947   C     0.34738   0.75624   0.73226   0.00000  Uiso   1.00
C948   C     0.65278   0.74320   0.76809   0.00000  Uiso   1.00
C949   C     0.54069   0.54515   0.76816   0.00000  Uiso   1.00
C950   C     0.45460   0.95291   0.76617   0.00000  Uiso   1.00
C951   C     0.54339   0.59151   0.76844   0.00000  Uiso   1.00
C952   C     0.49782   0.83491   0.74950   0.00000  Uiso   1.00
C953   C     0.45336   0.90638   0.76539   0.00000  Uiso   1.00
C954   C     0.49999   0.61677   0.75025   0.00000  Uiso   1.00
C955   C     0.49420   0.88305   0.74820   0.00000  Uiso   1.00
C956   C     0.45550   0.59573   0.73106   0.00000  Uiso   1.00
C957   C     0.53237   0.90603   0.72839   0.00000  Uiso   1.00
C958   C     0.45346   0.54974   0.73028   0.00000  Uiso   1.00
C959   C     0.53200   0.95196   0.72758   0.00000  Uiso   1.00
C960   C     0.49590   0.52424   0.74891   0.00000  Uiso   1.00
C961   C     0.49390   0.97565   0.74741   0.00000  Uiso   1.00
C962   C     0.65995   0.78247   0.68670   0.00000  Uiso   1.00
C963   C     0.52414   0.78485   0.55585   0.00000  Uiso   1.00
C964   C     0.64791   0.75175   0.64336   0.00000  Uiso   1.00
C965   C     0.34061   0.71763   0.81422   0.00000  Uiso   1.00
C966   C     0.35076   0.74849   0.85757   0.00000  Uiso   1.00
C967   C     0.59325   0.61310   0.78572   0.00000  Uiso   1.00
C968   C     0.62201   0.62454   0.74283   0.00000  Uiso   1.00
C969   C     0.40767   0.88308   0.78146   0.00000  Uiso   1.00
C970   C     0.35987   0.89217   0.74613   0.00000  Uiso   1.00
C971   C     0.54725   0.82478   0.53304   0.00000  Uiso   1.00
C972   C     0.59444   0.81361   0.50865   0.00000  Uiso   1.00
C973   C     0.55700   0.67924   0.97830   0.00000  Uiso   1.00
C974   C     0.52712   0.71600   0.94960   0.00000  Uiso   1.00
C975   C     0.60656   0.69588   0.50517   0.00000  Uiso   1.00
C976   C     0.52393   0.78310   0.60714   0.00000  Uiso   1.00
C977   C     0.52680   0.71791   0.89832   0.00000  Uiso   1.00
C978   C     0.47466   0.71828   0.60161   0.00000  Uiso   1.00
C979   C     0.47388   0.78166   0.89273   0.00000  Uiso   1.00
C980   C     0.47467   0.71787   0.55093   0.00000  Uiso   1.00
Cu981  Cu    0.50000   0.74999   0.79821   0.00000  Uiso   1.00
Cu982  Cu    0.50000   0.75000   0.70178   0.00000  Uiso   1.00
F983   F     0.58169   0.52031   0.78661   0.00000  Uiso   1.00
F984   F     0.41827   0.97600   0.78632   0.00000  Uiso   1.00
F985   F     0.54771   0.81512   0.63481   0.00000  Uiso   1.00
F986   F     0.55477   0.68813   0.87627   0.00000  Uiso   1.00
F987   F     0.44823   0.68691   0.62268   0.00000  Uiso   1.00
F988   F     0.44919   0.81477   0.86616   0.00000  Uiso   1.00
H989   H     0.42231   0.61503   0.71666   0.00000  Uiso   1.00
H990   H     0.62730   0.80407   0.69258   0.00000  Uiso   1.00
H991   H     0.35533   0.80653   0.67720   0.00000  Uiso   1.00
H992   H     0.36815   0.77960   0.84670   0.00000  Uiso   1.00
H993   H     0.64810   0.75720   0.87209   0.00000  Uiso   1.00
H994   H     0.37638   0.73175   0.88693   0.00000  Uiso   1.00
H995   H     0.64617   0.69300   0.82369   0.00000  Uiso   1.00
H996   H     0.37430   0.69684   0.80940   0.00000  Uiso   1.00
H997   H     0.60095   0.65009   0.71910   0.00000  Uiso   1.00
H998   H     0.65991   0.63759   0.75629   0.00000  Uiso   1.00
H999   H     0.62750   0.59444   0.72116   0.00000  Uiso   1.00
H1000  H     0.56297   0.88828   0.71406   0.00000  Uiso   1.00
H1001  H     0.58636   0.64323   0.80642   0.00000  Uiso   1.00
H1002  H     0.61755   0.59093   0.81117   0.00000  Uiso   1.00
H1003  H     0.34843   0.92765   0.74642   0.00000  Uiso   1.00
H1004  H     0.36648   0.88299   0.70868   0.00000  Uiso   1.00
H1005  H     0.66155   0.87206   0.75691   0.00000  Uiso   1.00
H1006  H     0.41303   0.84668   0.78362   0.00000  Uiso   1.00
H1007  H     0.40145   0.89434   0.81836   0.00000  Uiso   1.00
H1008  H     0.62359   0.79650   0.53430   0.00000  Uiso   1.00
H1009  H     0.58517   0.79284   0.97620   0.00000  Uiso   1.00
H1010  H     0.61098   0.84480   0.99644   0.00000  Uiso   1.00
H1011  H     0.41891   0.53402   0.71470   0.00000  Uiso   1.00
H1012  H     0.51848   0.84109   0.50621   0.00000  Uiso   1.00
H1013  H     0.55819   0.85040   0.56067   0.00000  Uiso   1.00
H1014  H     0.62952   0.66728   0.52136   0.00000  Uiso   1.00
H1015  H     0.62883   0.71360   0.97972   0.00000  Uiso   1.00
H1016  H     0.59902   0.71822   0.53506   0.00000  Uiso   1.00
H1017  H     0.53390   0.66373   0.50444   0.00000  Uiso   1.00
H1018  H     0.56641   0.65213   0.95393   0.00000  Uiso   1.00
H1019  H     0.56191   0.96909   0.71200   0.00000  Uiso   1.00
H1020  H     0.45427   0.69216   0.53007   0.00000  Uiso   1.00
H1021  H     0.45072   0.80627   0.95926   0.00000  Uiso   1.00
H1022  H     0.63084   0.77146   0.61170   0.00000  Uiso   1.00
H1023  H     0.34970   0.73562   0.63360   0.00000  Uiso   1.00
H1024  H     0.62107   0.72548   0.65109   0.00000  Uiso   1.00
N1025  N     0.50000   0.75001   0.62935   0.00000  Uiso   1.00
N1026  N     0.50000   0.74999   0.87065   0.00000  Uiso   1.00
O1027  O     0.50000   0.68572   0.79071   0.00000  Uiso   1.00
O1028  O     0.50000   0.81427   0.70928   0.00000  Uiso   1.00
O1029  O     0.50000   0.68573   0.70928   0.00000  Uiso   1.00
O1030  O     0.50000   0.81427   0.79072   0.00000  Uiso   1.00
O1031  O     0.42495   0.74999   0.78132   0.00000  Uiso   1.00
O1032  O     0.57505   0.75000   0.71868   0.00000  Uiso   1.00
O1033  O     0.42495   0.75000   0.69988   0.00000  Uiso   1.00
O1034  O     0.57505   0.75000   0.80011   0.00000  Uiso   1.00
C1035  C     0.83359   0.66502   0.75016   0.00000  Uiso   1.00
C1036  C     0.80597   0.78108   0.94319   0.00000  Uiso   1.00
C1037  C     0.83334   0.75058   0.52715   0.00000  Uiso   1.00
C1038  C     0.83305   0.74874   0.97272   0.00000  Uiso   1.00
C1039  C     0.73494   0.75005   0.73810   0.00000  Uiso   1.00
C1040  C     0.93178   0.74954   0.76199   0.00000  Uiso   1.00
C1041  C     0.68071   0.75624   0.73226   0.00000  Uiso   1.00
C1042  C     0.98611   0.74320   0.76809   0.00000  Uiso   1.00
C1043  C     0.87403   0.54515   0.76816   0.00000  Uiso   1.00
C1044  C     0.78794   0.95291   0.76617   0.00000  Uiso   1.00
C1045  C     0.87673   0.59151   0.76844   0.00000  Uiso   1.00
C1046  C     0.83115   0.83491   0.74950   0.00000  Uiso   1.00
C1047  C     0.78669   0.90638   0.76539   0.00000  Uiso   1.00
C1048  C     0.83332   0.61677   0.75025   0.00000  Uiso   1.00
C1049  C     0.82753   0.88305   0.74820   0.00000  Uiso   1.00
C1050  C     0.78884   0.59573   0.73106   0.00000  Uiso   1.00
C1051  C     0.86571   0.90603   0.72839   0.00000  Uiso   1.00
C1052  C     0.78680   0.54974   0.73028   0.00000  Uiso   1.00
C1053  C     0.86533   0.95196   0.72758   0.00000  Uiso   1.00
C1054  C     0.82923   0.52424   0.74891   0.00000  Uiso   1.00
C1055  C     0.82724   0.97565   0.74741   0.00000  Uiso   1.00
C1056  C     0.99328   0.78247   0.68670   0.00000  Uiso   1.00
C1057  C     0.85748   0.78485   0.55585   0.00000  Uiso   1.00
C1058  C     0.98125   0.75175   0.64336   0.00000  Uiso   1.00
C1059  C     0.67395   0.71763   0.81422   0.00000  Uiso   1.00
C1060  C     0.68409   0.74849   0.85757   0.00000  Uiso   1.00
C1061  C     0.92659   0.61310   0.78572   0.00000  Uiso   1.00
C1062  C     0.95534   0.62454   0.74283   0.00000  Uiso   1.00
C1063  C     0.74101   0.88308   0.78146   0.00000  Uiso   1.00
C1064  C     0.69321   0.89217   0.74613   0.00000  Uiso   1.00
C1065  C     0.88058   0.82478   0.53304   0.00000  Uiso   1.00
C1066  C     0.92777   0.81361   0.50865   0.00000  Uiso   1.00
C1067  C     0.89033   0.67924   0.97830   0.00000  Uiso   1.00
C1068  C     0.86045   0.71600   0.94960   0.00000  Uiso   1.00
C1069  C     0.93990   0.69588   0.50517   0.00000  Uiso   1.00
C1070  C     0.85726   0.78310   0.60714   0.00000  Uiso   1.00
C1071  C     0.86013   0.71791   0.89832   0.00000  Uiso   1.00
C1072  C     0.80799   0.71828   0.60161   0.00000  Uiso   1.00
C1073  C     0.80722   0.78166   0.89273   0.00000  Uiso   1.00
C1074  C     0.80800   0.71787   0.55093   0.00000  Uiso   1.00
Cu1075 Cu    0.83333   0.74999   0.79821   0.00000  Uiso   1.00
Cu1076 Cu    0.83333   0.75000   0.70178   0.00000  Uiso   1.00
F1077  F     0.91502   0.52031   0.78661   0.00000  Uiso   1.00
F1078  F     0.75160   0.97600   0.78632   0.00000  Uiso   1.00
F1079  F     0.88104   0.81512   0.63481   0.00000  Uiso   1.00
F1080  F     0.88810   0.68813   0.87627   0.00000  Uiso   1.00
F1081  F     0.78156   0.68691   0.62268   0.00000  Uiso   1.00
F1082  F     0.78252   0.81477   0.86616   0.00000  Uiso   1.00
H1083  H     0.75565   0.61503   0.71666   0.00000  Uiso   1.00
H1084  H     0.96063   0.80407   0.69258   0.00000  Uiso   1.00
H1085  H     0.68866   0.80653   0.67720   0.00000  Uiso   1.00
H1086  H     0.70148   0.77960   0.84670   0.00000  Uiso   1.00
H1087  H     0.98143   0.75720   0.87209   0.00000  Uiso   1.00
H1088  H     0.70972   0.73175   0.88693   0.00000  Uiso   1.00
H1089  H     0.97950   0.69300   0.82369   0.00000  Uiso   1.00
H1090  H     0.70763   0.69684   0.80940   0.00000  Uiso   1.00
H1091  H     0.93429   0.65009   0.71910   0.00000  Uiso   1.00
H1092  H     0.99324   0.63759   0.75629   0.00000  Uiso   1.00
H1093  H     0.96083   0.59444   0.72116   0.00000  Uiso   1.00
H1094  H     0.89630   0.88828   0.71406   0.00000  Uiso   1.00
H1095  H     0.91969   0.64323   0.80642   0.00000  Uiso   1.00
H1096  H     0.95089   0.59093   0.81117   0.00000  Uiso   1.00
H1097  H     0.68177   0.92765   0.74642   0.00000  Uiso   1.00
H1098  H     0.69981   0.88299   0.70868   0.00000  Uiso   1.00
H1099  H     0.99488   0.87206   0.75691   0.00000  Uiso   1.00
H1100  H     0.74636   0.84668   0.78362   0.00000  Uiso   1.00
H1101  H     0.73479   0.89434   0.81836   0.00000  Uiso   1.00
H1102  H     0.95692   0.79650   0.53430   0.00000  Uiso   1.00
H1103  H     0.91851   0.79284   0.97620   0.00000  Uiso   1.00
H1104  H     0.94431   0.84480   0.99644   0.00000  Uiso   1.00
H1105  H     0.75225   0.53402   0.71470   0.00000  Uiso   1.00
H1106  H     0.85181   0.84109   0.50621   0.00000  Uiso   1.00
H1107  H     0.89153   0.85040   0.56067   0.00000  Uiso   1.00
H1108  H     0.96285   0.66728   0.52136   0.00000  Uiso   1.00
H1109  H     0.96216   0.71360   0.97972   0.00000  Uiso   1.00
H1110  H     0.93235   0.71822   0.53506   0.00000  Uiso   1.00
H1111  H     0.86723   0.66373   0.50444   0.00000  Uiso   1.00
H1112  H     0.89975   0.65213   0.95393   0.00000  Uiso   1.00
H1113  H     0.89525   0.96909   0.71200   0.00000  Uiso   1.00
H1114  H     0.78760   0.69216   0.53007   0.00000  Uiso   1.00
H1115  H     0.78405   0.80627   0.95926   0.00000  Uiso   1.00
H1116  H     0.96418   0.77146   0.61170   0.00000  Uiso   1.00
H1117  H     0.68303   0.73562   0.63360   0.00000  Uiso   1.00
H1118  H     0.95441   0.72548   0.65109   0.00000  Uiso   1.00
N1119  N     0.83333   0.75001   0.62935   0.00000  Uiso   1.00
N1120  N     0.83333   0.74999   0.87065   0.00000  Uiso   1.00
O1121  O     0.83334   0.68572   0.79071   0.00000  Uiso   1.00
O1122  O     0.83333   0.81427   0.70928   0.00000  Uiso   1.00
O1123  O     0.83334   0.68573   0.70928   0.00000  Uiso   1.00
O1124  O     0.83333   0.81427   0.79072   0.00000  Uiso   1.00
O1125  O     0.75828   0.74999   0.78132   0.00000  Uiso   1.00
O1126  O     0.90839   0.75000   0.71868   0.00000  Uiso   1.00
O1127  O     0.75828   0.75000   0.69988   0.00000  Uiso   1.00
O1128  O     0.90839   0.75000   0.80011   0.00000  Uiso   1.00
loop_
_geom_bond_atom_site_label_1
_geom_bond_atom_site_label_2
_geom_bond_distance
_geom_bond_site_symmetry_2
_ccdc_geom_bond_type
C1     O87     1.292   .     A
C1     O89     1.289   .     A
C1     C14     1.456   .     S
C2     C39     1.404   .     A
C2     C4      1.403   .     A
C2     H81     1.083   .     S
C3     C23     1.422   .     A
C3     C40     1.405   .     A
C3     C568    1.510   1_554 S
C4     C34     1.422   .     A
C4     C567    1.510   .     S
C5     C7      1.440   .     S
C5     O91     1.282   .     A
C5     O93     1.290   .     A
C6     O94     1.289   .     A
C6     C8      1.443   .     S
C6     O92     1.284   .     A
C7     C196    1.367   1_455 S
C7     C210    1.527   1_455 S
C8     C101    1.367   .     S
C8     C119    1.532   .     S
C9     F43     1.360   .     S
C9     C20     1.404   .     A
C9     C11     1.401   .     A
C10    C21     1.404   .     A
C10    F44     1.360   .     S
C10    C13     1.405   .     A
C11    C14     1.413   .     A
C11    C27     1.511   .     S
C12    O88     1.289   .     A
C12    C15     1.454   .     S
C12    O90     1.292   .     A
C13    C29     1.520   .     S
C13    C15     1.418   .     A
C14    C16     1.399   .     A
C15    C17     1.398   .     A
C16    H49     1.084   .     S
C16    C18     1.390   .     A
C17    C19     1.386   .     A
C17    H60     1.084   .     S
C18    H71     1.083   .     S
C18    C20     1.401   .     A
C19    C21     1.400   .     A
C19    H79     1.083   .     S
C20    C303    1.468   1_545 S
C21    C302    1.468   .     S
C22    C24     1.530   .     S
C22    H50     1.107   .     S
C22    C101    1.527   .     S
C22    H145    1.112   .     S
C23    C31     1.525   .     S
C23    C36     1.424   .     A
C24    H82     1.104   .     S
C24    H84     1.109   .     S
C24    H177    1.110   .     S
C25    H56     1.108   .     S
C25    C26     1.527   .     S
C25    C196    1.532   1_455 S
C25    H243    1.106   1_455 S
C26    H54     1.110   .     S
C26    H52     1.107   .     S
C26    H241    1.110   1_455 S
C27    H61     1.104   .     S
C27    H62     1.111   .     S
C27    C28     1.528   .     S
C28    H57     1.110   .     S
C28    H59     1.111   .     S
C28    H58     1.109   .     S
C29    H67     1.111   .     S
C29    C30     1.529   .     S
C29    H66     1.106   .     S
C30    H64     1.110   .     S
C30    H63     1.110   .     S
C30    H253    1.111   1_455 S
C31    H73     1.110   .     S
C31    C32     1.529   .     S
C31    H72     1.108   .     S
C32    H68     1.106   .     S
C32    H633    1.106   1_554 S
C32    H634    1.110   1_554 S
C33    H78     1.111   .     S
C33    C34     1.518   .     S
C33    C599    1.526   .     S
C33    H641    1.108   .     S
C34    C37     1.422   .     A
C35    H74     1.110   .     S
C35    H76     1.108   .     S
C35    C597    1.526   1_554 S
C35    H639    1.111   1_554 S
C36    F45     1.354   .     S
C36    N85     1.371   .     A
C37    N86     1.368   .     A
C37    F46     1.355   .     S
C38    N85     1.366   .     A
C38    F47     1.355   .     S
C38    C40     1.406   .     A
C39    F48     1.351   .     S
C39    N86     1.366   .     A
C40    H80     1.083   .     S
Cu41   Cu42    2.674   .     S
Cu41   N86     2.009   .     S
Cu41   O94     1.988   .     S
Cu41   O90     1.949   .     S
Cu41   O87     1.952   .     S
Cu41   O91     1.993   .     S
Cu42   O93     1.988   .     S
Cu42   O92     1.993   .     S
Cu42   N85     2.009   .     S
Cu42   O88     1.952   .     S
Cu42   O89     1.949   .     S
H51    C210    1.112   1_455 S
H53    C120    1.110   .     S
H55    C119    1.106   .     S
H65    C124    1.111   .     S
H69    C596    1.106   .     S
H70    C596    1.110   .     S
H75    C599    1.111   .     S
H77    C597    1.108   1_554 S
H83    C212    1.110   1_455 S
C95    O181    1.292   .     A
C95    O183    1.289   .     A
C95    C108    1.456   .     S
C96    C133    1.404   .     A
C96    C98     1.403   .     A
C96    H175    1.083   .     S
C97    C117    1.422   .     A
C97    C134    1.405   .     A
C97    C662    1.510   1_554 S
C98    C128    1.422   .     A
C98    C661    1.510   .     S
C99    C101    1.440   .     S
C99    O185    1.282   .     A
C99    O187    1.290   .     A
C100   O188    1.289   .     A
C100   C102    1.443   .     S
C100   O186    1.284   .     A
C102   C195    1.367   .     S
C102   C213    1.532   .     S
C103   F137    1.360   .     S
C103   C114    1.404   .     A
C103   C105    1.401   .     A
C104   C115    1.404   .     A
C104   F138    1.360   .     S
C104   C107    1.405   .     A
C105   C108    1.413   .     A
C105   C121    1.511   .     S
C106   O182    1.289   .     A
C106   C109    1.454   .     S
C106   O184    1.292   .     A
C107   C123    1.520   .     S
C107   C109    1.418   .     A
C108   C110    1.399   .     A
C109   C111    1.398   .     A
C110   H143    1.084   .     S
C110   C112    1.390   .     A
C111   C113    1.386   .     A
C111   H154    1.084   .     S
C112   H165    1.083   .     S
C112   C114    1.401   .     A
C113   C115    1.400   .     A
C113   H173    1.083   .     S
C114   C397    1.468   1_545 S
C115   C396    1.468   .     S
C116   C118    1.530   .     S
C116   H144    1.107   .     S
C116   C195    1.527   .     S
C116   H239    1.112   .     S
C117   C125    1.525   .     S
C117   C130    1.424   .     A
C118   H176    1.104   .     S
C118   H178    1.109   .     S
C118   H271    1.110   .     S
C119   H150    1.108   .     S
C119   C120    1.527   .     S
C120   H148    1.110   .     S
C120   H146    1.107   .     S
C121   H155    1.104   .     S
C121   H156    1.111   .     S
C121   C122    1.528   .     S
C122   H151    1.110   .     S
C122   H153    1.111   .     S
C122   H152    1.109   .     S
C123   H161    1.111   .     S
C123   C124    1.529   .     S
C123   H160    1.106   .     S
C124   H158    1.110   .     S
C124   H157    1.110   .     S
C125   H167    1.110   .     S
C125   C126    1.529   .     S
C125   H166    1.108   .     S
C126   H162    1.106   .     S
C126   H727    1.106   1_554 S
C126   H728    1.110   1_554 S
C127   H172    1.111   .     S
C127   C128    1.518   .     S
C127   C693    1.526   .     S
C127   H735    1.108   .     S
C128   C131    1.422   .     A
C129   H168    1.110   .     S
C129   H170    1.108   .     S
C129   C691    1.526   1_554 S
C129   H733    1.111   1_554 S
C130   F139    1.354   .     S
C130   N179    1.371   .     A
C131   N180    1.368   .     A
C131   F140    1.355   .     S
C132   N179    1.366   .     A
C132   F141    1.355   .     S
C132   C134    1.406   .     A
C133   F142    1.351   .     S
C133   N180    1.366   .     A
C134   H174    1.083   .     S
Cu135  Cu136   2.674   .     S
Cu135  N180    2.009   .     S
Cu135  O188    1.988   .     S
Cu135  O184    1.949   .     S
Cu135  O181    1.952   .     S
Cu135  O185    1.993   .     S
Cu136  O187    1.988   .     S
Cu136  O186    1.993   .     S
Cu136  N179    2.009   .     S
Cu136  O182    1.952   .     S
Cu136  O183    1.949   .     S
H147   C214    1.110   .     S
H149   C213    1.106   .     S
H159   C218    1.111   .     S
H163   C690    1.106   .     S
H164   C690    1.110   .     S
H169   C693    1.111   .     S
H171   C691    1.108   1_554 S
C189   O275    1.292   .     A
C189   O277    1.289   .     A
C189   C202    1.456   .     S
C190   C227    1.404   .     A
C190   C192    1.403   .     A
C190   H269    1.083   .     S
C191   C211    1.422   .     A
C191   C228    1.405   .     A
C191   C756    1.510   1_554 S
C192   C222    1.422   .     A
C192   C755    1.510   .     S
C193   C195    1.440   .     S
C193   O279    1.282   .     A
C193   O281    1.290   .     A
C194   O282    1.289   .     A
C194   C196    1.443   .     S
C194   O280    1.284   .     A
C196   C7      1.367   1_655 S
C196   C25     1.532   1_655 S
C197   F231    1.360   .     S
C197   C208    1.404   .     A
C197   C199    1.401   .     A
C198   C209    1.404   .     A
C198   F232    1.360   .     S
C198   C201    1.405   .     A
C199   C202    1.413   .     A
C199   C215    1.511   .     S
C200   O276    1.289   .     A
C200   C203    1.454   .     S
C200   O278    1.292   .     A
C201   C217    1.520   .     S
C201   C203    1.418   .     A
C202   C204    1.399   .     A
C203   C205    1.398   .     A
C204   H237    1.084   .     S
C204   C206    1.390   .     A
C205   C207    1.386   .     A
C205   H248    1.084   .     S
C206   H259    1.083   .     S
C206   C208    1.401   .     A
C207   C209    1.400   .     A
C207   H267    1.083   .     S
C208   C491    1.468   1_545 S
C209   C490    1.468   .     S
C210   C212    1.530   .     S
C210   H238    1.107   .     S
C210   C7      1.527   1_655 S
C210   H51     1.112   1_655 S
C211   C219    1.525   .     S
C211   C224    1.424   .     A
C212   H270    1.104   .     S
C212   H272    1.109   .     S
C212   H83     1.110   1_655 S
C213   H244    1.108   .     S
C213   C214    1.527   .     S
C214   H242    1.110   .     S
C214   H240    1.107   .     S
C215   H249    1.104   .     S
C215   H250    1.111   .     S
C215   C216    1.528   .     S
C216   H245    1.110   .     S
C216   H247    1.111   .     S
C216   H246    1.109   .     S
C217   H255    1.111   .     S
C217   C218    1.529   .     S
C217   H254    1.106   .     S
C218   H252    1.110   .     S
C218   H251    1.110   .     S
C219   H261    1.110   .     S
C219   C220    1.529   .     S
C219   H260    1.108   .     S
C220   H256    1.106   .     S
C220   H821    1.106   1_554 S
C220   H822    1.110   1_554 S
C221   H266    1.111   .     S
C221   C222    1.518   .     S
C221   C787    1.526   .     S
C221   H829    1.108   .     S
C222   C225    1.422   .     A
C223   H262    1.110   .     S
C223   H264    1.108   .     S
C223   C785    1.526   1_554 S
C223   H827    1.111   1_554 S
C224   F233    1.354   .     S
C224   N273    1.371   .     A
C225   N274    1.368   .     A
C225   F234    1.355   .     S
C226   N273    1.366   .     A
C226   F235    1.355   .     S
C226   C228    1.406   .     A
C227   F236    1.351   .     S
C227   N274    1.366   .     A
C228   H268    1.083   .     S
Cu229  Cu230   2.674   .     S
Cu229  N274    2.009   .     S
Cu229  O282    1.988   .     S
Cu229  O278    1.949   .     S
Cu229  O275    1.952   .     S
Cu229  O279    1.993   .     S
Cu230  O281    1.988   .     S
Cu230  O280    1.993   .     S
Cu230  N273    2.009   .     S
Cu230  O276    1.952   .     S
Cu230  O277    1.949   .     S
H241   C26     1.110   1_655 S
H243   C25     1.106   1_655 S
H253   C30     1.111   1_655 S
H257   C784    1.106   .     S
H258   C784    1.110   .     S
H263   C787    1.111   .     S
H265   C785    1.108   1_554 S
C283   O369    1.292   .     A
C283   O371    1.289   .     A
C283   C296    1.456   .     S
C284   C321    1.404   .     A
C284   C286    1.403   .     A
C284   H363    1.083   .     S
C285   C305    1.422   .     A
C285   C322    1.405   .     A
C285   C850    1.510   1_554 S
C286   C316    1.422   .     A
C286   C849    1.510   .     S
C287   C289    1.440   .     S
C287   O373    1.282   .     A
C287   O375    1.290   .     A
C288   O376    1.289   .     A
C288   C290    1.443   .     S
C288   O374    1.284   .     A
C289   C478    1.367   1_455 S
C289   C492    1.527   1_455 S
C290   C383    1.367   .     S
C290   C401    1.532   .     S
C291   F325    1.360   .     S
C291   C302    1.404   .     A
C291   C293    1.401   .     A
C292   C303    1.404   .     A
C292   F326    1.360   .     S
C292   C295    1.405   .     A
C293   C296    1.413   .     A
C293   C309    1.511   .     S
C294   O370    1.289   .     A
C294   C297    1.454   .     S
C294   O372    1.292   .     A
C295   C311    1.520   .     S
C295   C297    1.418   .     A
C296   C298    1.399   .     A
C297   C299    1.398   .     A
C298   H331    1.084   .     S
C298   C300    1.390   .     A
C299   C301    1.386   .     A
C299   H342    1.084   .     S
C300   H353    1.083   .     S
C300   C302    1.401   .     A
C301   C303    1.400   .     A
C301   H361    1.083   .     S
C303   C20     1.468   1_565 S
C304   C306    1.530   .     S
C304   H332    1.107   .     S
C304   C383    1.527   .     S
C304   H427    1.112   .     S
C305   C313    1.525   .     S
C305   C318    1.424   .     A
C306   H364    1.104   .     S
C306   H366    1.109   .     S
C306   H459    1.110   .     S
C307   H338    1.108   .     S
C307   C308    1.527   .     S
C307   C478    1.532   1_455 S
C307   H525    1.106   1_455 S
C308   H336    1.110   .     S
C308   H334    1.107   .     S
C308   H523    1.110   1_455 S
C309   H343    1.104   .     S
C309   H344    1.111   .     S
C309   C310    1.528   .     S
C310   H339    1.110   .     S
C310   H341    1.111   .     S
C310   H340    1.109   .     S
C311   H349    1.111   .     S
C311   C312    1.529   .     S
C311   H348    1.106   .     S
C312   H346    1.110   .     S
C312   H345    1.110   .     S
C312   H535    1.111   1_455 S
C313   H355    1.110   .     S
C313   C314    1.529   .     S
C313   H354    1.108   .     S
C314   H350    1.106   .     S
C314   H915    1.106   1_554 S
C314   H916    1.110   1_554 S
C315   H360    1.111   .     S
C315   C316    1.518   .     S
C315   C881    1.526   .     S
C315   H923    1.108   .     S
C316   C319    1.422   .     A
C317   H356    1.110   .     S
C317   H358    1.108   .     S
C317   C879    1.526   1_554 S
C317   H921    1.111   1_554 S
C318   F327    1.354   .     S
C318   N367    1.371   .     A
C319   N368    1.368   .     A
C319   F328    1.355   .     S
C320   N367    1.366   .     A
C320   F329    1.355   .     S
C320   C322    1.406   .     A
C321   F330    1.351   .     S
C321   N368    1.366   .     A
C322   H362    1.083   .     S
Cu323  Cu324   2.674   .     S
Cu323  N368    2.009   .     S
Cu323  O376    1.988   .     S
Cu323  O372    1.949   .     S
Cu323  O369    1.952   .     S
Cu323  O373    1.993   .     S
Cu324  O375    1.988   .     S
Cu324  O374    1.993   .     S
Cu324  N367    2.009   .     S
Cu324  O370    1.952   .     S
Cu324  O371    1.949   .     S
H333   C492    1.112   1_455 S
H335   C402    1.110   .     S
H337   C401    1.106   .     S
H347   C406    1.111   .     S
H351   C878    1.106   .     S
H352   C878    1.110   .     S
H357   C881    1.111   .     S
H359   C879    1.108   1_554 S
H365   C494    1.110   1_455 S
C377   O463    1.292   .     A
C377   O465    1.289   .     A
C377   C390    1.456   .     S
C378   C415    1.404   .     A
C378   C380    1.403   .     A
C378   H457    1.083   .     S
C379   C399    1.422   .     A
C379   C416    1.405   .     A
C379   C944    1.510   1_554 S
C380   C410    1.422   .     A
C380   C943    1.510   .     S
C381   C383    1.440   .     S
C381   O467    1.282   .     A
C381   O469    1.290   .     A
C382   O470    1.289   .     A
C382   C384    1.443   .     S
C382   O468    1.284   .     A
C384   C477    1.367   .     S
C384   C495    1.532   .     S
C385   F419    1.360   .     S
C385   C396    1.404   .     A
C385   C387    1.401   .     A
C386   C397    1.404   .     A
C386   F420    1.360   .     S
C386   C389    1.405   .     A
C387   C390    1.413   .     A
C387   C403    1.511   .     S
C388   O464    1.289   .     A
C388   C391    1.454   .     S
C388   O466    1.292   .     A
C389   C405    1.520   .     S
C389   C391    1.418   .     A
C390   C392    1.399   .     A
C391   C393    1.398   .     A
C392   H425    1.084   .     S
C392   C394    1.390   .     A
C393   C395    1.386   .     A
C393   H436    1.084   .     S
C394   H447    1.083   .     S
C394   C396    1.401   .     A
C395   C397    1.400   .     A
C395   H455    1.083   .     S
C397   C114    1.468   1_565 S
C398   C400    1.530   .     S
C398   H426    1.107   .     S
C398   C477    1.527   .     S
C398   H521    1.112   .     S
C399   C407    1.525   .     S
C399   C412    1.424   .     A
C400   H458    1.104   .     S
C400   H460    1.109   .     S
C400   H553    1.110   .     S
C401   H432    1.108   .     S
C401   C402    1.527   .     S
C402   H430    1.110   .     S
C402   H428    1.107   .     S
C403   H437    1.104   .     S
C403   H438    1.111   .     S
C403   C404    1.528   .     S
C404   H433    1.110   .     S
C404   H435    1.111   .     S
C404   H434    1.109   .     S
C405   H443    1.111   .     S
C405   C406    1.529   .     S
C405   H442    1.106   .     S
C406   H440    1.110   .     S
C406   H439    1.110   .     S
C407   H449    1.110   .     S
C407   C408    1.529   .     S
C407   H448    1.108   .     S
C408   H444    1.106   .     S
C408   H1009   1.106   1_554 S
C408   H1010   1.110   1_554 S
C409   H454    1.111   .     S
C409   C410    1.518   .     S
C409   C975    1.526   .     S
C409   H1017   1.108   .     S
C410   C413    1.422   .     A
C411   H450    1.110   .     S
C411   H452    1.108   .     S
C411   C973    1.526   1_554 S
C411   H1015   1.111   1_554 S
C412   F421    1.354   .     S
C412   N461    1.371   .     A
C413   N462    1.368   .     A
C413   F422    1.355   .     S
C414   N461    1.366   .     A
C414   F423    1.355   .     S
C414   C416    1.406   .     A
C415   F424    1.351   .     S
C415   N462    1.366   .     A
C416   H456    1.083   .     S
Cu417  Cu418   2.674   .     S
Cu417  N462    2.009   .     S
Cu417  O470    1.988   .     S
Cu417  O466    1.949   .     S
Cu417  O463    1.952   .     S
Cu417  O467    1.993   .     S
Cu418  O469    1.988   .     S
Cu418  O468    1.993   .     S
Cu418  N461    2.009   .     S
Cu418  O464    1.952   .     S
Cu418  O465    1.949   .     S
H429   C496    1.110   .     S
H431   C495    1.106   .     S
H441   C500    1.111   .     S
H445   C972    1.106   .     S
H446   C972    1.110   .     S
H451   C975    1.111   .     S
H453   C973    1.108   1_554 S
C471   O557    1.292   .     A
C471   O559    1.289   .     A
C471   C484    1.456   .     S
C472   C509    1.404   .     A
C472   C474    1.403   .     A
C472   H551    1.083   .     S
C473   C493    1.422   .     A
C473   C510    1.405   .     A
C473   C1038   1.510   1_554 S
C474   C504    1.422   .     A
C474   C1037   1.510   .     S
C475   C477    1.440   .     S
C475   O561    1.282   .     A
C475   O563    1.290   .     A
C476   O564    1.289   .     A
C476   C478    1.443   .     S
C476   O562    1.284   .     A
C478   C289    1.367   1_655 S
C478   C307    1.532   1_655 S
C479   F513    1.360   .     S
C479   C490    1.404   .     A
C479   C481    1.401   .     A
C480   C491    1.404   .     A
C480   F514    1.360   .     S
C480   C483    1.405   .     A
C481   C484    1.413   .     A
C481   C497    1.511   .     S
C482   O558    1.289   .     A
C482   C485    1.454   .     S
C482   O560    1.292   .     A
C483   C499    1.520   .     S
C483   C485    1.418   .     A
C484   C486    1.399   .     A
C485   C487    1.398   .     A
C486   H519    1.084   .     S
C486   C488    1.390   .     A
C487   C489    1.386   .     A
C487   H530    1.084   .     S
C488   H541    1.083   .     S
C488   C490    1.401   .     A
C489   C491    1.400   .     A
C489   H549    1.083   .     S
C491   C208    1.468   1_565 S
C492   C494    1.530   .     S
C492   H520    1.107   .     S
C492   C289    1.527   1_655 S
C492   H333    1.112   1_655 S
C493   C501    1.525   .     S
C493   C506    1.424   .     A
C494   H552    1.104   .     S
C494   H554    1.109   .     S
C494   H365    1.110   1_655 S
C495   H526    1.108   .     S
C495   C496    1.527   .     S
C496   H524    1.110   .     S
C496   H522    1.107   .     S
C497   H531    1.104   .     S
C497   H532    1.111   .     S
C497   C498    1.528   .     S
C498   H527    1.110   .     S
C498   H529    1.111   .     S
C498   H528    1.109   .     S
C499   H537    1.111   .     S
C499   C500    1.529   .     S
C499   H536    1.106   .     S
C500   H534    1.110   .     S
C500   H533    1.110   .     S
C501   H543    1.110   .     S
C501   C502    1.529   .     S
C501   H542    1.108   .     S
C502   H538    1.106   .     S
C502   H1103   1.106   1_554 S
C502   H1104   1.110   1_554 S
C503   H548    1.111   .     S
C503   C504    1.518   .     S
C503   C1069   1.526   .     S
C503   H1111   1.108   .     S
C504   C507    1.422   .     A
C505   H544    1.110   .     S
C505   H546    1.108   .     S
C505   C1067   1.526   1_554 S
C505   H1109   1.111   1_554 S
C506   F515    1.354   .     S
C506   N555    1.371   .     A
C507   N556    1.368   .     A
C507   F516    1.355   .     S
C508   N555    1.366   .     A
C508   F517    1.355   .     S
C508   C510    1.406   .     A
C509   F518    1.351   .     S
C509   N556    1.366   .     A
C510   H550    1.083   .     S
Cu511  Cu512   2.674   .     S
Cu511  N556    2.009   .     S
Cu511  O564    1.988   .     S
Cu511  O560    1.949   .     S
Cu511  O557    1.952   .     S
Cu511  O561    1.993   .     S
Cu512  O563    1.988   .     S
Cu512  O562    1.993   .     S
Cu512  N555    2.009   .     S
Cu512  O558    1.952   .     S
Cu512  O559    1.949   .     S
H523   C308    1.110   1_655 S
H525   C307    1.106   1_655 S
H535   C312    1.111   1_655 S
H539   C1066   1.106   .     S
H540   C1066   1.110   .     S
H545   C1069   1.111   .     S
H547   C1067   1.108   1_554 S
C565   O651    1.292   .     A
C565   O653    1.289   .     A
C565   C578    1.456   .     S
C566   C603    1.404   .     A
C566   C568    1.403   .     A
C566   H645    1.083   .     S
C567   C587    1.422   .     A
C567   C604    1.405   .     A
C568   C598    1.422   .     A
C568   C3      1.510   1_556 S
C569   C571    1.440   .     S
C569   O655    1.282   .     A
C569   O657    1.290   .     A
C570   O658    1.289   .     A
C570   C572    1.443   .     S
C570   O656    1.284   .     A
C571   C760    1.367   1_455 S
C571   C774    1.527   1_455 S
C572   C665    1.367   .     S
C572   C683    1.532   .     S
C573   F607    1.360   .     S
C573   C584    1.404   .     A
C573   C575    1.401   .     A
C574   C585    1.404   .     A
C574   F608    1.360   .     S
C574   C577    1.405   .     A
C575   C578    1.413   .     A
C575   C591    1.511   .     S
C576   O652    1.289   .     A
C576   C579    1.454   .     S
C576   O654    1.292   .     A
C577   C593    1.520   .     S
C577   C579    1.418   .     A
C578   C580    1.399   .     A
C579   C581    1.398   .     A
C580   H613    1.084   .     S
C580   C582    1.390   .     A
C581   C583    1.386   .     A
C581   H624    1.084   .     S
C582   H635    1.083   .     S
C582   C584    1.401   .     A
C583   C585    1.400   .     A
C583   H643    1.083   .     S
C584   C867    1.468   1_545 S
C585   C866    1.468   .     S
C586   C588    1.530   .     S
C586   H614    1.107   .     S
C586   C665    1.527   .     S
C586   H709    1.112   .     S
C587   C595    1.525   .     S
C587   C600    1.424   .     A
C588   H646    1.104   .     S
C588   H648    1.109   .     S
C588   H741    1.110   .     S
C589   H620    1.108   .     S
C589   C590    1.527   .     S
C589   C760    1.532   1_455 S
C589   H807    1.106   1_455 S
C590   H618    1.110   .     S
C590   H616    1.107   .     S
C590   H805    1.110   1_455 S
C591   H625    1.104   .     S
C591   H626    1.111   .     S
C591   C592    1.528   .     S
C592   H621    1.110   .     S
C592   H623    1.111   .     S
C592   H622    1.109   .     S
C593   H631    1.111   .     S
C593   C594    1.529   .     S
C593   H630    1.106   .     S
C594   H628    1.110   .     S
C594   H627    1.110   .     S
C594   H817    1.111   1_455 S
C595   H637    1.110   .     S
C595   C596    1.529   .     S
C595   H636    1.108   .     S
C596   H632    1.106   .     S
C597   H642    1.111   .     S
C597   C598    1.518   .     S
C597   C35     1.526   1_556 S
C597   H77     1.108   1_556 S
C598   C601    1.422   .     A
C599   H638    1.110   .     S
C599   H640    1.108   .     S
C600   F609    1.354   .     S
C600   N649    1.371   .     A
C601   N650    1.368   .     A
C601   F610    1.355   .     S
C602   N649    1.366   .     A
C602   F611    1.355   .     S
C602   C604    1.406   .     A
C603   F612    1.351   .     S
C603   N650    1.366   .     A
C604   H644    1.083   .     S
Cu605  Cu606   2.674   .     S
Cu605  N650    2.009   .     S
Cu605  O658    1.988   .     S
Cu605  O654    1.949   .     S
Cu605  O651    1.952   .     S
Cu605  O655    1.993   .     S
Cu606  O657    1.988   .     S
Cu606  O656    1.993   .     S
Cu606  N649    2.009   .     S
Cu606  O652    1.952   .     S
Cu606  O653    1.949   .     S
H615   C774    1.112   1_455 S
H617   C684    1.110   .     S
H619   C683    1.106   .     S
H629   C688    1.111   .     S
H633   C32     1.106   1_556 S
H634   C32     1.110   1_556 S
H639   C35     1.111   1_556 S
H647   C776    1.110   1_455 S
C659   O745    1.292   .     A
C659   O747    1.289   .     A
C659   C672    1.456   .     S
C660   C697    1.404   .     A
C660   C662    1.403   .     A
C660   H739    1.083   .     S
C661   C681    1.422   .     A
C661   C698    1.405   .     A
C662   C692    1.422   .     A
C662   C97     1.510   1_556 S
C663   C665    1.440   .     S
C663   O749    1.282   .     A
C663   O751    1.290   .     A
C664   O752    1.289   .     A
C664   C666    1.443   .     S
C664   O750    1.284   .     A
C666   C759    1.367   .     S
C666   C777    1.532   .     S
C667   F701    1.360   .     S
C667   C678    1.404   .     A
C667   C669    1.401   .     A
C668   C679    1.404   .     A
C668   F702    1.360   .     S
C668   C671    1.405   .     A
C669   C672    1.413   .     A
C669   C685    1.511   .     S
C670   O746    1.289   .     A
C670   C673    1.454   .     S
C670   O748    1.292   .     A
C671   C687    1.520   .     S
C671   C673    1.418   .     A
C672   C674    1.399   .     A
C673   C675    1.398   .     A
C674   H707    1.084   .     S
C674   C676    1.390   .     A
C675   C677    1.386   .     A
C675   H718    1.084   .     S
C676   H729    1.083   .     S
C676   C678    1.401   .     A
C677   C679    1.400   .     A
C677   H737    1.083   .     S
C678   C961    1.468   1_545 S
C679   C960    1.468   .     S
C680   C682    1.530   .     S
C680   H708    1.107   .     S
C680   C759    1.527   .     S
C680   H803    1.112   .     S
C681   C689    1.525   .     S
C681   C694    1.424   .     A
C682   H740    1.104   .     S
C682   H742    1.109   .     S
C682   H835    1.110   .     S
C683   H714    1.108   .     S
C683   C684    1.527   .     S
C684   H712    1.110   .     S
C684   H710    1.107   .     S
C685   H719    1.104   .     S
C685   H720    1.111   .     S
C685   C686    1.528   .     S
C686   H715    1.110   .     S
C686   H717    1.111   .     S
C686   H716    1.109   .     S
C687   H725    1.111   .     S
C687   C688    1.529   .     S
C687   H724    1.106   .     S
C688   H722    1.110   .     S
C688   H721    1.110   .     S
C689   H731    1.110   .     S
C689   C690    1.529   .     S
C689   H730    1.108   .     S
C690   H726    1.106   .     S
C691   H736    1.111   .     S
C691   C692    1.518   .     S
C691   C129    1.526   1_556 S
C691   H171    1.108   1_556 S
C692   C695    1.422   .     A
C693   H732    1.110   .     S
C693   H734    1.108   .     S
C694   F703    1.354   .     S
C694   N743    1.371   .     A
C695   N744    1.368   .     A
C695   F704    1.355   .     S
C696   N743    1.366   .     A
C696   F705    1.355   .     S
C696   C698    1.406   .     A
C697   F706    1.351   .     S
C697   N744    1.366   .     A
C698   H738    1.083   .     S
Cu699  Cu700   2.674   .     S
Cu699  N744    2.009   .     S
Cu699  O752    1.988   .     S
Cu699  O748    1.949   .     S
Cu699  O745    1.952   .     S
Cu699  O749    1.993   .     S
Cu700  O751    1.988   .     S
Cu700  O750    1.993   .     S
Cu700  N743    2.009   .     S
Cu700  O746    1.952   .     S
Cu700  O747    1.949   .     S
H711   C778    1.110   .     S
H713   C777    1.106   .     S
H723   C782    1.111   .     S
H727   C126    1.106   1_556 S
H728   C126    1.110   1_556 S
H733   C129    1.111   1_556 S
C753   O839    1.292   .     A
C753   O841    1.289   .     A
C753   C766    1.456   .     S
C754   C791    1.404   .     A
C754   C756    1.403   .     A
C754   H833    1.083   .     S
C755   C775    1.422   .     A
C755   C792    1.405   .     A
C756   C786    1.422   .     A
C756   C191    1.510   1_556 S
C757   C759    1.440   .     S
C757   O843    1.282   .     A
C757   O845    1.290   .     A
C758   O846    1.289   .     A
C758   C760    1.443   .     S
C758   O844    1.284   .     A
C760   C571    1.367   1_655 S
C760   C589    1.532   1_655 S
C761   F795    1.360   .     S
C761   C772    1.404   .     A
C761   C763    1.401   .     A
C762   C773    1.404   .     A
C762   F796    1.360   .     S
C762   C765    1.405   .     A
C763   C766    1.413   .     A
C763   C779    1.511   .     S
C764   O840    1.289   .     A
C764   C767    1.454   .     S
C764   O842    1.292   .     A
C765   C781    1.520   .     S
C765   C767    1.418   .     A
C766   C768    1.399   .     A
C767   C769    1.398   .     A
C768   H801    1.084   .     S
C768   C770    1.390   .     A
C769   C771    1.386   .     A
C769   H812    1.084   .     S
C770   H823    1.083   .     S
C770   C772    1.401   .     A
C771   C773    1.400   .     A
C771   H831    1.083   .     S
C772   C1055   1.468   1_545 S
C773   C1054   1.468   .     S
C774   C776    1.530   .     S
C774   H802    1.107   .     S
C774   C571    1.527   1_655 S
C774   H615    1.112   1_655 S
C775   C783    1.525   .     S
C775   C788    1.424   .     A
C776   H834    1.104   .     S
C776   H836    1.109   .     S
C776   H647    1.110   1_655 S
C777   H808    1.108   .     S
C777   C778    1.527   .     S
C778   H806    1.110   .     S
C778   H804    1.107   .     S
C779   H813    1.104   .     S
C779   H814    1.111   .     S
C779   C780    1.528   .     S
C780   H809    1.110   .     S
C780   H811    1.111   .     S
C780   H810    1.109   .     S
C781   H819    1.111   .     S
C781   C782    1.529   .     S
C781   H818    1.106   .     S
C782   H816    1.110   .     S
C782   H815    1.110   .     S
C783   H825    1.110   .     S
C783   C784    1.529   .     S
C783   H824    1.108   .     S
C784   H820    1.106   .     S
C785   H830    1.111   .     S
C785   C786    1.518   .     S
C785   C223    1.526   1_556 S
C785   H265    1.108   1_556 S
C786   C789    1.422   .     A
C787   H826    1.110   .     S
C787   H828    1.108   .     S
C788   F797    1.354   .     S
C788   N837    1.371   .     A
C789   N838    1.368   .     A
C789   F798    1.355   .     S
C790   N837    1.366   .     A
C790   F799    1.355   .     S
C790   C792    1.406   .     A
C791   F800    1.351   .     S
C791   N838    1.366   .     A
C792   H832    1.083   .     S
Cu793  Cu794   2.674   .     S
Cu793  N838    2.009   .     S
Cu793  O846    1.988   .     S
Cu793  O842    1.949   .     S
Cu793  O839    1.952   .     S
Cu793  O843    1.993   .     S
Cu794  O845    1.988   .     S
Cu794  O844    1.993   .     S
Cu794  N837    2.009   .     S
Cu794  O840    1.952   .     S
Cu794  O841    1.949   .     S
H805   C590    1.110   1_655 S
H807   C589    1.106   1_655 S
H817   C594    1.111   1_655 S
H821   C220    1.106   1_556 S
H822   C220    1.110   1_556 S
H827   C223    1.111   1_556 S
C847   O933    1.292   .     A
C847   O935    1.289   .     A
C847   C860    1.456   .     S
C848   C885    1.404   .     A
C848   C850    1.403   .     A
C848   H927    1.083   .     S
C849   C869    1.422   .     A
C849   C886    1.405   .     A
C850   C880    1.422   .     A
C850   C285    1.510   1_556 S
C851   C853    1.440   .     S
C851   O937    1.282   .     A
C851   O939    1.290   .     A
C852   O940    1.289   .     A
C852   C854    1.443   .     S
C852   O938    1.284   .     A
C853   C1042   1.367   1_455 S
C853   C1056   1.527   1_455 S
C854   C947    1.367   .     S
C854   C965    1.532   .     S
C855   F889    1.360   .     S
C855   C866    1.404   .     A
C855   C857    1.401   .     A
C856   C867    1.404   .     A
C856   F890    1.360   .     S
C856   C859    1.405   .     A
C857   C860    1.413   .     A
C857   C873    1.511   .     S
C858   O934    1.289   .     A
C858   C861    1.454   .     S
C858   O936    1.292   .     A
C859   C875    1.520   .     S
C859   C861    1.418   .     A
C860   C862    1.399   .     A
C861   C863    1.398   .     A
C862   H895    1.084   .     S
C862   C864    1.390   .     A
C863   C865    1.386   .     A
C863   H906    1.084   .     S
C864   H917    1.083   .     S
C864   C866    1.401   .     A
C865   C867    1.400   .     A
C865   H925    1.083   .     S
C867   C584    1.468   1_565 S
C868   C870    1.530   .     S
C868   H896    1.107   .     S
C868   C947    1.527   .     S
C868   H991    1.112   .     S
C869   C877    1.525   .     S
C869   C882    1.424   .     A
C870   H928    1.104   .     S
C870   H930    1.109   .     S
C870   H1023   1.110   .     S
C871   H902    1.108   .     S
C871   C872    1.527   .     S
C871   C1042   1.532   1_455 S
C871   H1089   1.106   1_455 S
C872   H900    1.110   .     S
C872   H898    1.107   .     S
C872   H1087   1.110   1_455 S
C873   H907    1.104   .     S
C873   H908    1.111   .     S
C873   C874    1.528   .     S
C874   H903    1.110   .     S
C874   H905    1.111   .     S
C874   H904    1.109   .     S
C875   H913    1.111   .     S
C875   C876    1.529   .     S
C875   H912    1.106   .     S
C876   H910    1.110   .     S
C876   H909    1.110   .     S
C876   H1099   1.111   1_455 S
C877   H919    1.110   .     S
C877   C878    1.529   .     S
C877   H918    1.108   .     S
C878   H914    1.106   .     S
C879   H924    1.111   .     S
C879   C880    1.518   .     S
C879   C317    1.526   1_556 S
C879   H359    1.108   1_556 S
C880   C883    1.422   .     A
C881   H920    1.110   .     S
C881   H922    1.108   .     S
C882   F891    1.354   .     S
C882   N931    1.371   .     A
C883   N932    1.368   .     A
C883   F892    1.355   .     S
C884   N931    1.366   .     A
C884   F893    1.355   .     S
C884   C886    1.406   .     A
C885   F894    1.351   .     S
C885   N932    1.366   .     A
C886   H926    1.083   .     S
Cu887  Cu888   2.674   .     S
Cu887  N932    2.009   .     S
Cu887  O940    1.988   .     S
Cu887  O936    1.949   .     S
Cu887  O933    1.952   .     S
Cu887  O937    1.993   .     S
Cu888  O939    1.988   .     S
Cu888  O938    1.993   .     S
Cu888  N931    2.009   .     S
Cu888  O934    1.952   .     S
Cu888  O935    1.949   .     S
H897   C1056   1.112   1_455 S
H899   C966    1.110   .     S
H901   C965    1.106   .     S
H911   C970    1.111   .     S
H915   C314    1.106   1_556 S
H916   C314    1.110   1_556 S
H921   C317    1.111   1_556 S
H929   C1058   1.110   1_455 S
C941   O1027   1.292   .     A
C941   O1029   1.289   .     A
C941   C954    1.456   .     S
C942   C979    1.404   .     A
C942   C944    1.403   .     A
C942   H1021   1.083   .     S
C943   C963    1.422   .     A
C943   C980    1.405   .     A
C944   C974    1.422   .     A
C944   C379    1.510   1_556 S
C945   C947    1.440   .     S
C945   O1031   1.282   .     A
C945   O1033   1.290   .     A
C946   O1034   1.289   .     A
C946   C948    1.443   .     S
C946   O1032   1.284   .     A
C948   C1041   1.367   .     S
C948   C1059   1.532   .     S
C949   F983    1.360   .     S
C949   C960    1.404   .     A
C949   C951    1.401   .     A
C950   C961    1.404   .     A
C950   F984    1.360   .     S
C950   C953    1.405   .     A
C951   C954    1.413   .     A
C951   C967    1.511   .     S
C952   O1028   1.289   .     A
C952   C955    1.454   .     S
C952   O1030   1.292   .     A
C953   C969    1.520   .     S
C953   C955    1.418   .     A
C954   C956    1.399   .     A
C955   C957    1.398   .     A
C956   H989    1.084   .     S
C956   C958    1.390   .     A
C957   C959    1.386   .     A
C957   H1000   1.084   .     S
C958   H1011   1.083   .     S
C958   C960    1.401   .     A
C959   C961    1.400   .     A
C959   H1019   1.083   .     S
C961   C678    1.468   1_565 S
C962   C964    1.530   .     S
C962   H990    1.107   .     S
C962   C1041   1.527   .     S
C962   H1085   1.112   .     S
C963   C971    1.525   .     S
C963   C976    1.424   .     A
C964   H1022   1.104   .     S
C964   H1024   1.109   .     S
C964   H1117   1.110   .     S
C965   H996    1.108   .     S
C965   C966    1.527   .     S
C966   H994    1.110   .     S
C966   H992    1.107   .     S
C967   H1001   1.104   .     S
C967   H1002   1.111   .     S
C967   C968    1.528   .     S
C968   H997    1.110   .     S
C968   H999    1.111   .     S
C968   H998    1.109   .     S
C969   H1007   1.111   .     S
C969   C970    1.529   .     S
C969   H1006   1.106   .     S
C970   H1004   1.110   .     S
C970   H1003   1.110   .     S
C971   H1013   1.110   .     S
C971   C972    1.529   .     S
C971   H1012   1.108   .     S
C972   H1008   1.106   .     S
C973   H1018   1.111   .     S
C973   C974    1.518   .     S
C973   C411    1.526   1_556 S
C973   H453    1.108   1_556 S
C974   C977    1.422   .     A
C975   H1014   1.110   .     S
C975   H1016   1.108   .     S
C976   F985    1.354   .     S
C976   N1025   1.371   .     A
C977   N1026   1.368   .     A
C977   F986    1.355   .     S
C978   N1025   1.366   .     A
C978   F987    1.355   .     S
C978   C980    1.406   .     A
C979   F988    1.351   .     S
C979   N1026   1.366   .     A
C980   H1020   1.083   .     S
Cu981  Cu982   2.674   .     S
Cu981  N1026   2.009   .     S
Cu981  O1034   1.988   .     S
Cu981  O1030   1.949   .     S
Cu981  O1027   1.952   .     S
Cu981  O1031   1.993   .     S
Cu982  O1033   1.988   .     S
Cu982  O1032   1.993   .     S
Cu982  N1025   2.009   .     S
Cu982  O1028   1.952   .     S
Cu982  O1029   1.949   .     S
H993   C1060   1.110   .     S
H995   C1059   1.106   .     S
H1005  C1064   1.111   .     S
H1009  C408    1.106   1_556 S
H1010  C408    1.110   1_556 S
H1015  C411    1.111   1_556 S
C1035  O1121   1.292   .     A
C1035  O1123   1.289   .     A
C1035  C1048   1.456   .     S
C1036  C1073   1.404   .     A
C1036  C1038   1.403   .     A
C1036  H1115   1.083   .     S
C1037  C1057   1.422   .     A
C1037  C1074   1.405   .     A
C1038  C1068   1.422   .     A
C1038  C473    1.510   1_556 S
C1039  C1041   1.440   .     S
C1039  O1125   1.282   .     A
C1039  O1127   1.290   .     A
C1040  O1128   1.289   .     A
C1040  C1042   1.443   .     S
C1040  O1126   1.284   .     A
C1042  C853    1.367   1_655 S
C1042  C871    1.532   1_655 S
C1043  F1077   1.360   .     S
C1043  C1054   1.404   .     A
C1043  C1045   1.401   .     A
C1044  C1055   1.404   .     A
C1044  F1078   1.360   .     S
C1044  C1047   1.405   .     A
C1045  C1048   1.413   .     A
C1045  C1061   1.511   .     S
C1046  O1122   1.289   .     A
C1046  C1049   1.454   .     S
C1046  O1124   1.292   .     A
C1047  C1063   1.520   .     S
C1047  C1049   1.418   .     A
C1048  C1050   1.399   .     A
C1049  C1051   1.398   .     A
C1050  H1083   1.084   .     S
C1050  C1052   1.390   .     A
C1051  C1053   1.386   .     A
C1051  H1094   1.084   .     S
C1052  H1105   1.083   .     S
C1052  C1054   1.401   .     A
C1053  C1055   1.400   .     A
C1053  H1113   1.083   .     S
C1055  C772    1.468   1_565 S
C1056  C1058   1.530   .     S
C1056  H1084   1.107   .     S
C1056  C853    1.527   1_655 S
C1056  H897    1.112   1_655 S
C1057  C1065   1.525   .     S
C1057  C1070   1.424   .     A
C1058  H1116   1.104   .     S
C1058  H1118   1.109   .     S
C1058  H929    1.110   1_655 S
C1059  H1090   1.108   .     S
C1059  C1060   1.527   .     S
C1060  H1088   1.110   .     S
C1060  H1086   1.107   .     S
C1061  H1095   1.104   .     S
C1061  H1096   1.111   .     S
C1061  C1062   1.528   .     S
C1062  H1091   1.110   .     S
C1062  H1093   1.111   .     S
C1062  H1092   1.109   .     S
C1063  H1101   1.111   .     S
C1063  C1064   1.529   .     S
C1063  H1100   1.106   .     S
C1064  H1098   1.110   .     S
C1064  H1097   1.110   .     S
C1065  H1107   1.110   .     S
C1065  C1066   1.529   .     S
C1065  H1106   1.108   .     S
C1066  H1102   1.106   .     S
C1067  H1112   1.111   .     S
C1067  C1068   1.518   .     S
C1067  C505    1.526   1_556 S
C1067  H547    1.108   1_556 S
C1068  C1071   1.422   .     A
C1069  H1108   1.110   .     S
C1069  H1110   1.108   .     S
C1070  F1079   1.354   .     S
C1070  N1119   1.371   .     A
C1071  N1120   1.368   .     A
C1071  F1080   1.355   .     S
C1072  N1119   1.366   .     A
C1072  F1081   1.355   .     S
C1072  C1074   1.406   .     A
C1073  F1082   1.351   .     S
C1073  N1120   1.366   .     A
C1074  H1114   1.083   .     S
Cu1075 Cu1076  2.674   .     S
Cu1075 N1120   2.009   .     S
Cu1075 O1128   1.988   .     S
Cu1075 O1124   1.949   .     S
Cu1075 O1121   1.952   .     S
Cu1075 O1125   1.993   .     S
Cu1076 O1127   1.988   .     S
Cu1076 O1126   1.993   .     S
Cu1076 N1119   2.009   .     S
Cu1076 O1122   1.952   .     S
Cu1076 O1123   1.949   .     S
H1087  C872    1.110   1_655 S
H1089  C871    1.106   1_655 S
H1099  C876    1.111   1_655 S
H1103  C502    1.106   1_556 S
H1104  C502    1.110   1_556 S
H1109  C505    1.111   1_556 S
