data_str_m2_o1_o1_pcu_sym.32
_audit_creation_date              2020-01-03
_audit_creation_method            'Materials Studio'
_symmetry_space_group_name_H-M    'P1'
_symmetry_Int_Tables_number       1
_symmetry_cell_setting            triclinic
loop_
_symmetry_equiv_pos_as_xyz
  x,y,z
_cell_length_a                    32.1796
_cell_length_b                    29.9393
_cell_length_c                    28.6838
_cell_angle_alpha                 89.9903
_cell_angle_beta                  90.0842
_cell_angle_gamma                 90.0020
loop_
_atom_site_label
_atom_site_type_symbol
_atom_site_fract_x
_atom_site_fract_y
_atom_site_fract_z
_atom_site_U_iso_or_equiv
_atom_site_adp_type
_atom_site_occupancy
C1     C     0.06083   0.19211   0.16636   0.00000  Uiso   1.00
C2     C     0.49733   0.28944   0.30855   0.00000  Uiso   1.00
C3     C     0.00323   0.28937   0.02478   0.00000  Uiso   1.00
C4     C     0.00143   0.21041   0.30824   0.00000  Uiso   1.00
C5     C     0.25297   0.46061   0.02480   0.00000  Uiso   1.00
C6     C     0.25163   0.03958   0.30821   0.00000  Uiso   1.00
C7     C     0.24859   0.03959   0.02509   0.00000  Uiso   1.00
C8     C     0.24700   0.46061   0.30859   0.00000  Uiso   1.00
C9     C     0.37699   0.15645   0.13057   0.00000  Uiso   1.00
C10    C     0.10720   0.36222   0.20937   0.00000  Uiso   1.00
C11    C     0.11599   0.35076   0.12569   0.00000  Uiso   1.00
C12    C     0.43963   0.30848   0.16647   0.00000  Uiso   1.00
C13    C     0.40081   0.12930   0.20597   0.00000  Uiso   1.00
C14    C     0.12310   0.15656   0.20284   0.00000  Uiso   1.00
C15    C     0.39395   0.36372   0.12441   0.00000  Uiso   1.00
C16    C     0.38541   0.35249   0.20825   0.00000  Uiso   1.00
C17    C     0.09965   0.12982   0.12719   0.00000  Uiso   1.00
C18    C     0.14353   0.38694   0.12406   0.00000  Uiso   1.00
C19    C     0.37386   0.09251   0.20253   0.00000  Uiso   1.00
C20    C     0.34992   0.11982   0.12723   0.00000  Uiso   1.00
C21    C     0.13451   0.39861   0.20769   0.00000  Uiso   1.00
C22    C     0.35769   0.38859   0.20995   0.00000  Uiso   1.00
C23    C     0.43923   0.19204   0.16698   0.00000  Uiso   1.00
C24    C     0.12679   0.09323   0.13046   0.00000  Uiso   1.00
C25    C     0.15016   0.11992   0.20617   0.00000  Uiso   1.00
C26    C     0.36645   0.39990   0.12602   0.00000  Uiso   1.00
C27    C     0.09573   0.33996   0.16768   0.00000  Uiso   1.00
C28    C     0.40470   0.15945   0.16824   0.00000  Uiso   1.00
C29    C     0.40527   0.34128   0.16604   0.00000  Uiso   1.00
C30    C     0.09548   0.15967   0.16509   0.00000  Uiso   1.00
C31    C     0.34590   0.08978   0.16501   0.00000  Uiso   1.00
C32    C     0.15471   0.40950   0.16569   0.00000  Uiso   1.00
C33    C     0.15438   0.09011   0.16825   0.00000  Uiso   1.00
C34    C     0.06071   0.30802   0.16692   0.00000  Uiso   1.00
C35    C     0.34609   0.41061   0.16801   0.00000  Uiso   1.00
C36    C     0.46658   0.14394   0.04585   0.00000  Uiso   1.00
C37    C     0.47004   0.10523   0.08015   0.00000  Uiso   1.00
C38    C     0.00011   0.36072   0.27646   0.00000  Uiso   1.00
C39    C     0.47446   0.40324   0.27228   0.00000  Uiso   1.00
C40    C     0.00193   0.36036   0.05735   0.00000  Uiso   1.00
C41    C     0.02857   0.40211   0.06223   0.00000  Uiso   1.00
C42    C     0.03346   0.14407   0.28750   0.00000  Uiso   1.00
C43    C     0.03009   0.10534   0.25321   0.00000  Uiso   1.00
C44    C     0.25185   0.38945   0.05716   0.00000  Uiso   1.00
C45    C     0.31073   0.44206   0.16697   0.00000  Uiso   1.00
C46    C     0.27877   0.34794   0.06217   0.00000  Uiso   1.00
C47    C     0.28378   0.10586   0.28737   0.00000  Uiso   1.00
C48    C     0.28032   0.14463   0.25313   0.00000  Uiso   1.00
C49    C     0.21672   0.10605   0.04575   0.00000  Uiso   1.00
C50    C     0.22011   0.14475   0.08006   0.00000  Uiso   1.00
C51    C     0.24855   0.38950   0.27614   0.00000  Uiso   1.00
C52    C     0.22200   0.34767   0.27152   0.00000  Uiso   1.00
C53    C     0.33836   0.22252   0.11218   0.00000  Uiso   1.00
C54    C     0.11490   0.31283   0.27611   0.00000  Uiso   1.00
C55    C     0.13529   0.28651   0.07972   0.00000  Uiso   1.00
C56    C     0.18912   0.05781   0.16697   0.00000  Uiso   1.00
C57    C     0.39643   0.16485   0.28048   0.00000  Uiso   1.00
C58    C     0.16226   0.22228   0.22111   0.00000  Uiso   1.00
C59    C     0.38654   0.31509   0.05703   0.00000  Uiso   1.00
C60    C     0.36723   0.28771   0.25433   0.00000  Uiso   1.00
C61    C     0.10367   0.16511   0.05250   0.00000  Uiso   1.00
C62    C     0.13648   0.43520   0.05635   0.00000  Uiso   1.00
C63    C     0.41239   0.02620   0.22010   0.00000  Uiso   1.00
C64    C     0.35380   0.08492   0.05235   0.00000  Uiso   1.00
C65    C     0.11454   0.46241   0.25401   0.00000  Uiso   1.00
C66    C     0.35783   0.43809   0.27743   0.00000  Uiso   1.00
C67    C     0.18943   0.44180   0.16641   0.00000  Uiso   1.00
C68    C     0.08832   0.02718   0.11159   0.00000  Uiso   1.00
C69    C     0.14637   0.08457   0.28085   0.00000  Uiso   1.00
C70    C     0.38552   0.46389   0.07952   0.00000  Uiso   1.00
C71    C     0.31099   0.05766   0.16636   0.00000  Uiso   1.00
C72    C     0.49844   0.21041   0.02512   0.00000  Uiso   1.00
Cu73   Cu    0.00000   0.25000   0.21355   0.00000  Uiso   1.00
Cu74   Cu    0.00000   0.25000   0.11978   0.00000  Uiso   1.00
Cu75   Cu    0.25000  -0.00000   0.21355   0.00000  Uiso   1.00
Cu76   Cu    0.25000  -0.00000   0.11978   0.00000  Uiso   1.00
H77    H     0.46400   0.12922   0.01059   0.00000  Uiso   1.00
H78    H     0.45772   0.41031   0.30516   0.00000  Uiso   1.00
H79    H     0.13143   0.05642   0.26218   0.00000  Uiso   1.00
H80    H     0.35521   0.40725   0.05459   0.00000  Uiso   1.00
H81    H     0.38147   0.48688   0.10951   0.00000  Uiso   1.00
H82    H     0.37710   0.48183   0.04700   0.00000  Uiso   1.00
H83    H     0.41861   0.45355   0.07726   0.00000  Uiso   1.00
H84    H     0.48827   0.35458   0.09192   0.00000  Uiso   1.00
H85    H     0.47750   0.36737   0.03159   0.00000  Uiso   1.00
H86    H     0.00827   0.43172   0.06727   0.00000  Uiso   1.00
H87    H     0.04904   0.39903   0.09315   0.00000  Uiso   1.00
H88    H     0.04787   0.40748   0.03074   0.00000  Uiso   1.00
H89    H     0.03613   0.12937   0.32276   0.00000  Uiso   1.00
H90    H     0.06200   0.16325   0.27992   0.00000  Uiso   1.00
H91    H     0.02322   0.11780   0.21759   0.00000  Uiso   1.00
H92    H     0.05958   0.08627   0.25233   0.00000  Uiso   1.00
H93    H     0.43798   0.16301   0.05338   0.00000  Uiso   1.00
H94    H     0.00482   0.08239   0.26410   0.00000  Uiso   1.00
H95    H     0.22757   0.38216   0.03127   0.00000  Uiso   1.00
H96    H     0.23801   0.39517   0.09166   0.00000  Uiso   1.00
H97    H     0.29788   0.34254   0.03054   0.00000  Uiso   1.00
H98    H     0.29942   0.35140   0.09289   0.00000  Uiso   1.00
H99    H     0.25869   0.31822   0.06758   0.00000  Uiso   1.00
H100   H     0.31235   0.08668   0.27972   0.00000  Uiso   1.00
H101   H     0.28648   0.12053   0.32264   0.00000  Uiso   1.00
H102   H     0.25474   0.16728   0.26379   0.00000  Uiso   1.00
H103   H     0.30963   0.16402   0.25255   0.00000  Uiso   1.00
H104   H     0.47670   0.11773   0.11581   0.00000  Uiso   1.00
H105   H     0.27383   0.13216   0.21742   0.00000  Uiso   1.00
H106   H     0.18812   0.08695   0.05327   0.00000  Uiso   1.00
H107   H     0.21416   0.12076   0.01048   0.00000  Uiso   1.00
H108   H     0.19074   0.16405   0.08066   0.00000  Uiso   1.00
H109   H     0.22662   0.13223   0.11575   0.00000  Uiso   1.00
H110   H     0.24563   0.16750   0.06944   0.00000  Uiso   1.00
H111   H     0.27317   0.38255   0.30177   0.00000  Uiso   1.00
H112   H     0.26196   0.39521   0.24144   0.00000  Uiso   1.00
H113   H     0.20250   0.34260   0.30290   0.00000  Uiso   1.00
H114   H     0.20174   0.35047   0.24039   0.00000  Uiso   1.00
H115   H     0.44066   0.08596   0.08088   0.00000  Uiso   1.00
H116   H     0.24235   0.31804   0.26693   0.00000  Uiso   1.00
H117   H     0.37128   0.18425   0.06475   0.00000  Uiso   1.00
H118   H     0.32622   0.23976   0.08073   0.00000  Uiso   1.00
H119   H     0.34944   0.24750   0.13796   0.00000  Uiso   1.00
H120   H     0.31183   0.20371   0.12745   0.00000  Uiso   1.00
H121   H     0.08521   0.37386   0.27599   0.00000  Uiso   1.00
H122   H     0.14275   0.30378   0.25579   0.00000  Uiso   1.00
H123   H     0.09477   0.28302   0.28040   0.00000  Uiso   1.00
H124   H     0.12559   0.32387   0.31104   0.00000  Uiso   1.00
H125   H     0.10492   0.34308   0.05440   0.00000  Uiso   1.00
H126   H     0.49550   0.08244   0.06942   0.00000  Uiso   1.00
H127   H     0.16834   0.29690   0.07690   0.00000  Uiso   1.00
H128   H     0.12659   0.26809   0.04758   0.00000  Uiso   1.00
H129   H     0.13162   0.26392   0.11015   0.00000  Uiso   1.00
H130   H     0.43470   0.11101   0.26494   0.00000  Uiso   1.00
H131   H     0.38154   0.19295   0.26164   0.00000  Uiso   1.00
H132   H     0.41629   0.17938   0.30802   0.00000  Uiso   1.00
H133   H     0.37199   0.14401   0.29683   0.00000  Uiso   1.00
H134   H     0.12870   0.18454   0.26854   0.00000  Uiso   1.00
H135   H     0.18817   0.20338   0.20466   0.00000  Uiso   1.00
H136   H     0.17530   0.23843   0.25273   0.00000  Uiso   1.00
H137   H     0.01350   0.35520   0.24173   0.00000  Uiso   1.00
H138   H     0.15120   0.24811   0.19626   0.00000  Uiso   1.00
H139   H     0.41694   0.37584   0.05826   0.00000  Uiso   1.00
H140   H     0.35966   0.30436   0.07812   0.00000  Uiso   1.00
H141   H     0.40711   0.28603   0.05048   0.00000  Uiso   1.00
H142   H     0.37445   0.32738   0.02313   0.00000  Uiso   1.00
H143   H     0.39681   0.34495   0.27961   0.00000  Uiso   1.00
H144   H     0.33401   0.29727   0.25752   0.00000  Uiso   1.00
H145   H     0.37660   0.26928   0.28623   0.00000  Uiso   1.00
H146   H     0.37110   0.26536   0.22374   0.00000  Uiso   1.00
H147   H     0.06547   0.11129   0.06855   0.00000  Uiso   1.00
H148   H     0.02466   0.36689   0.30233   0.00000  Uiso   1.00
H149   H     0.11894   0.19300   0.07124   0.00000  Uiso   1.00
H150   H     0.08362   0.17989   0.02527   0.00000  Uiso   1.00
H151   H     0.12783   0.14416   0.03579   0.00000  Uiso   1.00
H152   H     0.16686   0.37447   0.05817   0.00000  Uiso   1.00
H153   H     0.12494   0.42284   0.02226   0.00000  Uiso   1.00
H154   H     0.15695   0.46443   0.05020   0.00000  Uiso   1.00
H155   H     0.10921   0.44566   0.07692   0.00000  Uiso   1.00
H156   H     0.38002   0.06428   0.26821   0.00000  Uiso   1.00
H157   H     0.40372   0.00733   0.18824   0.00000  Uiso   1.00
H158   H     0.41921   0.00220   0.24854   0.00000  Uiso   1.00
H159   H     0.49529   0.43189   0.26462   0.00000  Uiso   1.00
H160   H     0.44138   0.04536   0.21342   0.00000  Uiso   1.00
H161   H     0.31551   0.13854   0.06881   0.00000  Uiso   1.00
H162   H     0.36928   0.05705   0.07090   0.00000  Uiso   1.00
H163   H     0.37780   0.10604   0.03557   0.00000  Uiso   1.00
H164   H     0.33369   0.07010   0.02521   0.00000  Uiso   1.00
H165   H     0.14611   0.40637   0.27885   0.00000  Uiso   1.00
H166   H     0.11757   0.48511   0.22357   0.00000  Uiso   1.00
H167   H     0.12324   0.48097   0.28607   0.00000  Uiso   1.00
H168   H     0.08170   0.45140   0.25720   0.00000  Uiso   1.00
H169   H     0.33485   0.37403   0.27597   0.00000  Uiso   1.00
H170   H     0.45184   0.40019   0.24329   0.00000  Uiso   1.00
H171   H     0.39052   0.43104   0.28675   0.00000  Uiso   1.00
H172   H     0.34024   0.44487   0.30990   0.00000  Uiso   1.00
H173   H     0.35596   0.46830   0.25549   0.00000  Uiso   1.00
H174   H     0.12140   0.06572   0.06450   0.00000  Uiso   1.00
H175   H     0.09946   0.00180   0.13691   0.00000  Uiso   1.00
H176   H     0.07602   0.01045   0.07993   0.00000  Uiso   1.00
H177   H     0.06189   0.04579   0.12732   0.00000  Uiso   1.00
H178   H     0.18436   0.13855   0.26479   0.00000  Uiso   1.00
H179   H     0.12199   0.10534   0.29739   0.00000  Uiso   1.00
H180   H     0.16648   0.07012   0.30821   0.00000  Uiso   1.00
N181   N     0.00000   0.25000   0.28402   0.00000  Uiso   1.00
N182   N     0.40975   0.34996   0.08034   0.00000  Uiso   1.00
N183   N     0.39307   0.32693   0.24932   0.00000  Uiso   1.00
N184   N     0.07901   0.13855   0.08430   0.00000  Uiso   1.00
N185   N     0.15959   0.40048   0.08004   0.00000  Uiso   1.00
N186   N     0.37866   0.05565   0.23347   0.00000  Uiso   1.00
N187   N     0.32917   0.11125   0.08438   0.00000  Uiso   1.00
N188   N     0.14178   0.42439   0.24866   0.00000  Uiso   1.00
N189   N     0.33959   0.40035   0.25364   0.00000  Uiso   1.00
N190   N     0.12229   0.05667   0.09914   0.00000  Uiso   1.00
N191   N     0.17089   0.11126   0.24903   0.00000  Uiso   1.00
N192   N     0.00000   0.25000   0.04931   0.00000  Uiso   1.00
N193   N     0.35889   0.42538   0.08485   0.00000  Uiso   1.00
N194   N     0.25000  -0.00000   0.28402   0.00000  Uiso   1.00
N195   N     0.25000  -0.00000   0.04931   0.00000  Uiso   1.00
N196   N     0.37231   0.19314   0.09943   0.00000  Uiso   1.00
N197   N     0.09173   0.34814   0.25349   0.00000  Uiso   1.00
N198   N     0.10863   0.32505   0.08469   0.00000  Uiso   1.00
N199   N     0.42124   0.13817   0.24895   0.00000  Uiso   1.00
N200   N     0.12796   0.19333   0.23381   0.00000  Uiso   1.00
O201   O     0.04509   0.20491   0.20625   0.00000  Uiso   1.00
O202   O     0.20492   0.04509   0.12709   0.00000  Uiso   1.00
O203   O     0.20492   0.04509   0.20625   0.00000  Uiso   1.00
O204   O     0.29509   0.45491   0.12709   0.00000  Uiso   1.00
O205   O     0.20492   0.45491   0.12709   0.00000  Uiso   1.00
O206   O     0.29509   0.04509   0.20625   0.00000  Uiso   1.00
O207   O     0.29509   0.04509   0.12709   0.00000  Uiso   1.00
O208   O     0.20492   0.45491   0.20625   0.00000  Uiso   1.00
O209   O     0.00213   0.17118   0.05040   0.00000  Uiso   1.00
O210   O     0.47473   0.32434   0.28906   0.00000  Uiso   1.00
O211   O     0.02661   0.32367   0.04416   0.00000  Uiso   1.00
O212   O     0.45492   0.29509   0.12709   0.00000  Uiso   1.00
O213   O     0.49781   0.17117   0.28298   0.00000  Uiso   1.00
O214   O     0.27640   0.42629   0.04407   0.00000  Uiso   1.00
O215   O     0.24808   0.07882   0.28291   0.00000  Uiso   1.00
O216   O     0.25229   0.07883   0.05035   0.00000  Uiso   1.00
O217   O     0.22377   0.42615   0.28930   0.00000  Uiso   1.00
O218   O     0.45492   0.29509   0.20625   0.00000  Uiso   1.00
O219   O     0.04509   0.20491   0.12709   0.00000  Uiso   1.00
O220   O     0.45492   0.20491   0.12709   0.00000  Uiso   1.00
O221   O     0.04509   0.29509   0.20625   0.00000  Uiso   1.00
O222   O     0.04509   0.29509   0.12709   0.00000  Uiso   1.00
O223   O     0.45492   0.20491   0.20625   0.00000  Uiso   1.00
O224   O     0.29509   0.45491   0.20625   0.00000  Uiso   1.00
C225   C     0.56083   0.19211   0.16636   0.00000  Uiso   1.00
C226   C     0.99733   0.28944   0.30855   0.00000  Uiso   1.00
C227   C     0.50323   0.28937   0.02478   0.00000  Uiso   1.00
C228   C     0.50143   0.21041   0.30824   0.00000  Uiso   1.00
C229   C     0.75297   0.46061   0.02480   0.00000  Uiso   1.00
C230   C     0.75163   0.03958   0.30821   0.00000  Uiso   1.00
C231   C     0.74859   0.03959   0.02509   0.00000  Uiso   1.00
C232   C     0.74700   0.46061   0.30859   0.00000  Uiso   1.00
C233   C     0.87699   0.15645   0.13057   0.00000  Uiso   1.00
C234   C     0.60720   0.36222   0.20937   0.00000  Uiso   1.00
C235   C     0.61599   0.35076   0.12569   0.00000  Uiso   1.00
C236   C     0.93963   0.30848   0.16647   0.00000  Uiso   1.00
C237   C     0.90081   0.12930   0.20597   0.00000  Uiso   1.00
C238   C     0.62310   0.15656   0.20284   0.00000  Uiso   1.00
C239   C     0.89395   0.36372   0.12441   0.00000  Uiso   1.00
C240   C     0.88541   0.35249   0.20825   0.00000  Uiso   1.00
C241   C     0.59965   0.12982   0.12719   0.00000  Uiso   1.00
C242   C     0.64353   0.38694   0.12406   0.00000  Uiso   1.00
C243   C     0.87386   0.09251   0.20253   0.00000  Uiso   1.00
C244   C     0.84992   0.11982   0.12723   0.00000  Uiso   1.00
C245   C     0.63451   0.39861   0.20769   0.00000  Uiso   1.00
C246   C     0.85769   0.38859   0.20995   0.00000  Uiso   1.00
C247   C     0.93923   0.19204   0.16698   0.00000  Uiso   1.00
C248   C     0.62679   0.09323   0.13046   0.00000  Uiso   1.00
C249   C     0.65016   0.11992   0.20617   0.00000  Uiso   1.00
C250   C     0.86645   0.39990   0.12602   0.00000  Uiso   1.00
C251   C     0.59573   0.33996   0.16768   0.00000  Uiso   1.00
C252   C     0.90470   0.15945   0.16824   0.00000  Uiso   1.00
C253   C     0.90527   0.34128   0.16604   0.00000  Uiso   1.00
C254   C     0.59548   0.15967   0.16509   0.00000  Uiso   1.00
C255   C     0.84590   0.08978   0.16501   0.00000  Uiso   1.00
C256   C     0.65471   0.40950   0.16569   0.00000  Uiso   1.00
C257   C     0.65438   0.09011   0.16825   0.00000  Uiso   1.00
C258   C     0.56071   0.30802   0.16692   0.00000  Uiso   1.00
C259   C     0.84609   0.41061   0.16801   0.00000  Uiso   1.00
C260   C     0.96658   0.14394   0.04585   0.00000  Uiso   1.00
C261   C     0.97004   0.10523   0.08015   0.00000  Uiso   1.00
C262   C     0.50011   0.36072   0.27646   0.00000  Uiso   1.00
C263   C     0.97446   0.40324   0.27228   0.00000  Uiso   1.00
C264   C     0.50193   0.36036   0.05735   0.00000  Uiso   1.00
C265   C     0.52857   0.40211   0.06223   0.00000  Uiso   1.00
C266   C     0.53346   0.14407   0.28750   0.00000  Uiso   1.00
C267   C     0.53009   0.10534   0.25321   0.00000  Uiso   1.00
C268   C     0.75185   0.38945   0.05716   0.00000  Uiso   1.00
C269   C     0.81073   0.44206   0.16697   0.00000  Uiso   1.00
C270   C     0.77877   0.34794   0.06217   0.00000  Uiso   1.00
C271   C     0.78378   0.10586   0.28737   0.00000  Uiso   1.00
C272   C     0.78032   0.14463   0.25313   0.00000  Uiso   1.00
C273   C     0.71672   0.10605   0.04575   0.00000  Uiso   1.00
C274   C     0.72011   0.14475   0.08006   0.00000  Uiso   1.00
C275   C     0.74855   0.38950   0.27614   0.00000  Uiso   1.00
C276   C     0.72200   0.34767   0.27152   0.00000  Uiso   1.00
C277   C     0.83836   0.22252   0.11218   0.00000  Uiso   1.00
C278   C     0.61490   0.31283   0.27611   0.00000  Uiso   1.00
C279   C     0.63529   0.28651   0.07972   0.00000  Uiso   1.00
C280   C     0.68912   0.05781   0.16697   0.00000  Uiso   1.00
C281   C     0.89643   0.16485   0.28048   0.00000  Uiso   1.00
C282   C     0.66226   0.22228   0.22111   0.00000  Uiso   1.00
C283   C     0.88654   0.31509   0.05703   0.00000  Uiso   1.00
C284   C     0.86723   0.28771   0.25433   0.00000  Uiso   1.00
C285   C     0.60367   0.16511   0.05250   0.00000  Uiso   1.00
C286   C     0.63648   0.43520   0.05635   0.00000  Uiso   1.00
C287   C     0.91239   0.02620   0.22010   0.00000  Uiso   1.00
C288   C     0.85380   0.08492   0.05235   0.00000  Uiso   1.00
C289   C     0.61454   0.46241   0.25401   0.00000  Uiso   1.00
C290   C     0.85783   0.43809   0.27743   0.00000  Uiso   1.00
C291   C     0.68943   0.44180   0.16641   0.00000  Uiso   1.00
C292   C     0.58832   0.02718   0.11159   0.00000  Uiso   1.00
C293   C     0.64637   0.08457   0.28085   0.00000  Uiso   1.00
C294   C     0.88552   0.46389   0.07952   0.00000  Uiso   1.00
C295   C     0.81099   0.05766   0.16636   0.00000  Uiso   1.00
C296   C     0.99844   0.21041   0.02512   0.00000  Uiso   1.00
Cu297  Cu    0.50000   0.25000   0.21355   0.00000  Uiso   1.00
Cu298  Cu    0.50000   0.25000   0.11978   0.00000  Uiso   1.00
Cu299  Cu    0.75000  -0.00000   0.21355   0.00000  Uiso   1.00
Cu300  Cu    0.75000  -0.00000   0.11978   0.00000  Uiso   1.00
H301   H     0.96400   0.12922   0.01059   0.00000  Uiso   1.00
H302   H     0.95772   0.41031   0.30516   0.00000  Uiso   1.00
H303   H     0.63143   0.05642   0.26218   0.00000  Uiso   1.00
H304   H     0.85521   0.40725   0.05459   0.00000  Uiso   1.00
H305   H     0.88147   0.48688   0.10951   0.00000  Uiso   1.00
H306   H     0.87710   0.48183   0.04700   0.00000  Uiso   1.00
H307   H     0.91861   0.45355   0.07726   0.00000  Uiso   1.00
H308   H     0.98827   0.35458   0.09192   0.00000  Uiso   1.00
H309   H     0.97750   0.36737   0.03159   0.00000  Uiso   1.00
H310   H     0.50827   0.43172   0.06727   0.00000  Uiso   1.00
H311   H     0.54904   0.39903   0.09315   0.00000  Uiso   1.00
H312   H     0.54787   0.40748   0.03074   0.00000  Uiso   1.00
H313   H     0.53613   0.12937   0.32276   0.00000  Uiso   1.00
H314   H     0.56200   0.16325   0.27992   0.00000  Uiso   1.00
H315   H     0.52322   0.11780   0.21759   0.00000  Uiso   1.00
H316   H     0.55958   0.08627   0.25233   0.00000  Uiso   1.00
H317   H     0.93798   0.16301   0.05338   0.00000  Uiso   1.00
H318   H     0.50482   0.08239   0.26410   0.00000  Uiso   1.00
H319   H     0.72757   0.38216   0.03127   0.00000  Uiso   1.00
H320   H     0.73801   0.39517   0.09166   0.00000  Uiso   1.00
H321   H     0.79788   0.34254   0.03054   0.00000  Uiso   1.00
H322   H     0.79942   0.35140   0.09289   0.00000  Uiso   1.00
H323   H     0.75869   0.31822   0.06758   0.00000  Uiso   1.00
H324   H     0.81235   0.08668   0.27972   0.00000  Uiso   1.00
H325   H     0.78648   0.12053   0.32264   0.00000  Uiso   1.00
H326   H     0.75474   0.16728   0.26379   0.00000  Uiso   1.00
H327   H     0.80963   0.16402   0.25255   0.00000  Uiso   1.00
H328   H     0.97670   0.11773   0.11581   0.00000  Uiso   1.00
H329   H     0.77383   0.13216   0.21742   0.00000  Uiso   1.00
H330   H     0.68812   0.08695   0.05327   0.00000  Uiso   1.00
H331   H     0.71416   0.12076   0.01048   0.00000  Uiso   1.00
H332   H     0.69074   0.16405   0.08066   0.00000  Uiso   1.00
H333   H     0.72662   0.13223   0.11575   0.00000  Uiso   1.00
H334   H     0.74563   0.16750   0.06944   0.00000  Uiso   1.00
H335   H     0.77317   0.38255   0.30177   0.00000  Uiso   1.00
H336   H     0.76196   0.39521   0.24144   0.00000  Uiso   1.00
H337   H     0.70250   0.34260   0.30290   0.00000  Uiso   1.00
H338   H     0.70174   0.35047   0.24039   0.00000  Uiso   1.00
H339   H     0.94066   0.08596   0.08088   0.00000  Uiso   1.00
H340   H     0.74235   0.31804   0.26693   0.00000  Uiso   1.00
H341   H     0.87128   0.18425   0.06475   0.00000  Uiso   1.00
H342   H     0.82622   0.23976   0.08073   0.00000  Uiso   1.00
H343   H     0.84944   0.24750   0.13796   0.00000  Uiso   1.00
H344   H     0.81183   0.20371   0.12745   0.00000  Uiso   1.00
H345   H     0.58521   0.37386   0.27599   0.00000  Uiso   1.00
H346   H     0.64275   0.30378   0.25579   0.00000  Uiso   1.00
H347   H     0.59477   0.28302   0.28040   0.00000  Uiso   1.00
H348   H     0.62559   0.32387   0.31104   0.00000  Uiso   1.00
H349   H     0.60492   0.34308   0.05440   0.00000  Uiso   1.00
H350   H     0.99550   0.08244   0.06942   0.00000  Uiso   1.00
H351   H     0.66834   0.29690   0.07690   0.00000  Uiso   1.00
H352   H     0.62659   0.26809   0.04758   0.00000  Uiso   1.00
H353   H     0.63162   0.26392   0.11015   0.00000  Uiso   1.00
H354   H     0.93470   0.11101   0.26494   0.00000  Uiso   1.00
H355   H     0.88154   0.19295   0.26164   0.00000  Uiso   1.00
H356   H     0.91629   0.17938   0.30802   0.00000  Uiso   1.00
H357   H     0.87199   0.14401   0.29683   0.00000  Uiso   1.00
H358   H     0.62870   0.18454   0.26854   0.00000  Uiso   1.00
H359   H     0.68817   0.20338   0.20466   0.00000  Uiso   1.00
H360   H     0.67530   0.23843   0.25273   0.00000  Uiso   1.00
H361   H     0.51350   0.35520   0.24173   0.00000  Uiso   1.00
H362   H     0.65120   0.24811   0.19626   0.00000  Uiso   1.00
H363   H     0.91694   0.37584   0.05826   0.00000  Uiso   1.00
H364   H     0.85966   0.30436   0.07812   0.00000  Uiso   1.00
H365   H     0.90711   0.28603   0.05048   0.00000  Uiso   1.00
H366   H     0.87445   0.32738   0.02313   0.00000  Uiso   1.00
H367   H     0.89681   0.34495   0.27961   0.00000  Uiso   1.00
H368   H     0.83401   0.29727   0.25752   0.00000  Uiso   1.00
H369   H     0.87660   0.26928   0.28623   0.00000  Uiso   1.00
H370   H     0.87110   0.26536   0.22374   0.00000  Uiso   1.00
H371   H     0.56547   0.11129   0.06855   0.00000  Uiso   1.00
H372   H     0.52466   0.36689   0.30233   0.00000  Uiso   1.00
H373   H     0.61894   0.19300   0.07124   0.00000  Uiso   1.00
H374   H     0.58362   0.17989   0.02527   0.00000  Uiso   1.00
H375   H     0.62783   0.14416   0.03579   0.00000  Uiso   1.00
H376   H     0.66686   0.37447   0.05817   0.00000  Uiso   1.00
H377   H     0.62494   0.42284   0.02226   0.00000  Uiso   1.00
H378   H     0.65695   0.46443   0.05020   0.00000  Uiso   1.00
H379   H     0.60921   0.44566   0.07692   0.00000  Uiso   1.00
H380   H     0.88002   0.06428   0.26821   0.00000  Uiso   1.00
H381   H     0.90372   0.00733   0.18824   0.00000  Uiso   1.00
H382   H     0.91921   0.00220   0.24854   0.00000  Uiso   1.00
H383   H     0.99529   0.43189   0.26462   0.00000  Uiso   1.00
H384   H     0.94138   0.04536   0.21342   0.00000  Uiso   1.00
H385   H     0.81551   0.13854   0.06881   0.00000  Uiso   1.00
H386   H     0.86928   0.05705   0.07090   0.00000  Uiso   1.00
H387   H     0.87780   0.10604   0.03557   0.00000  Uiso   1.00
H388   H     0.83369   0.07010   0.02521   0.00000  Uiso   1.00
H389   H     0.64611   0.40637   0.27885   0.00000  Uiso   1.00
H390   H     0.61757   0.48511   0.22357   0.00000  Uiso   1.00
H391   H     0.62324   0.48097   0.28607   0.00000  Uiso   1.00
H392   H     0.58170   0.45140   0.25720   0.00000  Uiso   1.00
H393   H     0.83485   0.37403   0.27597   0.00000  Uiso   1.00
H394   H     0.95184   0.40019   0.24329   0.00000  Uiso   1.00
H395   H     0.89052   0.43104   0.28675   0.00000  Uiso   1.00
H396   H     0.84024   0.44487   0.30990   0.00000  Uiso   1.00
H397   H     0.85596   0.46830   0.25549   0.00000  Uiso   1.00
H398   H     0.62140   0.06572   0.06450   0.00000  Uiso   1.00
H399   H     0.59946   0.00180   0.13691   0.00000  Uiso   1.00
H400   H     0.57602   0.01045   0.07993   0.00000  Uiso   1.00
H401   H     0.56189   0.04579   0.12732   0.00000  Uiso   1.00
H402   H     0.68436   0.13855   0.26479   0.00000  Uiso   1.00
H403   H     0.62199   0.10534   0.29739   0.00000  Uiso   1.00
H404   H     0.66648   0.07012   0.30821   0.00000  Uiso   1.00
N405   N     0.50000   0.25000   0.28402   0.00000  Uiso   1.00
N406   N     0.90975   0.34996   0.08034   0.00000  Uiso   1.00
N407   N     0.89307   0.32693   0.24932   0.00000  Uiso   1.00
N408   N     0.57901   0.13855   0.08430   0.00000  Uiso   1.00
N409   N     0.65959   0.40048   0.08004   0.00000  Uiso   1.00
N410   N     0.87866   0.05565   0.23347   0.00000  Uiso   1.00
N411   N     0.82917   0.11125   0.08438   0.00000  Uiso   1.00
N412   N     0.64178   0.42439   0.24866   0.00000  Uiso   1.00
N413   N     0.83959   0.40035   0.25364   0.00000  Uiso   1.00
N414   N     0.62229   0.05667   0.09914   0.00000  Uiso   1.00
N415   N     0.67089   0.11126   0.24903   0.00000  Uiso   1.00
N416   N     0.50000   0.25000   0.04931   0.00000  Uiso   1.00
N417   N     0.85889   0.42538   0.08485   0.00000  Uiso   1.00
N418   N     0.75000  -0.00000   0.28402   0.00000  Uiso   1.00
N419   N     0.75000  -0.00000   0.04931   0.00000  Uiso   1.00
N420   N     0.87231   0.19314   0.09943   0.00000  Uiso   1.00
N421   N     0.59173   0.34814   0.25349   0.00000  Uiso   1.00
N422   N     0.60863   0.32505   0.08469   0.00000  Uiso   1.00
N423   N     0.92124   0.13817   0.24895   0.00000  Uiso   1.00
N424   N     0.62796   0.19333   0.23381   0.00000  Uiso   1.00
O425   O     0.54509   0.20491   0.20625   0.00000  Uiso   1.00
O426   O     0.70492   0.04509   0.12709   0.00000  Uiso   1.00
O427   O     0.70492   0.04509   0.20625   0.00000  Uiso   1.00
O428   O     0.79509   0.45491   0.12709   0.00000  Uiso   1.00
O429   O     0.70492   0.45491   0.12709   0.00000  Uiso   1.00
O430   O     0.79509   0.04509   0.20625   0.00000  Uiso   1.00
O431   O     0.79509   0.04509   0.12709   0.00000  Uiso   1.00
O432   O     0.70492   0.45491   0.20625   0.00000  Uiso   1.00
O433   O     0.50213   0.17118   0.05040   0.00000  Uiso   1.00
O434   O     0.97473   0.32434   0.28906   0.00000  Uiso   1.00
O435   O     0.52661   0.32367   0.04416   0.00000  Uiso   1.00
O436   O     0.95492   0.29509   0.12709   0.00000  Uiso   1.00
O437   O     0.99781   0.17117   0.28298   0.00000  Uiso   1.00
O438   O     0.77640   0.42629   0.04407   0.00000  Uiso   1.00
O439   O     0.74808   0.07882   0.28291   0.00000  Uiso   1.00
O440   O     0.75229   0.07883   0.05035   0.00000  Uiso   1.00
O441   O     0.72377   0.42615   0.28930   0.00000  Uiso   1.00
O442   O     0.95492   0.29509   0.20625   0.00000  Uiso   1.00
O443   O     0.54509   0.20491   0.12709   0.00000  Uiso   1.00
O444   O     0.95492   0.20491   0.12709   0.00000  Uiso   1.00
O445   O     0.54509   0.29509   0.20625   0.00000  Uiso   1.00
O446   O     0.54509   0.29509   0.12709   0.00000  Uiso   1.00
O447   O     0.95492   0.20491   0.20625   0.00000  Uiso   1.00
O448   O     0.79509   0.45491   0.20625   0.00000  Uiso   1.00
C449   C     0.06083   0.69211   0.16636   0.00000  Uiso   1.00
C450   C     0.49733   0.78944   0.30855   0.00000  Uiso   1.00
C451   C     0.00323   0.78937   0.02478   0.00000  Uiso   1.00
C452   C     0.00143   0.71041   0.30824   0.00000  Uiso   1.00
C453   C     0.25297   0.96061   0.02480   0.00000  Uiso   1.00
C454   C     0.25163   0.53958   0.30821   0.00000  Uiso   1.00
C455   C     0.24859   0.53959   0.02509   0.00000  Uiso   1.00
C456   C     0.24700   0.96061   0.30859   0.00000  Uiso   1.00
C457   C     0.37699   0.65645   0.13057   0.00000  Uiso   1.00
C458   C     0.10720   0.86222   0.20937   0.00000  Uiso   1.00
C459   C     0.11599   0.85076   0.12569   0.00000  Uiso   1.00
C460   C     0.43963   0.80848   0.16647   0.00000  Uiso   1.00
C461   C     0.40081   0.62930   0.20597   0.00000  Uiso   1.00
C462   C     0.12310   0.65656   0.20284   0.00000  Uiso   1.00
C463   C     0.39395   0.86372   0.12441   0.00000  Uiso   1.00
C464   C     0.38541   0.85249   0.20825   0.00000  Uiso   1.00
C465   C     0.09965   0.62982   0.12719   0.00000  Uiso   1.00
C466   C     0.14353   0.88694   0.12406   0.00000  Uiso   1.00
C467   C     0.37386   0.59251   0.20253   0.00000  Uiso   1.00
C468   C     0.34992   0.61982   0.12723   0.00000  Uiso   1.00
C469   C     0.13451   0.89861   0.20769   0.00000  Uiso   1.00
C470   C     0.35769   0.88859   0.20995   0.00000  Uiso   1.00
C471   C     0.43923   0.69204   0.16698   0.00000  Uiso   1.00
C472   C     0.12679   0.59323   0.13046   0.00000  Uiso   1.00
C473   C     0.15016   0.61992   0.20617   0.00000  Uiso   1.00
C474   C     0.36645   0.89990   0.12602   0.00000  Uiso   1.00
C475   C     0.09573   0.83996   0.16768   0.00000  Uiso   1.00
C476   C     0.40470   0.65945   0.16824   0.00000  Uiso   1.00
C477   C     0.40527   0.84128   0.16604   0.00000  Uiso   1.00
C478   C     0.09548   0.65967   0.16509   0.00000  Uiso   1.00
C479   C     0.34590   0.58978   0.16501   0.00000  Uiso   1.00
C480   C     0.15471   0.90950   0.16569   0.00000  Uiso   1.00
C481   C     0.15438   0.59011   0.16825   0.00000  Uiso   1.00
C482   C     0.06071   0.80802   0.16692   0.00000  Uiso   1.00
C483   C     0.34609   0.91061   0.16801   0.00000  Uiso   1.00
C484   C     0.46658   0.64394   0.04585   0.00000  Uiso   1.00
C485   C     0.47004   0.60523   0.08015   0.00000  Uiso   1.00
C486   C     0.00011   0.86072   0.27646   0.00000  Uiso   1.00
C487   C     0.47446   0.90324   0.27228   0.00000  Uiso   1.00
C488   C     0.00193   0.86036   0.05735   0.00000  Uiso   1.00
C489   C     0.02857   0.90211   0.06223   0.00000  Uiso   1.00
C490   C     0.03346   0.64407   0.28750   0.00000  Uiso   1.00
C491   C     0.03009   0.60534   0.25321   0.00000  Uiso   1.00
C492   C     0.25185   0.88945   0.05716   0.00000  Uiso   1.00
C493   C     0.31073   0.94206   0.16697   0.00000  Uiso   1.00
C494   C     0.27877   0.84794   0.06217   0.00000  Uiso   1.00
C495   C     0.28378   0.60586   0.28737   0.00000  Uiso   1.00
C496   C     0.28032   0.64463   0.25313   0.00000  Uiso   1.00
C497   C     0.21672   0.60605   0.04575   0.00000  Uiso   1.00
C498   C     0.22011   0.64475   0.08006   0.00000  Uiso   1.00
C499   C     0.24855   0.88950   0.27614   0.00000  Uiso   1.00
C500   C     0.22200   0.84767   0.27152   0.00000  Uiso   1.00
C501   C     0.33836   0.72252   0.11218   0.00000  Uiso   1.00
C502   C     0.11490   0.81283   0.27611   0.00000  Uiso   1.00
C503   C     0.13529   0.78651   0.07972   0.00000  Uiso   1.00
C504   C     0.18912   0.55781   0.16697   0.00000  Uiso   1.00
C505   C     0.39643   0.66485   0.28048   0.00000  Uiso   1.00
C506   C     0.16226   0.72228   0.22111   0.00000  Uiso   1.00
C507   C     0.38654   0.81509   0.05703   0.00000  Uiso   1.00
C508   C     0.36723   0.78771   0.25433   0.00000  Uiso   1.00
C509   C     0.10367   0.66511   0.05250   0.00000  Uiso   1.00
C510   C     0.13648   0.93520   0.05635   0.00000  Uiso   1.00
C511   C     0.41239   0.52620   0.22010   0.00000  Uiso   1.00
C512   C     0.35380   0.58492   0.05235   0.00000  Uiso   1.00
C513   C     0.11454   0.96241   0.25401   0.00000  Uiso   1.00
C514   C     0.35783   0.93809   0.27743   0.00000  Uiso   1.00
C515   C     0.18943   0.94180   0.16641   0.00000  Uiso   1.00
C516   C     0.08832   0.52718   0.11159   0.00000  Uiso   1.00
C517   C     0.14637   0.58457   0.28085   0.00000  Uiso   1.00
C518   C     0.38552   0.96389   0.07952   0.00000  Uiso   1.00
C519   C     0.31099   0.55766   0.16636   0.00000  Uiso   1.00
C520   C     0.49844   0.71041   0.02512   0.00000  Uiso   1.00
Cu521  Cu    0.00000   0.75000   0.21355   0.00000  Uiso   1.00
Cu522  Cu    0.00000   0.75000   0.11978   0.00000  Uiso   1.00
Cu523  Cu    0.25000   0.50000   0.21355   0.00000  Uiso   1.00
Cu524  Cu    0.25000   0.50000   0.11978   0.00000  Uiso   1.00
H525   H     0.46400   0.62922   0.01059   0.00000  Uiso   1.00
H526   H     0.45772   0.91031   0.30516   0.00000  Uiso   1.00
H527   H     0.13143   0.55642   0.26218   0.00000  Uiso   1.00
H528   H     0.35521   0.90725   0.05459   0.00000  Uiso   1.00
H529   H     0.38147   0.98688   0.10951   0.00000  Uiso   1.00
H530   H     0.37710   0.98183   0.04700   0.00000  Uiso   1.00
H531   H     0.41861   0.95355   0.07726   0.00000  Uiso   1.00
H532   H     0.48827   0.85458   0.09192   0.00000  Uiso   1.00
H533   H     0.47750   0.86737   0.03159   0.00000  Uiso   1.00
H534   H     0.00827   0.93172   0.06727   0.00000  Uiso   1.00
H535   H     0.04904   0.89903   0.09315   0.00000  Uiso   1.00
H536   H     0.04787   0.90748   0.03074   0.00000  Uiso   1.00
H537   H     0.03613   0.62937   0.32276   0.00000  Uiso   1.00
H538   H     0.06200   0.66325   0.27992   0.00000  Uiso   1.00
H539   H     0.02322   0.61780   0.21759   0.00000  Uiso   1.00
H540   H     0.05958   0.58627   0.25233   0.00000  Uiso   1.00
H541   H     0.43798   0.66301   0.05338   0.00000  Uiso   1.00
H542   H     0.00482   0.58239   0.26410   0.00000  Uiso   1.00
H543   H     0.22757   0.88216   0.03127   0.00000  Uiso   1.00
H544   H     0.23801   0.89517   0.09166   0.00000  Uiso   1.00
H545   H     0.29788   0.84254   0.03054   0.00000  Uiso   1.00
H546   H     0.29942   0.85140   0.09289   0.00000  Uiso   1.00
H547   H     0.25869   0.81822   0.06758   0.00000  Uiso   1.00
H548   H     0.31235   0.58668   0.27972   0.00000  Uiso   1.00
H549   H     0.28648   0.62053   0.32264   0.00000  Uiso   1.00
H550   H     0.25474   0.66728   0.26379   0.00000  Uiso   1.00
H551   H     0.30963   0.66402   0.25255   0.00000  Uiso   1.00
H552   H     0.47670   0.61773   0.11581   0.00000  Uiso   1.00
H553   H     0.27383   0.63216   0.21742   0.00000  Uiso   1.00
H554   H     0.18812   0.58695   0.05327   0.00000  Uiso   1.00
H555   H     0.21416   0.62076   0.01048   0.00000  Uiso   1.00
H556   H     0.19074   0.66405   0.08066   0.00000  Uiso   1.00
H557   H     0.22662   0.63223   0.11575   0.00000  Uiso   1.00
H558   H     0.24563   0.66750   0.06944   0.00000  Uiso   1.00
H559   H     0.27317   0.88255   0.30177   0.00000  Uiso   1.00
H560   H     0.26196   0.89521   0.24144   0.00000  Uiso   1.00
H561   H     0.20250   0.84260   0.30290   0.00000  Uiso   1.00
H562   H     0.20174   0.85047   0.24039   0.00000  Uiso   1.00
H563   H     0.44066   0.58596   0.08088   0.00000  Uiso   1.00
H564   H     0.24235   0.81804   0.26693   0.00000  Uiso   1.00
H565   H     0.37128   0.68425   0.06475   0.00000  Uiso   1.00
H566   H     0.32622   0.73976   0.08073   0.00000  Uiso   1.00
H567   H     0.34944   0.74750   0.13796   0.00000  Uiso   1.00
H568   H     0.31183   0.70371   0.12745   0.00000  Uiso   1.00
H569   H     0.08521   0.87386   0.27599   0.00000  Uiso   1.00
H570   H     0.14275   0.80378   0.25579   0.00000  Uiso   1.00
H571   H     0.09477   0.78302   0.28040   0.00000  Uiso   1.00
H572   H     0.12559   0.82387   0.31104   0.00000  Uiso   1.00
H573   H     0.10492   0.84308   0.05440   0.00000  Uiso   1.00
H574   H     0.49550   0.58244   0.06942   0.00000  Uiso   1.00
H575   H     0.16834   0.79690   0.07690   0.00000  Uiso   1.00
H576   H     0.12659   0.76809   0.04758   0.00000  Uiso   1.00
H577   H     0.13162   0.76392   0.11015   0.00000  Uiso   1.00
H578   H     0.43470   0.61101   0.26494   0.00000  Uiso   1.00
H579   H     0.38154   0.69295   0.26164   0.00000  Uiso   1.00
H580   H     0.41629   0.67938   0.30802   0.00000  Uiso   1.00
H581   H     0.37199   0.64401   0.29683   0.00000  Uiso   1.00
H582   H     0.12870   0.68454   0.26854   0.00000  Uiso   1.00
H583   H     0.18817   0.70338   0.20466   0.00000  Uiso   1.00
H584   H     0.17530   0.73843   0.25273   0.00000  Uiso   1.00
H585   H     0.01350   0.85520   0.24173   0.00000  Uiso   1.00
H586   H     0.15120   0.74811   0.19626   0.00000  Uiso   1.00
H587   H     0.41694   0.87584   0.05826   0.00000  Uiso   1.00
H588   H     0.35966   0.80436   0.07812   0.00000  Uiso   1.00
H589   H     0.40711   0.78603   0.05048   0.00000  Uiso   1.00
H590   H     0.37445   0.82738   0.02313   0.00000  Uiso   1.00
H591   H     0.39681   0.84495   0.27961   0.00000  Uiso   1.00
H592   H     0.33401   0.79727   0.25752   0.00000  Uiso   1.00
H593   H     0.37660   0.76928   0.28623   0.00000  Uiso   1.00
H594   H     0.37110   0.76536   0.22374   0.00000  Uiso   1.00
H595   H     0.06547   0.61129   0.06855   0.00000  Uiso   1.00
H596   H     0.02466   0.86689   0.30233   0.00000  Uiso   1.00
H597   H     0.11894   0.69300   0.07124   0.00000  Uiso   1.00
H598   H     0.08362   0.67989   0.02527   0.00000  Uiso   1.00
H599   H     0.12783   0.64416   0.03579   0.00000  Uiso   1.00
H600   H     0.16686   0.87447   0.05817   0.00000  Uiso   1.00
H601   H     0.12494   0.92284   0.02226   0.00000  Uiso   1.00
H602   H     0.15695   0.96443   0.05020   0.00000  Uiso   1.00
H603   H     0.10921   0.94566   0.07692   0.00000  Uiso   1.00
H604   H     0.38002   0.56428   0.26821   0.00000  Uiso   1.00
H605   H     0.40372   0.50733   0.18824   0.00000  Uiso   1.00
H606   H     0.41921   0.50220   0.24854   0.00000  Uiso   1.00
H607   H     0.49529   0.93189   0.26462   0.00000  Uiso   1.00
H608   H     0.44138   0.54536   0.21342   0.00000  Uiso   1.00
H609   H     0.31551   0.63854   0.06881   0.00000  Uiso   1.00
H610   H     0.36928   0.55705   0.07090   0.00000  Uiso   1.00
H611   H     0.37780   0.60604   0.03557   0.00000  Uiso   1.00
H612   H     0.33369   0.57010   0.02521   0.00000  Uiso   1.00
H613   H     0.14611   0.90637   0.27885   0.00000  Uiso   1.00
H614   H     0.11757   0.98511   0.22357   0.00000  Uiso   1.00
H615   H     0.12324   0.98097   0.28607   0.00000  Uiso   1.00
H616   H     0.08170   0.95140   0.25720   0.00000  Uiso   1.00
H617   H     0.33485   0.87403   0.27597   0.00000  Uiso   1.00
H618   H     0.45184   0.90019   0.24329   0.00000  Uiso   1.00
H619   H     0.39052   0.93104   0.28675   0.00000  Uiso   1.00
H620   H     0.34024   0.94487   0.30990   0.00000  Uiso   1.00
H621   H     0.35596   0.96830   0.25549   0.00000  Uiso   1.00
H622   H     0.12140   0.56572   0.06450   0.00000  Uiso   1.00
H623   H     0.09946   0.50180   0.13691   0.00000  Uiso   1.00
H624   H     0.07602   0.51045   0.07993   0.00000  Uiso   1.00
H625   H     0.06189   0.54579   0.12732   0.00000  Uiso   1.00
H626   H     0.18436   0.63855   0.26479   0.00000  Uiso   1.00
H627   H     0.12199   0.60534   0.29739   0.00000  Uiso   1.00
H628   H     0.16648   0.57012   0.30821   0.00000  Uiso   1.00
N629   N     0.00000   0.75000   0.28402   0.00000  Uiso   1.00
N630   N     0.40975   0.84996   0.08034   0.00000  Uiso   1.00
N631   N     0.39307   0.82693   0.24932   0.00000  Uiso   1.00
N632   N     0.07901   0.63855   0.08430   0.00000  Uiso   1.00
N633   N     0.15959   0.90048   0.08004   0.00000  Uiso   1.00
N634   N     0.37866   0.55565   0.23347   0.00000  Uiso   1.00
N635   N     0.32917   0.61125   0.08438   0.00000  Uiso   1.00
N636   N     0.14178   0.92439   0.24866   0.00000  Uiso   1.00
N637   N     0.33959   0.90035   0.25364   0.00000  Uiso   1.00
N638   N     0.12229   0.55667   0.09914   0.00000  Uiso   1.00
N639   N     0.17089   0.61126   0.24903   0.00000  Uiso   1.00
N640   N     0.00000   0.75000   0.04931   0.00000  Uiso   1.00
N641   N     0.35889   0.92538   0.08485   0.00000  Uiso   1.00
N642   N     0.25000   0.50000   0.28402   0.00000  Uiso   1.00
N643   N     0.25000   0.50000   0.04931   0.00000  Uiso   1.00
N644   N     0.37231   0.69314   0.09943   0.00000  Uiso   1.00
N645   N     0.09173   0.84814   0.25349   0.00000  Uiso   1.00
N646   N     0.10863   0.82505   0.08469   0.00000  Uiso   1.00
N647   N     0.42124   0.63817   0.24895   0.00000  Uiso   1.00
N648   N     0.12796   0.69333   0.23381   0.00000  Uiso   1.00
O649   O     0.04509   0.70491   0.20625   0.00000  Uiso   1.00
O650   O     0.20492   0.54509   0.12709   0.00000  Uiso   1.00
O651   O     0.20492   0.54509   0.20625   0.00000  Uiso   1.00
O652   O     0.29509   0.95491   0.12709   0.00000  Uiso   1.00
O653   O     0.20492   0.95491   0.12709   0.00000  Uiso   1.00
O654   O     0.29509   0.54509   0.20625   0.00000  Uiso   1.00
O655   O     0.29509   0.54509   0.12709   0.00000  Uiso   1.00
O656   O     0.20492   0.95491   0.20625   0.00000  Uiso   1.00
O657   O     0.00213   0.67118   0.05040   0.00000  Uiso   1.00
O658   O     0.47473   0.82434   0.28906   0.00000  Uiso   1.00
O659   O     0.02661   0.82367   0.04416   0.00000  Uiso   1.00
O660   O     0.45492   0.79509   0.12709   0.00000  Uiso   1.00
O661   O     0.49781   0.67117   0.28298   0.00000  Uiso   1.00
O662   O     0.27640   0.92629   0.04407   0.00000  Uiso   1.00
O663   O     0.24808   0.57882   0.28291   0.00000  Uiso   1.00
O664   O     0.25229   0.57883   0.05035   0.00000  Uiso   1.00
O665   O     0.22377   0.92615   0.28930   0.00000  Uiso   1.00
O666   O     0.45492   0.79509   0.20625   0.00000  Uiso   1.00
O667   O     0.04509   0.70491   0.12709   0.00000  Uiso   1.00
O668   O     0.45492   0.70491   0.12709   0.00000  Uiso   1.00
O669   O     0.04509   0.79509   0.20625   0.00000  Uiso   1.00
O670   O     0.04509   0.79509   0.12709   0.00000  Uiso   1.00
O671   O     0.45492   0.70491   0.20625   0.00000  Uiso   1.00
O672   O     0.29509   0.95491   0.20625   0.00000  Uiso   1.00
C673   C     0.56083   0.69211   0.16636   0.00000  Uiso   1.00
C674   C     0.99733   0.78944   0.30855   0.00000  Uiso   1.00
C675   C     0.50323   0.78937   0.02478   0.00000  Uiso   1.00
C676   C     0.50143   0.71041   0.30824   0.00000  Uiso   1.00
C677   C     0.75297   0.96061   0.02480   0.00000  Uiso   1.00
C678   C     0.75163   0.53958   0.30821   0.00000  Uiso   1.00
C679   C     0.74859   0.53959   0.02509   0.00000  Uiso   1.00
C680   C     0.74700   0.96061   0.30859   0.00000  Uiso   1.00
C681   C     0.87699   0.65645   0.13057   0.00000  Uiso   1.00
C682   C     0.60720   0.86222   0.20937   0.00000  Uiso   1.00
C683   C     0.61599   0.85076   0.12569   0.00000  Uiso   1.00
C684   C     0.93963   0.80848   0.16647   0.00000  Uiso   1.00
C685   C     0.90081   0.62930   0.20597   0.00000  Uiso   1.00
C686   C     0.62310   0.65656   0.20284   0.00000  Uiso   1.00
C687   C     0.89395   0.86372   0.12441   0.00000  Uiso   1.00
C688   C     0.88541   0.85249   0.20825   0.00000  Uiso   1.00
C689   C     0.59965   0.62982   0.12719   0.00000  Uiso   1.00
C690   C     0.64353   0.88694   0.12406   0.00000  Uiso   1.00
C691   C     0.87386   0.59251   0.20253   0.00000  Uiso   1.00
C692   C     0.84992   0.61982   0.12723   0.00000  Uiso   1.00
C693   C     0.63451   0.89861   0.20769   0.00000  Uiso   1.00
C694   C     0.85769   0.88859   0.20995   0.00000  Uiso   1.00
C695   C     0.93923   0.69204   0.16698   0.00000  Uiso   1.00
C696   C     0.62679   0.59323   0.13046   0.00000  Uiso   1.00
C697   C     0.65016   0.61992   0.20617   0.00000  Uiso   1.00
C698   C     0.86645   0.89990   0.12602   0.00000  Uiso   1.00
C699   C     0.59573   0.83996   0.16768   0.00000  Uiso   1.00
C700   C     0.90470   0.65945   0.16824   0.00000  Uiso   1.00
C701   C     0.90527   0.84128   0.16604   0.00000  Uiso   1.00
C702   C     0.59548   0.65967   0.16509   0.00000  Uiso   1.00
C703   C     0.84590   0.58978   0.16501   0.00000  Uiso   1.00
C704   C     0.65471   0.90950   0.16569   0.00000  Uiso   1.00
C705   C     0.65438   0.59011   0.16825   0.00000  Uiso   1.00
C706   C     0.56071   0.80802   0.16692   0.00000  Uiso   1.00
C707   C     0.84609   0.91061   0.16801   0.00000  Uiso   1.00
C708   C     0.96658   0.64394   0.04585   0.00000  Uiso   1.00
C709   C     0.97004   0.60523   0.08015   0.00000  Uiso   1.00
C710   C     0.50011   0.86072   0.27646   0.00000  Uiso   1.00
C711   C     0.97446   0.90324   0.27228   0.00000  Uiso   1.00
C712   C     0.50193   0.86036   0.05735   0.00000  Uiso   1.00
C713   C     0.52857   0.90211   0.06223   0.00000  Uiso   1.00
C714   C     0.53346   0.64407   0.28750   0.00000  Uiso   1.00
C715   C     0.53009   0.60534   0.25321   0.00000  Uiso   1.00
C716   C     0.75185   0.88945   0.05716   0.00000  Uiso   1.00
C717   C     0.81073   0.94206   0.16697   0.00000  Uiso   1.00
C718   C     0.77877   0.84794   0.06217   0.00000  Uiso   1.00
C719   C     0.78378   0.60586   0.28737   0.00000  Uiso   1.00
C720   C     0.78032   0.64463   0.25313   0.00000  Uiso   1.00
C721   C     0.71672   0.60605   0.04575   0.00000  Uiso   1.00
C722   C     0.72011   0.64475   0.08006   0.00000  Uiso   1.00
C723   C     0.74855   0.88950   0.27614   0.00000  Uiso   1.00
C724   C     0.72200   0.84767   0.27152   0.00000  Uiso   1.00
C725   C     0.83836   0.72252   0.11218   0.00000  Uiso   1.00
C726   C     0.61490   0.81283   0.27611   0.00000  Uiso   1.00
C727   C     0.63529   0.78651   0.07972   0.00000  Uiso   1.00
C728   C     0.68912   0.55781   0.16697   0.00000  Uiso   1.00
C729   C     0.89643   0.66485   0.28048   0.00000  Uiso   1.00
C730   C     0.66226   0.72228   0.22111   0.00000  Uiso   1.00
C731   C     0.88654   0.81509   0.05703   0.00000  Uiso   1.00
C732   C     0.86723   0.78771   0.25433   0.00000  Uiso   1.00
C733   C     0.60367   0.66511   0.05250   0.00000  Uiso   1.00
C734   C     0.63648   0.93520   0.05635   0.00000  Uiso   1.00
C735   C     0.91239   0.52620   0.22010   0.00000  Uiso   1.00
C736   C     0.85380   0.58492   0.05235   0.00000  Uiso   1.00
C737   C     0.61454   0.96241   0.25401   0.00000  Uiso   1.00
C738   C     0.85783   0.93809   0.27743   0.00000  Uiso   1.00
C739   C     0.68943   0.94180   0.16641   0.00000  Uiso   1.00
C740   C     0.58832   0.52718   0.11159   0.00000  Uiso   1.00
C741   C     0.64637   0.58457   0.28085   0.00000  Uiso   1.00
C742   C     0.88552   0.96389   0.07952   0.00000  Uiso   1.00
C743   C     0.81099   0.55766   0.16636   0.00000  Uiso   1.00
C744   C     0.99844   0.71041   0.02512   0.00000  Uiso   1.00
Cu745  Cu    0.50000   0.75000   0.21355   0.00000  Uiso   1.00
Cu746  Cu    0.50000   0.75000   0.11978   0.00000  Uiso   1.00
Cu747  Cu    0.75000   0.50000   0.21355   0.00000  Uiso   1.00
Cu748  Cu    0.75000   0.50000   0.11978   0.00000  Uiso   1.00
H749   H     0.96400   0.62922   0.01059   0.00000  Uiso   1.00
H750   H     0.95772   0.91031   0.30516   0.00000  Uiso   1.00
H751   H     0.63143   0.55642   0.26218   0.00000  Uiso   1.00
H752   H     0.85521   0.90725   0.05459   0.00000  Uiso   1.00
H753   H     0.88147   0.98688   0.10951   0.00000  Uiso   1.00
H754   H     0.87710   0.98183   0.04700   0.00000  Uiso   1.00
H755   H     0.91861   0.95355   0.07726   0.00000  Uiso   1.00
H756   H     0.98827   0.85458   0.09192   0.00000  Uiso   1.00
H757   H     0.97750   0.86737   0.03159   0.00000  Uiso   1.00
H758   H     0.50827   0.93172   0.06727   0.00000  Uiso   1.00
H759   H     0.54904   0.89903   0.09315   0.00000  Uiso   1.00
H760   H     0.54787   0.90748   0.03074   0.00000  Uiso   1.00
H761   H     0.53613   0.62937   0.32276   0.00000  Uiso   1.00
H762   H     0.56200   0.66325   0.27992   0.00000  Uiso   1.00
H763   H     0.52322   0.61780   0.21759   0.00000  Uiso   1.00
H764   H     0.55958   0.58627   0.25233   0.00000  Uiso   1.00
H765   H     0.93798   0.66301   0.05338   0.00000  Uiso   1.00
H766   H     0.50482   0.58239   0.26410   0.00000  Uiso   1.00
H767   H     0.72757   0.88216   0.03127   0.00000  Uiso   1.00
H768   H     0.73801   0.89517   0.09166   0.00000  Uiso   1.00
H769   H     0.79788   0.84254   0.03054   0.00000  Uiso   1.00
H770   H     0.79942   0.85140   0.09289   0.00000  Uiso   1.00
H771   H     0.75869   0.81822   0.06758   0.00000  Uiso   1.00
H772   H     0.81235   0.58668   0.27972   0.00000  Uiso   1.00
H773   H     0.78648   0.62053   0.32264   0.00000  Uiso   1.00
H774   H     0.75474   0.66728   0.26379   0.00000  Uiso   1.00
H775   H     0.80963   0.66402   0.25255   0.00000  Uiso   1.00
H776   H     0.97670   0.61773   0.11581   0.00000  Uiso   1.00
H777   H     0.77383   0.63216   0.21742   0.00000  Uiso   1.00
H778   H     0.68812   0.58695   0.05327   0.00000  Uiso   1.00
H779   H     0.71416   0.62076   0.01048   0.00000  Uiso   1.00
H780   H     0.69074   0.66405   0.08066   0.00000  Uiso   1.00
H781   H     0.72662   0.63223   0.11575   0.00000  Uiso   1.00
H782   H     0.74563   0.66750   0.06944   0.00000  Uiso   1.00
H783   H     0.77317   0.88255   0.30177   0.00000  Uiso   1.00
H784   H     0.76196   0.89521   0.24144   0.00000  Uiso   1.00
H785   H     0.70250   0.84260   0.30290   0.00000  Uiso   1.00
H786   H     0.70174   0.85047   0.24039   0.00000  Uiso   1.00
H787   H     0.94066   0.58596   0.08088   0.00000  Uiso   1.00
H788   H     0.74235   0.81804   0.26693   0.00000  Uiso   1.00
H789   H     0.87128   0.68425   0.06475   0.00000  Uiso   1.00
H790   H     0.82622   0.73976   0.08073   0.00000  Uiso   1.00
H791   H     0.84944   0.74750   0.13796   0.00000  Uiso   1.00
H792   H     0.81183   0.70371   0.12745   0.00000  Uiso   1.00
H793   H     0.58521   0.87386   0.27599   0.00000  Uiso   1.00
H794   H     0.64275   0.80378   0.25579   0.00000  Uiso   1.00
H795   H     0.59477   0.78302   0.28040   0.00000  Uiso   1.00
H796   H     0.62559   0.82387   0.31104   0.00000  Uiso   1.00
H797   H     0.60492   0.84308   0.05440   0.00000  Uiso   1.00
H798   H     0.99550   0.58244   0.06942   0.00000  Uiso   1.00
H799   H     0.66834   0.79690   0.07690   0.00000  Uiso   1.00
H800   H     0.62659   0.76809   0.04758   0.00000  Uiso   1.00
H801   H     0.63162   0.76392   0.11015   0.00000  Uiso   1.00
H802   H     0.93470   0.61101   0.26494   0.00000  Uiso   1.00
H803   H     0.88154   0.69295   0.26164   0.00000  Uiso   1.00
H804   H     0.91629   0.67938   0.30802   0.00000  Uiso   1.00
H805   H     0.87199   0.64401   0.29683   0.00000  Uiso   1.00
H806   H     0.62870   0.68454   0.26854   0.00000  Uiso   1.00
H807   H     0.68817   0.70338   0.20466   0.00000  Uiso   1.00
H808   H     0.67530   0.73843   0.25273   0.00000  Uiso   1.00
H809   H     0.51350   0.85520   0.24173   0.00000  Uiso   1.00
H810   H     0.65120   0.74811   0.19626   0.00000  Uiso   1.00
H811   H     0.91694   0.87584   0.05826   0.00000  Uiso   1.00
H812   H     0.85966   0.80436   0.07812   0.00000  Uiso   1.00
H813   H     0.90711   0.78603   0.05048   0.00000  Uiso   1.00
H814   H     0.87445   0.82738   0.02313   0.00000  Uiso   1.00
H815   H     0.89681   0.84495   0.27961   0.00000  Uiso   1.00
H816   H     0.83401   0.79727   0.25752   0.00000  Uiso   1.00
H817   H     0.87660   0.76928   0.28623   0.00000  Uiso   1.00
H818   H     0.87110   0.76536   0.22374   0.00000  Uiso   1.00
H819   H     0.56547   0.61129   0.06855   0.00000  Uiso   1.00
H820   H     0.52466   0.86689   0.30233   0.00000  Uiso   1.00
H821   H     0.61894   0.69300   0.07124   0.00000  Uiso   1.00
H822   H     0.58362   0.67989   0.02527   0.00000  Uiso   1.00
H823   H     0.62783   0.64416   0.03579   0.00000  Uiso   1.00
H824   H     0.66686   0.87447   0.05817   0.00000  Uiso   1.00
H825   H     0.62494   0.92284   0.02226   0.00000  Uiso   1.00
H826   H     0.65695   0.96443   0.05020   0.00000  Uiso   1.00
H827   H     0.60921   0.94566   0.07692   0.00000  Uiso   1.00
H828   H     0.88002   0.56428   0.26821   0.00000  Uiso   1.00
H829   H     0.90372   0.50733   0.18824   0.00000  Uiso   1.00
H830   H     0.91921   0.50220   0.24854   0.00000  Uiso   1.00
H831   H     0.99529   0.93189   0.26462   0.00000  Uiso   1.00
H832   H     0.94138   0.54536   0.21342   0.00000  Uiso   1.00
H833   H     0.81551   0.63854   0.06881   0.00000  Uiso   1.00
H834   H     0.86928   0.55705   0.07090   0.00000  Uiso   1.00
H835   H     0.87780   0.60604   0.03557   0.00000  Uiso   1.00
H836   H     0.83369   0.57010   0.02521   0.00000  Uiso   1.00
H837   H     0.64611   0.90637   0.27885   0.00000  Uiso   1.00
H838   H     0.61757   0.98511   0.22357   0.00000  Uiso   1.00
H839   H     0.62324   0.98097   0.28607   0.00000  Uiso   1.00
H840   H     0.58170   0.95140   0.25720   0.00000  Uiso   1.00
H841   H     0.83485   0.87403   0.27597   0.00000  Uiso   1.00
H842   H     0.95184   0.90019   0.24329   0.00000  Uiso   1.00
H843   H     0.89052   0.93104   0.28675   0.00000  Uiso   1.00
H844   H     0.84024   0.94487   0.30990   0.00000  Uiso   1.00
H845   H     0.85596   0.96830   0.25549   0.00000  Uiso   1.00
H846   H     0.62140   0.56572   0.06450   0.00000  Uiso   1.00
H847   H     0.59946   0.50180   0.13691   0.00000  Uiso   1.00
H848   H     0.57602   0.51045   0.07993   0.00000  Uiso   1.00
H849   H     0.56189   0.54579   0.12732   0.00000  Uiso   1.00
H850   H     0.68436   0.63855   0.26479   0.00000  Uiso   1.00
H851   H     0.62199   0.60534   0.29739   0.00000  Uiso   1.00
H852   H     0.66648   0.57012   0.30821   0.00000  Uiso   1.00
N853   N     0.50000   0.75000   0.28402   0.00000  Uiso   1.00
N854   N     0.90975   0.84996   0.08034   0.00000  Uiso   1.00
N855   N     0.89307   0.82693   0.24932   0.00000  Uiso   1.00
N856   N     0.57901   0.63855   0.08430   0.00000  Uiso   1.00
N857   N     0.65959   0.90048   0.08004   0.00000  Uiso   1.00
N858   N     0.87866   0.55565   0.23347   0.00000  Uiso   1.00
N859   N     0.82917   0.61125   0.08438   0.00000  Uiso   1.00
N860   N     0.64178   0.92439   0.24866   0.00000  Uiso   1.00
N861   N     0.83959   0.90035   0.25364   0.00000  Uiso   1.00
N862   N     0.62229   0.55667   0.09914   0.00000  Uiso   1.00
N863   N     0.67089   0.61126   0.24903   0.00000  Uiso   1.00
N864   N     0.50000   0.75000   0.04931   0.00000  Uiso   1.00
N865   N     0.85889   0.92538   0.08485   0.00000  Uiso   1.00
N866   N     0.75000   0.50000   0.28402   0.00000  Uiso   1.00
N867   N     0.75000   0.50000   0.04931   0.00000  Uiso   1.00
N868   N     0.87231   0.69314   0.09943   0.00000  Uiso   1.00
N869   N     0.59173   0.84814   0.25349   0.00000  Uiso   1.00
N870   N     0.60863   0.82505   0.08469   0.00000  Uiso   1.00
N871   N     0.92124   0.63817   0.24895   0.00000  Uiso   1.00
N872   N     0.62796   0.69333   0.23381   0.00000  Uiso   1.00
O873   O     0.54509   0.70491   0.20625   0.00000  Uiso   1.00
O874   O     0.70492   0.54509   0.12709   0.00000  Uiso   1.00
O875   O     0.70492   0.54509   0.20625   0.00000  Uiso   1.00
O876   O     0.79509   0.95491   0.12709   0.00000  Uiso   1.00
O877   O     0.70492   0.95491   0.12709   0.00000  Uiso   1.00
O878   O     0.79509   0.54509   0.20625   0.00000  Uiso   1.00
O879   O     0.79509   0.54509   0.12709   0.00000  Uiso   1.00
O880   O     0.70492   0.95491   0.20625   0.00000  Uiso   1.00
O881   O     0.50213   0.67118   0.05040   0.00000  Uiso   1.00
O882   O     0.97473   0.82434   0.28906   0.00000  Uiso   1.00
O883   O     0.52661   0.82367   0.04416   0.00000  Uiso   1.00
O884   O     0.95492   0.79509   0.12709   0.00000  Uiso   1.00
O885   O     0.99781   0.67117   0.28298   0.00000  Uiso   1.00
O886   O     0.77640   0.92629   0.04407   0.00000  Uiso   1.00
O887   O     0.74808   0.57882   0.28291   0.00000  Uiso   1.00
O888   O     0.75229   0.57883   0.05035   0.00000  Uiso   1.00
O889   O     0.72377   0.92615   0.28930   0.00000  Uiso   1.00
O890   O     0.95492   0.79509   0.20625   0.00000  Uiso   1.00
O891   O     0.54509   0.70491   0.12709   0.00000  Uiso   1.00
O892   O     0.95492   0.70491   0.12709   0.00000  Uiso   1.00
O893   O     0.54509   0.79509   0.20625   0.00000  Uiso   1.00
O894   O     0.54509   0.79509   0.12709   0.00000  Uiso   1.00
O895   O     0.95492   0.70491   0.20625   0.00000  Uiso   1.00
O896   O     0.79509   0.95491   0.20625   0.00000  Uiso   1.00
C897   C     0.06083   0.19211   0.49970   0.00000  Uiso   1.00
C898   C     0.49733   0.28944   0.64188   0.00000  Uiso   1.00
C899   C     0.00323   0.28937   0.35811   0.00000  Uiso   1.00
C900   C     0.00143   0.21041   0.64157   0.00000  Uiso   1.00
C901   C     0.25297   0.46061   0.35813   0.00000  Uiso   1.00
C902   C     0.25163   0.03958   0.64154   0.00000  Uiso   1.00
C903   C     0.24859   0.03959   0.35842   0.00000  Uiso   1.00
C904   C     0.24700   0.46061   0.64192   0.00000  Uiso   1.00
C905   C     0.37699   0.15645   0.46390   0.00000  Uiso   1.00
C906   C     0.10720   0.36222   0.54271   0.00000  Uiso   1.00
C907   C     0.11599   0.35076   0.45903   0.00000  Uiso   1.00
C908   C     0.43963   0.30848   0.49980   0.00000  Uiso   1.00
C909   C     0.40081   0.12930   0.53930   0.00000  Uiso   1.00
C910   C     0.12310   0.15656   0.53617   0.00000  Uiso   1.00
C911   C     0.39395   0.36372   0.45774   0.00000  Uiso   1.00
C912   C     0.38541   0.35249   0.54159   0.00000  Uiso   1.00
C913   C     0.09965   0.12982   0.46052   0.00000  Uiso   1.00
C914   C     0.14353   0.38694   0.45739   0.00000  Uiso   1.00
C915   C     0.37386   0.09251   0.53586   0.00000  Uiso   1.00
C916   C     0.34992   0.11982   0.46057   0.00000  Uiso   1.00
C917   C     0.13451   0.39861   0.54102   0.00000  Uiso   1.00
C918   C     0.35769   0.38859   0.54329   0.00000  Uiso   1.00
C919   C     0.43923   0.19204   0.50031   0.00000  Uiso   1.00
C920   C     0.12679   0.09323   0.46380   0.00000  Uiso   1.00
C921   C     0.15016   0.11992   0.53950   0.00000  Uiso   1.00
C922   C     0.36645   0.39990   0.45935   0.00000  Uiso   1.00
C923   C     0.09573   0.33996   0.50101   0.00000  Uiso   1.00
C924   C     0.40470   0.15945   0.50157   0.00000  Uiso   1.00
C925   C     0.40527   0.34128   0.49937   0.00000  Uiso   1.00
C926   C     0.09548   0.15967   0.49842   0.00000  Uiso   1.00
C927   C     0.34590   0.08978   0.49834   0.00000  Uiso   1.00
C928   C     0.15471   0.40950   0.49902   0.00000  Uiso   1.00
C929   C     0.15438   0.09011   0.50158   0.00000  Uiso   1.00
C930   C     0.06071   0.30802   0.50026   0.00000  Uiso   1.00
C931   C     0.34609   0.41061   0.50134   0.00000  Uiso   1.00
C932   C     0.46658   0.14394   0.37918   0.00000  Uiso   1.00
C933   C     0.47004   0.10523   0.41349   0.00000  Uiso   1.00
C934   C     0.00011   0.36072   0.60979   0.00000  Uiso   1.00
C935   C     0.47446   0.40324   0.60561   0.00000  Uiso   1.00
C936   C     0.00193   0.36036   0.39069   0.00000  Uiso   1.00
C937   C     0.02857   0.40211   0.39556   0.00000  Uiso   1.00
C938   C     0.03346   0.14407   0.62083   0.00000  Uiso   1.00
C939   C     0.03009   0.10534   0.58655   0.00000  Uiso   1.00
C940   C     0.25185   0.38945   0.39049   0.00000  Uiso   1.00
C941   C     0.31073   0.44206   0.50030   0.00000  Uiso   1.00
C942   C     0.27877   0.34794   0.39550   0.00000  Uiso   1.00
C943   C     0.28378   0.10586   0.62071   0.00000  Uiso   1.00
C944   C     0.28032   0.14463   0.58646   0.00000  Uiso   1.00
C945   C     0.21672   0.10605   0.37908   0.00000  Uiso   1.00
C946   C     0.22011   0.14475   0.41340   0.00000  Uiso   1.00
C947   C     0.24855   0.38950   0.60948   0.00000  Uiso   1.00
C948   C     0.22200   0.34767   0.60485   0.00000  Uiso   1.00
C949   C     0.33836   0.22252   0.44551   0.00000  Uiso   1.00
C950   C     0.11490   0.31283   0.60944   0.00000  Uiso   1.00
C951   C     0.13529   0.28651   0.41305   0.00000  Uiso   1.00
C952   C     0.18912   0.05781   0.50030   0.00000  Uiso   1.00
C953   C     0.39643   0.16485   0.61381   0.00000  Uiso   1.00
C954   C     0.16226   0.22228   0.55444   0.00000  Uiso   1.00
C955   C     0.38654   0.31509   0.39037   0.00000  Uiso   1.00
C956   C     0.36723   0.28771   0.58766   0.00000  Uiso   1.00
C957   C     0.10367   0.16511   0.38584   0.00000  Uiso   1.00
C958   C     0.13648   0.43520   0.38969   0.00000  Uiso   1.00
C959   C     0.41239   0.02620   0.55343   0.00000  Uiso   1.00
C960   C     0.35380   0.08492   0.38568   0.00000  Uiso   1.00
C961   C     0.11454   0.46241   0.58735   0.00000  Uiso   1.00
C962   C     0.35783   0.43809   0.61077   0.00000  Uiso   1.00
C963   C     0.18943   0.44180   0.49975   0.00000  Uiso   1.00
C964   C     0.08832   0.02718   0.44492   0.00000  Uiso   1.00
C965   C     0.14637   0.08457   0.61418   0.00000  Uiso   1.00
C966   C     0.38552   0.46389   0.41285   0.00000  Uiso   1.00
C967   C     0.31099   0.05766   0.49969   0.00000  Uiso   1.00
C968   C     0.49844   0.21041   0.35845   0.00000  Uiso   1.00
Cu969  Cu    0.00000   0.25000   0.54689   0.00000  Uiso   1.00
Cu970  Cu    0.00000   0.25000   0.45311   0.00000  Uiso   1.00
Cu971  Cu    0.25000  -0.00000   0.54689   0.00000  Uiso   1.00
Cu972  Cu    0.25000  -0.00000   0.45311   0.00000  Uiso   1.00
H973   H     0.46400   0.12922   0.34392   0.00000  Uiso   1.00
H974   H     0.45772   0.41031   0.63849   0.00000  Uiso   1.00
H975   H     0.13143   0.05642   0.59551   0.00000  Uiso   1.00
H976   H     0.35521   0.40725   0.38793   0.00000  Uiso   1.00
H977   H     0.38147   0.48688   0.44285   0.00000  Uiso   1.00
H978   H     0.37710   0.48183   0.38033   0.00000  Uiso   1.00
H979   H     0.41861   0.45355   0.41060   0.00000  Uiso   1.00
H980   H     0.48827   0.35458   0.42525   0.00000  Uiso   1.00
H981   H     0.47750   0.36737   0.36492   0.00000  Uiso   1.00
H982   H     0.00827   0.43172   0.40060   0.00000  Uiso   1.00
H983   H     0.04904   0.39903   0.42648   0.00000  Uiso   1.00
H984   H     0.04787   0.40748   0.36408   0.00000  Uiso   1.00
H985   H     0.03613   0.12937   0.65610   0.00000  Uiso   1.00
H986   H     0.06200   0.16325   0.61326   0.00000  Uiso   1.00
H987   H     0.02322   0.11780   0.55092   0.00000  Uiso   1.00
H988   H     0.05958   0.08627   0.58566   0.00000  Uiso   1.00
H989   H     0.43798   0.16301   0.38671   0.00000  Uiso   1.00
H990   H     0.00482   0.08239   0.59743   0.00000  Uiso   1.00
H991   H     0.22757   0.38216   0.36461   0.00000  Uiso   1.00
H992   H     0.23801   0.39517   0.42499   0.00000  Uiso   1.00
H993   H     0.29788   0.34254   0.36387   0.00000  Uiso   1.00
H994   H     0.29942   0.35140   0.42623   0.00000  Uiso   1.00
H995   H     0.25869   0.31822   0.40091   0.00000  Uiso   1.00
H996   H     0.31235   0.08668   0.61305   0.00000  Uiso   1.00
H997   H     0.28648   0.12053   0.65598   0.00000  Uiso   1.00
H998   H     0.25474   0.16728   0.59712   0.00000  Uiso   1.00
H999   H     0.30963   0.16402   0.58588   0.00000  Uiso   1.00
H1000  H     0.47670   0.11773   0.44914   0.00000  Uiso   1.00
H1001  H     0.27383   0.13216   0.55076   0.00000  Uiso   1.00
H1002  H     0.18812   0.08695   0.38660   0.00000  Uiso   1.00
H1003  H     0.21416   0.12076   0.34381   0.00000  Uiso   1.00
H1004  H     0.19074   0.16405   0.41399   0.00000  Uiso   1.00
H1005  H     0.22662   0.13223   0.44908   0.00000  Uiso   1.00
H1006  H     0.24563   0.16750   0.40277   0.00000  Uiso   1.00
H1007  H     0.27317   0.38255   0.63511   0.00000  Uiso   1.00
H1008  H     0.26196   0.39521   0.57477   0.00000  Uiso   1.00
H1009  H     0.20250   0.34260   0.63623   0.00000  Uiso   1.00
H1010  H     0.20174   0.35047   0.57373   0.00000  Uiso   1.00
H1011  H     0.44066   0.08596   0.41422   0.00000  Uiso   1.00
H1012  H     0.24235   0.31804   0.60027   0.00000  Uiso   1.00
H1013  H     0.37128   0.18425   0.39808   0.00000  Uiso   1.00
H1014  H     0.32622   0.23976   0.41407   0.00000  Uiso   1.00
H1015  H     0.34944   0.24750   0.47129   0.00000  Uiso   1.00
H1016  H     0.31183   0.20371   0.46078   0.00000  Uiso   1.00
H1017  H     0.08521   0.37386   0.60932   0.00000  Uiso   1.00
H1018  H     0.14275   0.30378   0.58912   0.00000  Uiso   1.00
H1019  H     0.09477   0.28302   0.61374   0.00000  Uiso   1.00
H1020  H     0.12559   0.32387   0.64437   0.00000  Uiso   1.00
H1021  H     0.10492   0.34308   0.38773   0.00000  Uiso   1.00
H1022  H     0.49550   0.08244   0.40275   0.00000  Uiso   1.00
H1023  H     0.16834   0.29690   0.41023   0.00000  Uiso   1.00
H1024  H     0.12659   0.26809   0.38092   0.00000  Uiso   1.00
H1025  H     0.13162   0.26392   0.44349   0.00000  Uiso   1.00
H1026  H     0.43470   0.11101   0.59828   0.00000  Uiso   1.00
H1027  H     0.38154   0.19295   0.59497   0.00000  Uiso   1.00
H1028  H     0.41629   0.17938   0.64136   0.00000  Uiso   1.00
H1029  H     0.37199   0.14401   0.63017   0.00000  Uiso   1.00
H1030  H     0.12870   0.18454   0.60187   0.00000  Uiso   1.00
H1031  H     0.18817   0.20338   0.53799   0.00000  Uiso   1.00
H1032  H     0.17530   0.23843   0.58607   0.00000  Uiso   1.00
H1033  H     0.01350   0.35520   0.57506   0.00000  Uiso   1.00
H1034  H     0.15120   0.24811   0.52959   0.00000  Uiso   1.00
H1035  H     0.41694   0.37584   0.39160   0.00000  Uiso   1.00
H1036  H     0.35966   0.30436   0.41145   0.00000  Uiso   1.00
H1037  H     0.40711   0.28603   0.38381   0.00000  Uiso   1.00
H1038  H     0.37445   0.32738   0.35647   0.00000  Uiso   1.00
H1039  H     0.39681   0.34495   0.61295   0.00000  Uiso   1.00
H1040  H     0.33401   0.29727   0.59085   0.00000  Uiso   1.00
H1041  H     0.37660   0.26928   0.61956   0.00000  Uiso   1.00
H1042  H     0.37110   0.26536   0.55707   0.00000  Uiso   1.00
H1043  H     0.06547   0.11129   0.40188   0.00000  Uiso   1.00
H1044  H     0.02466   0.36689   0.63566   0.00000  Uiso   1.00
H1045  H     0.11894   0.19300   0.40457   0.00000  Uiso   1.00
H1046  H     0.08362   0.17989   0.35861   0.00000  Uiso   1.00
H1047  H     0.12783   0.14416   0.36912   0.00000  Uiso   1.00
H1048  H     0.16686   0.37447   0.39150   0.00000  Uiso   1.00
H1049  H     0.12494   0.42284   0.35559   0.00000  Uiso   1.00
H1050  H     0.15695   0.46443   0.38354   0.00000  Uiso   1.00
H1051  H     0.10921   0.44566   0.41026   0.00000  Uiso   1.00
H1052  H     0.38002   0.06428   0.60154   0.00000  Uiso   1.00
H1053  H     0.40372   0.00733   0.52157   0.00000  Uiso   1.00
H1054  H     0.41921   0.00220   0.58188   0.00000  Uiso   1.00
H1055  H     0.49529   0.43189   0.59795   0.00000  Uiso   1.00
H1056  H     0.44138   0.04536   0.54675   0.00000  Uiso   1.00
H1057  H     0.31551   0.13854   0.40214   0.00000  Uiso   1.00
H1058  H     0.36928   0.05705   0.40423   0.00000  Uiso   1.00
H1059  H     0.37780   0.10604   0.36891   0.00000  Uiso   1.00
H1060  H     0.33369   0.07010   0.35854   0.00000  Uiso   1.00
H1061  H     0.14611   0.40637   0.61218   0.00000  Uiso   1.00
H1062  H     0.11757   0.48511   0.55690   0.00000  Uiso   1.00
H1063  H     0.12324   0.48097   0.61940   0.00000  Uiso   1.00
H1064  H     0.08170   0.45140   0.59054   0.00000  Uiso   1.00
H1065  H     0.33485   0.37403   0.60931   0.00000  Uiso   1.00
H1066  H     0.45184   0.40019   0.57663   0.00000  Uiso   1.00
H1067  H     0.39052   0.43104   0.62008   0.00000  Uiso   1.00
H1068  H     0.34024   0.44487   0.64323   0.00000  Uiso   1.00
H1069  H     0.35596   0.46830   0.58882   0.00000  Uiso   1.00
H1070  H     0.12140   0.06572   0.39783   0.00000  Uiso   1.00
H1071  H     0.09946   0.00180   0.47024   0.00000  Uiso   1.00
H1072  H     0.07602   0.01045   0.41326   0.00000  Uiso   1.00
H1073  H     0.06189   0.04579   0.46065   0.00000  Uiso   1.00
H1074  H     0.18436   0.13855   0.59812   0.00000  Uiso   1.00
H1075  H     0.12199   0.10534   0.63072   0.00000  Uiso   1.00
H1076  H     0.16648   0.07012   0.64155   0.00000  Uiso   1.00
N1077  N     0.00000   0.25000   0.61736   0.00000  Uiso   1.00
N1078  N     0.40975   0.34996   0.41367   0.00000  Uiso   1.00
N1079  N     0.39307   0.32693   0.58266   0.00000  Uiso   1.00
N1080  N     0.07901   0.13855   0.41764   0.00000  Uiso   1.00
N1081  N     0.15959   0.40048   0.41337   0.00000  Uiso   1.00
N1082  N     0.37866   0.05565   0.56681   0.00000  Uiso   1.00
N1083  N     0.32917   0.11125   0.41771   0.00000  Uiso   1.00
N1084  N     0.14178   0.42439   0.58199   0.00000  Uiso   1.00
N1085  N     0.33959   0.40035   0.58697   0.00000  Uiso   1.00
N1086  N     0.12229   0.05667   0.43248   0.00000  Uiso   1.00
N1087  N     0.17089   0.11126   0.58236   0.00000  Uiso   1.00
N1088  N     0.00000   0.25000   0.38264   0.00000  Uiso   1.00
N1089  N     0.35889   0.42538   0.41818   0.00000  Uiso   1.00
N1090  N     0.25000  -0.00000   0.61736   0.00000  Uiso   1.00
N1091  N     0.25000  -0.00000   0.38264   0.00000  Uiso   1.00
N1092  N     0.37231   0.19314   0.43276   0.00000  Uiso   1.00
N1093  N     0.09173   0.34814   0.58682   0.00000  Uiso   1.00
N1094  N     0.10863   0.32505   0.41802   0.00000  Uiso   1.00
N1095  N     0.42124   0.13817   0.58228   0.00000  Uiso   1.00
N1096  N     0.12796   0.19333   0.56714   0.00000  Uiso   1.00
O1097  O     0.04509   0.20491   0.53958   0.00000  Uiso   1.00
O1098  O     0.20492   0.04509   0.46042   0.00000  Uiso   1.00
O1099  O     0.20492   0.04509   0.53958   0.00000  Uiso   1.00
O1100  O     0.29509   0.45491   0.46042   0.00000  Uiso   1.00
O1101  O     0.20492   0.45491   0.46042   0.00000  Uiso   1.00
O1102  O     0.29509   0.04509   0.53958   0.00000  Uiso   1.00
O1103  O     0.29509   0.04509   0.46042   0.00000  Uiso   1.00
O1104  O     0.20492   0.45491   0.53958   0.00000  Uiso   1.00
O1105  O     0.00213   0.17118   0.38374   0.00000  Uiso   1.00
O1106  O     0.47473   0.32434   0.62239   0.00000  Uiso   1.00
O1107  O     0.02661   0.32367   0.37749   0.00000  Uiso   1.00
O1108  O     0.45492   0.29509   0.46042   0.00000  Uiso   1.00
O1109  O     0.49781   0.17117   0.61631   0.00000  Uiso   1.00
O1110  O     0.27640   0.42629   0.37740   0.00000  Uiso   1.00
O1111  O     0.24808   0.07882   0.61624   0.00000  Uiso   1.00
O1112  O     0.25229   0.07883   0.38368   0.00000  Uiso   1.00
O1113  O     0.22377   0.42615   0.62264   0.00000  Uiso   1.00
O1114  O     0.45492   0.29509   0.53958   0.00000  Uiso   1.00
O1115  O     0.04509   0.20491   0.46042   0.00000  Uiso   1.00
O1116  O     0.45492   0.20491   0.46042   0.00000  Uiso   1.00
O1117  O     0.04509   0.29509   0.53958   0.00000  Uiso   1.00
O1118  O     0.04509   0.29509   0.46042   0.00000  Uiso   1.00
O1119  O     0.45492   0.20491   0.53958   0.00000  Uiso   1.00
O1120  O     0.29509   0.45491   0.53958   0.00000  Uiso   1.00
C1121  C     0.56083   0.19211   0.49970   0.00000  Uiso   1.00
C1122  C     0.99733   0.28944   0.64188   0.00000  Uiso   1.00
C1123  C     0.50323   0.28937   0.35811   0.00000  Uiso   1.00
C1124  C     0.50143   0.21041   0.64157   0.00000  Uiso   1.00
C1125  C     0.75297   0.46061   0.35813   0.00000  Uiso   1.00
C1126  C     0.75163   0.03958   0.64154   0.00000  Uiso   1.00
C1127  C     0.74859   0.03959   0.35842   0.00000  Uiso   1.00
C1128  C     0.74700   0.46061   0.64192   0.00000  Uiso   1.00
C1129  C     0.87699   0.15645   0.46390   0.00000  Uiso   1.00
C1130  C     0.60720   0.36222   0.54271   0.00000  Uiso   1.00
C1131  C     0.61599   0.35076   0.45903   0.00000  Uiso   1.00
C1132  C     0.93963   0.30848   0.49980   0.00000  Uiso   1.00
C1133  C     0.90081   0.12930   0.53930   0.00000  Uiso   1.00
C1134  C     0.62310   0.15656   0.53617   0.00000  Uiso   1.00
C1135  C     0.89395   0.36372   0.45774   0.00000  Uiso   1.00
C1136  C     0.88541   0.35249   0.54159   0.00000  Uiso   1.00
C1137  C     0.59965   0.12982   0.46052   0.00000  Uiso   1.00
C1138  C     0.64353   0.38694   0.45739   0.00000  Uiso   1.00
C1139  C     0.87386   0.09251   0.53586   0.00000  Uiso   1.00
C1140  C     0.84992   0.11982   0.46057   0.00000  Uiso   1.00
C1141  C     0.63451   0.39861   0.54102   0.00000  Uiso   1.00
C1142  C     0.85769   0.38859   0.54329   0.00000  Uiso   1.00
C1143  C     0.93923   0.19204   0.50031   0.00000  Uiso   1.00
C1144  C     0.62679   0.09323   0.46380   0.00000  Uiso   1.00
C1145  C     0.65016   0.11992   0.53950   0.00000  Uiso   1.00
C1146  C     0.86645   0.39990   0.45935   0.00000  Uiso   1.00
C1147  C     0.59573   0.33996   0.50101   0.00000  Uiso   1.00
C1148  C     0.90470   0.15945   0.50157   0.00000  Uiso   1.00
C1149  C     0.90527   0.34128   0.49937   0.00000  Uiso   1.00
C1150  C     0.59548   0.15967   0.49842   0.00000  Uiso   1.00
C1151  C     0.84590   0.08978   0.49834   0.00000  Uiso   1.00
C1152  C     0.65471   0.40950   0.49902   0.00000  Uiso   1.00
C1153  C     0.65438   0.09011   0.50158   0.00000  Uiso   1.00
C1154  C     0.56071   0.30802   0.50026   0.00000  Uiso   1.00
C1155  C     0.84609   0.41061   0.50134   0.00000  Uiso   1.00
C1156  C     0.96658   0.14394   0.37918   0.00000  Uiso   1.00
C1157  C     0.97004   0.10523   0.41349   0.00000  Uiso   1.00
C1158  C     0.50011   0.36072   0.60979   0.00000  Uiso   1.00
C1159  C     0.97446   0.40324   0.60561   0.00000  Uiso   1.00
C1160  C     0.50193   0.36036   0.39069   0.00000  Uiso   1.00
C1161  C     0.52857   0.40211   0.39556   0.00000  Uiso   1.00
C1162  C     0.53346   0.14407   0.62083   0.00000  Uiso   1.00
C1163  C     0.53009   0.10534   0.58655   0.00000  Uiso   1.00
C1164  C     0.75185   0.38945   0.39049   0.00000  Uiso   1.00
C1165  C     0.81073   0.44206   0.50030   0.00000  Uiso   1.00
C1166  C     0.77877   0.34794   0.39550   0.00000  Uiso   1.00
C1167  C     0.78378   0.10586   0.62071   0.00000  Uiso   1.00
C1168  C     0.78032   0.14463   0.58646   0.00000  Uiso   1.00
C1169  C     0.71672   0.10605   0.37908   0.00000  Uiso   1.00
C1170  C     0.72011   0.14475   0.41340   0.00000  Uiso   1.00
C1171  C     0.74855   0.38950   0.60948   0.00000  Uiso   1.00
C1172  C     0.72200   0.34767   0.60485   0.00000  Uiso   1.00
C1173  C     0.83836   0.22252   0.44551   0.00000  Uiso   1.00
C1174  C     0.61490   0.31283   0.60944   0.00000  Uiso   1.00
C1175  C     0.63529   0.28651   0.41305   0.00000  Uiso   1.00
C1176  C     0.68912   0.05781   0.50030   0.00000  Uiso   1.00
C1177  C     0.89643   0.16485   0.61381   0.00000  Uiso   1.00
C1178  C     0.66226   0.22228   0.55444   0.00000  Uiso   1.00
C1179  C     0.88654   0.31509   0.39037   0.00000  Uiso   1.00
C1180  C     0.86723   0.28771   0.58766   0.00000  Uiso   1.00
C1181  C     0.60367   0.16511   0.38584   0.00000  Uiso   1.00
C1182  C     0.63648   0.43520   0.38969   0.00000  Uiso   1.00
C1183  C     0.91239   0.02620   0.55343   0.00000  Uiso   1.00
C1184  C     0.85380   0.08492   0.38568   0.00000  Uiso   1.00
C1185  C     0.61454   0.46241   0.58735   0.00000  Uiso   1.00
C1186  C     0.85783   0.43809   0.61077   0.00000  Uiso   1.00
C1187  C     0.68943   0.44180   0.49975   0.00000  Uiso   1.00
C1188  C     0.58832   0.02718   0.44492   0.00000  Uiso   1.00
C1189  C     0.64637   0.08457   0.61418   0.00000  Uiso   1.00
C1190  C     0.88552   0.46389   0.41285   0.00000  Uiso   1.00
C1191  C     0.81099   0.05766   0.49969   0.00000  Uiso   1.00
C1192  C     0.99844   0.21041   0.35845   0.00000  Uiso   1.00
Cu1193 Cu    0.50000   0.25000   0.54689   0.00000  Uiso   1.00
Cu1194 Cu    0.50000   0.25000   0.45311   0.00000  Uiso   1.00
Cu1195 Cu    0.75000  -0.00000   0.54689   0.00000  Uiso   1.00
Cu1196 Cu    0.75000  -0.00000   0.45311   0.00000  Uiso   1.00
H1197  H     0.96400   0.12922   0.34392   0.00000  Uiso   1.00
H1198  H     0.95772   0.41031   0.63849   0.00000  Uiso   1.00
H1199  H     0.63143   0.05642   0.59551   0.00000  Uiso   1.00
H1200  H     0.85521   0.40725   0.38793   0.00000  Uiso   1.00
H1201  H     0.88147   0.48688   0.44285   0.00000  Uiso   1.00
H1202  H     0.87710   0.48183   0.38033   0.00000  Uiso   1.00
H1203  H     0.91861   0.45355   0.41060   0.00000  Uiso   1.00
H1204  H     0.98827   0.35458   0.42525   0.00000  Uiso   1.00
H1205  H     0.97750   0.36737   0.36492   0.00000  Uiso   1.00
H1206  H     0.50827   0.43172   0.40060   0.00000  Uiso   1.00
H1207  H     0.54904   0.39903   0.42648   0.00000  Uiso   1.00
H1208  H     0.54787   0.40748   0.36408   0.00000  Uiso   1.00
H1209  H     0.53613   0.12937   0.65610   0.00000  Uiso   1.00
H1210  H     0.56200   0.16325   0.61326   0.00000  Uiso   1.00
H1211  H     0.52322   0.11780   0.55092   0.00000  Uiso   1.00
H1212  H     0.55958   0.08627   0.58566   0.00000  Uiso   1.00
H1213  H     0.93798   0.16301   0.38671   0.00000  Uiso   1.00
H1214  H     0.50482   0.08239   0.59743   0.00000  Uiso   1.00
H1215  H     0.72757   0.38216   0.36461   0.00000  Uiso   1.00
H1216  H     0.73801   0.39517   0.42499   0.00000  Uiso   1.00
H1217  H     0.79788   0.34254   0.36387   0.00000  Uiso   1.00
H1218  H     0.79942   0.35140   0.42623   0.00000  Uiso   1.00
H1219  H     0.75869   0.31822   0.40091   0.00000  Uiso   1.00
H1220  H     0.81235   0.08668   0.61305   0.00000  Uiso   1.00
H1221  H     0.78648   0.12053   0.65598   0.00000  Uiso   1.00
H1222  H     0.75474   0.16728   0.59712   0.00000  Uiso   1.00
H1223  H     0.80963   0.16402   0.58588   0.00000  Uiso   1.00
H1224  H     0.97670   0.11773   0.44914   0.00000  Uiso   1.00
H1225  H     0.77383   0.13216   0.55076   0.00000  Uiso   1.00
H1226  H     0.68812   0.08695   0.38660   0.00000  Uiso   1.00
H1227  H     0.71416   0.12076   0.34381   0.00000  Uiso   1.00
H1228  H     0.69074   0.16405   0.41399   0.00000  Uiso   1.00
H1229  H     0.72662   0.13223   0.44908   0.00000  Uiso   1.00
H1230  H     0.74563   0.16750   0.40277   0.00000  Uiso   1.00
H1231  H     0.77317   0.38255   0.63511   0.00000  Uiso   1.00
H1232  H     0.76196   0.39521   0.57477   0.00000  Uiso   1.00
H1233  H     0.70250   0.34260   0.63623   0.00000  Uiso   1.00
H1234  H     0.70174   0.35047   0.57373   0.00000  Uiso   1.00
H1235  H     0.94066   0.08596   0.41422   0.00000  Uiso   1.00
H1236  H     0.74235   0.31804   0.60027   0.00000  Uiso   1.00
H1237  H     0.87128   0.18425   0.39808   0.00000  Uiso   1.00
H1238  H     0.82622   0.23976   0.41407   0.00000  Uiso   1.00
H1239  H     0.84944   0.24750   0.47129   0.00000  Uiso   1.00
H1240  H     0.81183   0.20371   0.46078   0.00000  Uiso   1.00
H1241  H     0.58521   0.37386   0.60932   0.00000  Uiso   1.00
H1242  H     0.64275   0.30378   0.58912   0.00000  Uiso   1.00
H1243  H     0.59477   0.28302   0.61374   0.00000  Uiso   1.00
H1244  H     0.62559   0.32387   0.64437   0.00000  Uiso   1.00
H1245  H     0.60492   0.34308   0.38773   0.00000  Uiso   1.00
H1246  H     0.99550   0.08244   0.40275   0.00000  Uiso   1.00
H1247  H     0.66834   0.29690   0.41023   0.00000  Uiso   1.00
H1248  H     0.62659   0.26809   0.38092   0.00000  Uiso   1.00
H1249  H     0.63162   0.26392   0.44349   0.00000  Uiso   1.00
H1250  H     0.93470   0.11101   0.59828   0.00000  Uiso   1.00
H1251  H     0.88154   0.19295   0.59497   0.00000  Uiso   1.00
H1252  H     0.91629   0.17938   0.64136   0.00000  Uiso   1.00
H1253  H     0.87199   0.14401   0.63017   0.00000  Uiso   1.00
H1254  H     0.62870   0.18454   0.60187   0.00000  Uiso   1.00
H1255  H     0.68817   0.20338   0.53799   0.00000  Uiso   1.00
H1256  H     0.67530   0.23843   0.58607   0.00000  Uiso   1.00
H1257  H     0.51350   0.35520   0.57506   0.00000  Uiso   1.00
H1258  H     0.65120   0.24811   0.52959   0.00000  Uiso   1.00
H1259  H     0.91694   0.37584   0.39160   0.00000  Uiso   1.00
H1260  H     0.85966   0.30436   0.41145   0.00000  Uiso   1.00
H1261  H     0.90711   0.28603   0.38381   0.00000  Uiso   1.00
H1262  H     0.87445   0.32738   0.35647   0.00000  Uiso   1.00
H1263  H     0.89681   0.34495   0.61295   0.00000  Uiso   1.00
H1264  H     0.83401   0.29727   0.59085   0.00000  Uiso   1.00
H1265  H     0.87660   0.26928   0.61956   0.00000  Uiso   1.00
H1266  H     0.87110   0.26536   0.55707   0.00000  Uiso   1.00
H1267  H     0.56547   0.11129   0.40188   0.00000  Uiso   1.00
H1268  H     0.52466   0.36689   0.63566   0.00000  Uiso   1.00
H1269  H     0.61894   0.19300   0.40457   0.00000  Uiso   1.00
H1270  H     0.58362   0.17989   0.35861   0.00000  Uiso   1.00
H1271  H     0.62783   0.14416   0.36912   0.00000  Uiso   1.00
H1272  H     0.66686   0.37447   0.39150   0.00000  Uiso   1.00
H1273  H     0.62494   0.42284   0.35559   0.00000  Uiso   1.00
H1274  H     0.65695   0.46443   0.38354   0.00000  Uiso   1.00
H1275  H     0.60921   0.44566   0.41026   0.00000  Uiso   1.00
H1276  H     0.88002   0.06428   0.60154   0.00000  Uiso   1.00
H1277  H     0.90372   0.00733   0.52157   0.00000  Uiso   1.00
H1278  H     0.91921   0.00220   0.58188   0.00000  Uiso   1.00
H1279  H     0.99529   0.43189   0.59795   0.00000  Uiso   1.00
H1280  H     0.94138   0.04536   0.54675   0.00000  Uiso   1.00
H1281  H     0.81551   0.13854   0.40214   0.00000  Uiso   1.00
H1282  H     0.86928   0.05705   0.40423   0.00000  Uiso   1.00
H1283  H     0.87780   0.10604   0.36891   0.00000  Uiso   1.00
H1284  H     0.83369   0.07010   0.35854   0.00000  Uiso   1.00
H1285  H     0.64611   0.40637   0.61218   0.00000  Uiso   1.00
H1286  H     0.61757   0.48511   0.55690   0.00000  Uiso   1.00
H1287  H     0.62324   0.48097   0.61940   0.00000  Uiso   1.00
H1288  H     0.58170   0.45140   0.59054   0.00000  Uiso   1.00
H1289  H     0.83485   0.37403   0.60931   0.00000  Uiso   1.00
H1290  H     0.95184   0.40019   0.57663   0.00000  Uiso   1.00
H1291  H     0.89052   0.43104   0.62008   0.00000  Uiso   1.00
H1292  H     0.84024   0.44487   0.64323   0.00000  Uiso   1.00
H1293  H     0.85596   0.46830   0.58882   0.00000  Uiso   1.00
H1294  H     0.62140   0.06572   0.39783   0.00000  Uiso   1.00
H1295  H     0.59946   0.00180   0.47024   0.00000  Uiso   1.00
H1296  H     0.57602   0.01045   0.41326   0.00000  Uiso   1.00
H1297  H     0.56189   0.04579   0.46065   0.00000  Uiso   1.00
H1298  H     0.68436   0.13855   0.59812   0.00000  Uiso   1.00
H1299  H     0.62199   0.10534   0.63072   0.00000  Uiso   1.00
H1300  H     0.66648   0.07012   0.64155   0.00000  Uiso   1.00
N1301  N     0.50000   0.25000   0.61736   0.00000  Uiso   1.00
N1302  N     0.90975   0.34996   0.41367   0.00000  Uiso   1.00
N1303  N     0.89307   0.32693   0.58266   0.00000  Uiso   1.00
N1304  N     0.57901   0.13855   0.41764   0.00000  Uiso   1.00
N1305  N     0.65959   0.40048   0.41337   0.00000  Uiso   1.00
N1306  N     0.87866   0.05565   0.56681   0.00000  Uiso   1.00
N1307  N     0.82917   0.11125   0.41771   0.00000  Uiso   1.00
N1308  N     0.64178   0.42439   0.58199   0.00000  Uiso   1.00
N1309  N     0.83959   0.40035   0.58697   0.00000  Uiso   1.00
N1310  N     0.62229   0.05667   0.43248   0.00000  Uiso   1.00
N1311  N     0.67089   0.11126   0.58236   0.00000  Uiso   1.00
N1312  N     0.50000   0.25000   0.38264   0.00000  Uiso   1.00
N1313  N     0.85889   0.42538   0.41818   0.00000  Uiso   1.00
N1314  N     0.75000  -0.00000   0.61736   0.00000  Uiso   1.00
N1315  N     0.75000  -0.00000   0.38264   0.00000  Uiso   1.00
N1316  N     0.87231   0.19314   0.43276   0.00000  Uiso   1.00
N1317  N     0.59173   0.34814   0.58682   0.00000  Uiso   1.00
N1318  N     0.60863   0.32505   0.41802   0.00000  Uiso   1.00
N1319  N     0.92124   0.13817   0.58228   0.00000  Uiso   1.00
N1320  N     0.62796   0.19333   0.56714   0.00000  Uiso   1.00
O1321  O     0.54509   0.20491   0.53958   0.00000  Uiso   1.00
O1322  O     0.70492   0.04509   0.46042   0.00000  Uiso   1.00
O1323  O     0.70492   0.04509   0.53958   0.00000  Uiso   1.00
O1324  O     0.79509   0.45491   0.46042   0.00000  Uiso   1.00
O1325  O     0.70492   0.45491   0.46042   0.00000  Uiso   1.00
O1326  O     0.79509   0.04509   0.53958   0.00000  Uiso   1.00
O1327  O     0.79509   0.04509   0.46042   0.00000  Uiso   1.00
O1328  O     0.70492   0.45491   0.53958   0.00000  Uiso   1.00
O1329  O     0.50213   0.17118   0.38374   0.00000  Uiso   1.00
O1330  O     0.97473   0.32434   0.62239   0.00000  Uiso   1.00
O1331  O     0.52661   0.32367   0.37749   0.00000  Uiso   1.00
O1332  O     0.95492   0.29509   0.46042   0.00000  Uiso   1.00
O1333  O     0.99781   0.17117   0.61631   0.00000  Uiso   1.00
O1334  O     0.77640   0.42629   0.37740   0.00000  Uiso   1.00
O1335  O     0.74808   0.07882   0.61624   0.00000  Uiso   1.00
O1336  O     0.75229   0.07883   0.38368   0.00000  Uiso   1.00
O1337  O     0.72377   0.42615   0.62264   0.00000  Uiso   1.00
O1338  O     0.95492   0.29509   0.53958   0.00000  Uiso   1.00
O1339  O     0.54509   0.20491   0.46042   0.00000  Uiso   1.00
O1340  O     0.95492   0.20491   0.46042   0.00000  Uiso   1.00
O1341  O     0.54509   0.29509   0.53958   0.00000  Uiso   1.00
O1342  O     0.54509   0.29509   0.46042   0.00000  Uiso   1.00
O1343  O     0.95492   0.20491   0.53958   0.00000  Uiso   1.00
O1344  O     0.79509   0.45491   0.53958   0.00000  Uiso   1.00
C1345  C     0.06083   0.69211   0.49970   0.00000  Uiso   1.00
C1346  C     0.49733   0.78944   0.64188   0.00000  Uiso   1.00
C1347  C     0.00323   0.78937   0.35811   0.00000  Uiso   1.00
C1348  C     0.00143   0.71041   0.64157   0.00000  Uiso   1.00
C1349  C     0.25297   0.96061   0.35813   0.00000  Uiso   1.00
C1350  C     0.25163   0.53958   0.64154   0.00000  Uiso   1.00
C1351  C     0.24859   0.53959   0.35842   0.00000  Uiso   1.00
C1352  C     0.24700   0.96061   0.64192   0.00000  Uiso   1.00
C1353  C     0.37699   0.65645   0.46390   0.00000  Uiso   1.00
C1354  C     0.10720   0.86222   0.54271   0.00000  Uiso   1.00
C1355  C     0.11599   0.85076   0.45903   0.00000  Uiso   1.00
C1356  C     0.43963   0.80848   0.49980   0.00000  Uiso   1.00
C1357  C     0.40081   0.62930   0.53930   0.00000  Uiso   1.00
C1358  C     0.12310   0.65656   0.53617   0.00000  Uiso   1.00
C1359  C     0.39395   0.86372   0.45774   0.00000  Uiso   1.00
C1360  C     0.38541   0.85249   0.54159   0.00000  Uiso   1.00
C1361  C     0.09965   0.62982   0.46052   0.00000  Uiso   1.00
C1362  C     0.14353   0.88694   0.45739   0.00000  Uiso   1.00
C1363  C     0.37386   0.59251   0.53586   0.00000  Uiso   1.00
C1364  C     0.34992   0.61982   0.46057   0.00000  Uiso   1.00
C1365  C     0.13451   0.89861   0.54102   0.00000  Uiso   1.00
C1366  C     0.35769   0.88859   0.54329   0.00000  Uiso   1.00
C1367  C     0.43923   0.69204   0.50031   0.00000  Uiso   1.00
C1368  C     0.12679   0.59323   0.46380   0.00000  Uiso   1.00
C1369  C     0.15016   0.61992   0.53950   0.00000  Uiso   1.00
C1370  C     0.36645   0.89990   0.45935   0.00000  Uiso   1.00
C1371  C     0.09573   0.83996   0.50101   0.00000  Uiso   1.00
C1372  C     0.40470   0.65945   0.50157   0.00000  Uiso   1.00
C1373  C     0.40527   0.84128   0.49937   0.00000  Uiso   1.00
C1374  C     0.09548   0.65967   0.49842   0.00000  Uiso   1.00
C1375  C     0.34590   0.58978   0.49834   0.00000  Uiso   1.00
C1376  C     0.15471   0.90950   0.49902   0.00000  Uiso   1.00
C1377  C     0.15438   0.59011   0.50158   0.00000  Uiso   1.00
C1378  C     0.06071   0.80802   0.50026   0.00000  Uiso   1.00
C1379  C     0.34609   0.91061   0.50134   0.00000  Uiso   1.00
C1380  C     0.46658   0.64394   0.37918   0.00000  Uiso   1.00
C1381  C     0.47004   0.60523   0.41349   0.00000  Uiso   1.00
C1382  C     0.00011   0.86072   0.60979   0.00000  Uiso   1.00
C1383  C     0.47446   0.90324   0.60561   0.00000  Uiso   1.00
C1384  C     0.00193   0.86036   0.39069   0.00000  Uiso   1.00
C1385  C     0.02857   0.90211   0.39556   0.00000  Uiso   1.00
C1386  C     0.03346   0.64407   0.62083   0.00000  Uiso   1.00
C1387  C     0.03009   0.60534   0.58655   0.00000  Uiso   1.00
C1388  C     0.25185   0.88945   0.39049   0.00000  Uiso   1.00
C1389  C     0.31073   0.94206   0.50030   0.00000  Uiso   1.00
C1390  C     0.27877   0.84794   0.39550   0.00000  Uiso   1.00
C1391  C     0.28378   0.60586   0.62071   0.00000  Uiso   1.00
C1392  C     0.28032   0.64463   0.58646   0.00000  Uiso   1.00
C1393  C     0.21672   0.60605   0.37908   0.00000  Uiso   1.00
C1394  C     0.22011   0.64475   0.41340   0.00000  Uiso   1.00
C1395  C     0.24855   0.88950   0.60948   0.00000  Uiso   1.00
C1396  C     0.22200   0.84767   0.60485   0.00000  Uiso   1.00
C1397  C     0.33836   0.72252   0.44551   0.00000  Uiso   1.00
C1398  C     0.11490   0.81283   0.60944   0.00000  Uiso   1.00
C1399  C     0.13529   0.78651   0.41305   0.00000  Uiso   1.00
C1400  C     0.18912   0.55781   0.50030   0.00000  Uiso   1.00
C1401  C     0.39643   0.66485   0.61381   0.00000  Uiso   1.00
C1402  C     0.16226   0.72228   0.55444   0.00000  Uiso   1.00
C1403  C     0.38654   0.81509   0.39037   0.00000  Uiso   1.00
C1404  C     0.36723   0.78771   0.58766   0.00000  Uiso   1.00
C1405  C     0.10367   0.66511   0.38584   0.00000  Uiso   1.00
C1406  C     0.13648   0.93520   0.38969   0.00000  Uiso   1.00
C1407  C     0.41239   0.52620   0.55343   0.00000  Uiso   1.00
C1408  C     0.35380   0.58492   0.38568   0.00000  Uiso   1.00
C1409  C     0.11454   0.96241   0.58735   0.00000  Uiso   1.00
C1410  C     0.35783   0.93809   0.61077   0.00000  Uiso   1.00
C1411  C     0.18943   0.94180   0.49975   0.00000  Uiso   1.00
C1412  C     0.08832   0.52718   0.44492   0.00000  Uiso   1.00
C1413  C     0.14637   0.58457   0.61418   0.00000  Uiso   1.00
C1414  C     0.38552   0.96389   0.41285   0.00000  Uiso   1.00
C1415  C     0.31099   0.55766   0.49969   0.00000  Uiso   1.00
C1416  C     0.49844   0.71041   0.35845   0.00000  Uiso   1.00
Cu1417 Cu    0.00000   0.75000   0.54689   0.00000  Uiso   1.00
Cu1418 Cu    0.00000   0.75000   0.45311   0.00000  Uiso   1.00
Cu1419 Cu    0.25000   0.50000   0.54689   0.00000  Uiso   1.00
Cu1420 Cu    0.25000   0.50000   0.45311   0.00000  Uiso   1.00
H1421  H     0.46400   0.62922   0.34392   0.00000  Uiso   1.00
H1422  H     0.45772   0.91031   0.63849   0.00000  Uiso   1.00
H1423  H     0.13143   0.55642   0.59551   0.00000  Uiso   1.00
H1424  H     0.35521   0.90725   0.38793   0.00000  Uiso   1.00
H1425  H     0.38147   0.98688   0.44285   0.00000  Uiso   1.00
H1426  H     0.37710   0.98183   0.38033   0.00000  Uiso   1.00
H1427  H     0.41861   0.95355   0.41060   0.00000  Uiso   1.00
H1428  H     0.48827   0.85458   0.42525   0.00000  Uiso   1.00
H1429  H     0.47750   0.86737   0.36492   0.00000  Uiso   1.00
H1430  H     0.00827   0.93172   0.40060   0.00000  Uiso   1.00
H1431  H     0.04904   0.89903   0.42648   0.00000  Uiso   1.00
H1432  H     0.04787   0.90748   0.36408   0.00000  Uiso   1.00
H1433  H     0.03613   0.62937   0.65610   0.00000  Uiso   1.00
H1434  H     0.06200   0.66325   0.61326   0.00000  Uiso   1.00
H1435  H     0.02322   0.61780   0.55092   0.00000  Uiso   1.00
H1436  H     0.05958   0.58627   0.58566   0.00000  Uiso   1.00
H1437  H     0.43798   0.66301   0.38671   0.00000  Uiso   1.00
H1438  H     0.00482   0.58239   0.59743   0.00000  Uiso   1.00
H1439  H     0.22757   0.88216   0.36461   0.00000  Uiso   1.00
H1440  H     0.23801   0.89517   0.42499   0.00000  Uiso   1.00
H1441  H     0.29788   0.84254   0.36387   0.00000  Uiso   1.00
H1442  H     0.29942   0.85140   0.42623   0.00000  Uiso   1.00
H1443  H     0.25869   0.81822   0.40091   0.00000  Uiso   1.00
H1444  H     0.31235   0.58668   0.61305   0.00000  Uiso   1.00
H1445  H     0.28648   0.62053   0.65598   0.00000  Uiso   1.00
H1446  H     0.25474   0.66728   0.59712   0.00000  Uiso   1.00
H1447  H     0.30963   0.66402   0.58588   0.00000  Uiso   1.00
H1448  H     0.47670   0.61773   0.44914   0.00000  Uiso   1.00
H1449  H     0.27383   0.63216   0.55076   0.00000  Uiso   1.00
H1450  H     0.18812   0.58695   0.38660   0.00000  Uiso   1.00
H1451  H     0.21416   0.62076   0.34381   0.00000  Uiso   1.00
H1452  H     0.19074   0.66405   0.41399   0.00000  Uiso   1.00
H1453  H     0.22662   0.63223   0.44908   0.00000  Uiso   1.00
H1454  H     0.24563   0.66750   0.40277   0.00000  Uiso   1.00
H1455  H     0.27317   0.88255   0.63511   0.00000  Uiso   1.00
H1456  H     0.26196   0.89521   0.57477   0.00000  Uiso   1.00
H1457  H     0.20250   0.84260   0.63623   0.00000  Uiso   1.00
H1458  H     0.20174   0.85047   0.57373   0.00000  Uiso   1.00
H1459  H     0.44066   0.58596   0.41422   0.00000  Uiso   1.00
H1460  H     0.24235   0.81804   0.60027   0.00000  Uiso   1.00
H1461  H     0.37128   0.68425   0.39808   0.00000  Uiso   1.00
H1462  H     0.32622   0.73976   0.41407   0.00000  Uiso   1.00
H1463  H     0.34944   0.74750   0.47129   0.00000  Uiso   1.00
H1464  H     0.31183   0.70371   0.46078   0.00000  Uiso   1.00
H1465  H     0.08521   0.87386   0.60932   0.00000  Uiso   1.00
H1466  H     0.14275   0.80378   0.58912   0.00000  Uiso   1.00
H1467  H     0.09477   0.78302   0.61374   0.00000  Uiso   1.00
H1468  H     0.12559   0.82387   0.64437   0.00000  Uiso   1.00
H1469  H     0.10492   0.84308   0.38773   0.00000  Uiso   1.00
H1470  H     0.49550   0.58244   0.40275   0.00000  Uiso   1.00
H1471  H     0.16834   0.79690   0.41023   0.00000  Uiso   1.00
H1472  H     0.12659   0.76809   0.38092   0.00000  Uiso   1.00
H1473  H     0.13162   0.76392   0.44349   0.00000  Uiso   1.00
H1474  H     0.43470   0.61101   0.59828   0.00000  Uiso   1.00
H1475  H     0.38154   0.69295   0.59497   0.00000  Uiso   1.00
H1476  H     0.41629   0.67938   0.64136   0.00000  Uiso   1.00
H1477  H     0.37199   0.64401   0.63017   0.00000  Uiso   1.00
H1478  H     0.12870   0.68454   0.60187   0.00000  Uiso   1.00
H1479  H     0.18817   0.70338   0.53799   0.00000  Uiso   1.00
H1480  H     0.17530   0.73843   0.58607   0.00000  Uiso   1.00
H1481  H     0.01350   0.85520   0.57506   0.00000  Uiso   1.00
H1482  H     0.15120   0.74811   0.52959   0.00000  Uiso   1.00
H1483  H     0.41694   0.87584   0.39160   0.00000  Uiso   1.00
H1484  H     0.35966   0.80436   0.41145   0.00000  Uiso   1.00
H1485  H     0.40711   0.78603   0.38381   0.00000  Uiso   1.00
H1486  H     0.37445   0.82738   0.35647   0.00000  Uiso   1.00
H1487  H     0.39681   0.84495   0.61295   0.00000  Uiso   1.00
H1488  H     0.33401   0.79727   0.59085   0.00000  Uiso   1.00
H1489  H     0.37660   0.76928   0.61956   0.00000  Uiso   1.00
H1490  H     0.37110   0.76536   0.55707   0.00000  Uiso   1.00
H1491  H     0.06547   0.61129   0.40188   0.00000  Uiso   1.00
H1492  H     0.02466   0.86689   0.63566   0.00000  Uiso   1.00
H1493  H     0.11894   0.69300   0.40457   0.00000  Uiso   1.00
H1494  H     0.08362   0.67989   0.35861   0.00000  Uiso   1.00
H1495  H     0.12783   0.64416   0.36912   0.00000  Uiso   1.00
H1496  H     0.16686   0.87447   0.39150   0.00000  Uiso   1.00
H1497  H     0.12494   0.92284   0.35559   0.00000  Uiso   1.00
H1498  H     0.15695   0.96443   0.38354   0.00000  Uiso   1.00
H1499  H     0.10921   0.94566   0.41026   0.00000  Uiso   1.00
H1500  H     0.38002   0.56428   0.60154   0.00000  Uiso   1.00
H1501  H     0.40372   0.50733   0.52157   0.00000  Uiso   1.00
H1502  H     0.41921   0.50220   0.58188   0.00000  Uiso   1.00
H1503  H     0.49529   0.93189   0.59795   0.00000  Uiso   1.00
H1504  H     0.44138   0.54536   0.54675   0.00000  Uiso   1.00
H1505  H     0.31551   0.63854   0.40214   0.00000  Uiso   1.00
H1506  H     0.36928   0.55705   0.40423   0.00000  Uiso   1.00
H1507  H     0.37780   0.60604   0.36891   0.00000  Uiso   1.00
H1508  H     0.33369   0.57010   0.35854   0.00000  Uiso   1.00
H1509  H     0.14611   0.90637   0.61218   0.00000  Uiso   1.00
H1510  H     0.11757   0.98511   0.55690   0.00000  Uiso   1.00
H1511  H     0.12324   0.98097   0.61940   0.00000  Uiso   1.00
H1512  H     0.08170   0.95140   0.59054   0.00000  Uiso   1.00
H1513  H     0.33485   0.87403   0.60931   0.00000  Uiso   1.00
H1514  H     0.45184   0.90019   0.57663   0.00000  Uiso   1.00
H1515  H     0.39052   0.93104   0.62008   0.00000  Uiso   1.00
H1516  H     0.34024   0.94487   0.64323   0.00000  Uiso   1.00
H1517  H     0.35596   0.96830   0.58882   0.00000  Uiso   1.00
H1518  H     0.12140   0.56572   0.39783   0.00000  Uiso   1.00
H1519  H     0.09946   0.50180   0.47024   0.00000  Uiso   1.00
H1520  H     0.07602   0.51045   0.41326   0.00000  Uiso   1.00
H1521  H     0.06189   0.54579   0.46065   0.00000  Uiso   1.00
H1522  H     0.18436   0.63855   0.59812   0.00000  Uiso   1.00
H1523  H     0.12199   0.60534   0.63072   0.00000  Uiso   1.00
H1524  H     0.16648   0.57012   0.64155   0.00000  Uiso   1.00
N1525  N     0.00000   0.75000   0.61736   0.00000  Uiso   1.00
N1526  N     0.40975   0.84996   0.41367   0.00000  Uiso   1.00
N1527  N     0.39307   0.82693   0.58266   0.00000  Uiso   1.00
N1528  N     0.07901   0.63855   0.41764   0.00000  Uiso   1.00
N1529  N     0.15959   0.90048   0.41337   0.00000  Uiso   1.00
N1530  N     0.37866   0.55565   0.56681   0.00000  Uiso   1.00
N1531  N     0.32917   0.61125   0.41771   0.00000  Uiso   1.00
N1532  N     0.14178   0.92439   0.58199   0.00000  Uiso   1.00
N1533  N     0.33959   0.90035   0.58697   0.00000  Uiso   1.00
N1534  N     0.12229   0.55667   0.43248   0.00000  Uiso   1.00
N1535  N     0.17089   0.61126   0.58236   0.00000  Uiso   1.00
N1536  N     0.00000   0.75000   0.38264   0.00000  Uiso   1.00
N1537  N     0.35889   0.92538   0.41818   0.00000  Uiso   1.00
N1538  N     0.25000   0.50000   0.61736   0.00000  Uiso   1.00
N1539  N     0.25000   0.50000   0.38264   0.00000  Uiso   1.00
N1540  N     0.37231   0.69314   0.43276   0.00000  Uiso   1.00
N1541  N     0.09173   0.84814   0.58682   0.00000  Uiso   1.00
N1542  N     0.10863   0.82505   0.41802   0.00000  Uiso   1.00
N1543  N     0.42124   0.63817   0.58228   0.00000  Uiso   1.00
N1544  N     0.12796   0.69333   0.56714   0.00000  Uiso   1.00
O1545  O     0.04509   0.70491   0.53958   0.00000  Uiso   1.00
O1546  O     0.20492   0.54509   0.46042   0.00000  Uiso   1.00
O1547  O     0.20492   0.54509   0.53958   0.00000  Uiso   1.00
O1548  O     0.29509   0.95491   0.46042   0.00000  Uiso   1.00
O1549  O     0.20492   0.95491   0.46042   0.00000  Uiso   1.00
O1550  O     0.29509   0.54509   0.53958   0.00000  Uiso   1.00
O1551  O     0.29509   0.54509   0.46042   0.00000  Uiso   1.00
O1552  O     0.20492   0.95491   0.53958   0.00000  Uiso   1.00
O1553  O     0.00213   0.67118   0.38374   0.00000  Uiso   1.00
O1554  O     0.47473   0.82434   0.62239   0.00000  Uiso   1.00
O1555  O     0.02661   0.82367   0.37749   0.00000  Uiso   1.00
O1556  O     0.45492   0.79509   0.46042   0.00000  Uiso   1.00
O1557  O     0.49781   0.67117   0.61631   0.00000  Uiso   1.00
O1558  O     0.27640   0.92629   0.37740   0.00000  Uiso   1.00
O1559  O     0.24808   0.57882   0.61624   0.00000  Uiso   1.00
O1560  O     0.25229   0.57883   0.38368   0.00000  Uiso   1.00
O1561  O     0.22377   0.92615   0.62264   0.00000  Uiso   1.00
O1562  O     0.45492   0.79509   0.53958   0.00000  Uiso   1.00
O1563  O     0.04509   0.70491   0.46042   0.00000  Uiso   1.00
O1564  O     0.45492   0.70491   0.46042   0.00000  Uiso   1.00
O1565  O     0.04509   0.79509   0.53958   0.00000  Uiso   1.00
O1566  O     0.04509   0.79509   0.46042   0.00000  Uiso   1.00
O1567  O     0.45492   0.70491   0.53958   0.00000  Uiso   1.00
O1568  O     0.29509   0.95491   0.53958   0.00000  Uiso   1.00
C1569  C     0.56083   0.69211   0.49970   0.00000  Uiso   1.00
C1570  C     0.99733   0.78944   0.64188   0.00000  Uiso   1.00
C1571  C     0.50323   0.78937   0.35811   0.00000  Uiso   1.00
C1572  C     0.50143   0.71041   0.64157   0.00000  Uiso   1.00
C1573  C     0.75297   0.96061   0.35813   0.00000  Uiso   1.00
C1574  C     0.75163   0.53958   0.64154   0.00000  Uiso   1.00
C1575  C     0.74859   0.53959   0.35842   0.00000  Uiso   1.00
C1576  C     0.74700   0.96061   0.64192   0.00000  Uiso   1.00
C1577  C     0.87699   0.65645   0.46390   0.00000  Uiso   1.00
C1578  C     0.60720   0.86222   0.54271   0.00000  Uiso   1.00
C1579  C     0.61599   0.85076   0.45903   0.00000  Uiso   1.00
C1580  C     0.93963   0.80848   0.49980   0.00000  Uiso   1.00
C1581  C     0.90081   0.62930   0.53930   0.00000  Uiso   1.00
C1582  C     0.62310   0.65656   0.53617   0.00000  Uiso   1.00
C1583  C     0.89395   0.86372   0.45774   0.00000  Uiso   1.00
C1584  C     0.88541   0.85249   0.54159   0.00000  Uiso   1.00
C1585  C     0.59965   0.62982   0.46052   0.00000  Uiso   1.00
C1586  C     0.64353   0.88694   0.45739   0.00000  Uiso   1.00
C1587  C     0.87386   0.59251   0.53586   0.00000  Uiso   1.00
C1588  C     0.84992   0.61982   0.46057   0.00000  Uiso   1.00
C1589  C     0.63451   0.89861   0.54102   0.00000  Uiso   1.00
C1590  C     0.85769   0.88859   0.54329   0.00000  Uiso   1.00
C1591  C     0.93923   0.69204   0.50031   0.00000  Uiso   1.00
C1592  C     0.62679   0.59323   0.46380   0.00000  Uiso   1.00
C1593  C     0.65016   0.61992   0.53950   0.00000  Uiso   1.00
C1594  C     0.86645   0.89990   0.45935   0.00000  Uiso   1.00
C1595  C     0.59573   0.83996   0.50101   0.00000  Uiso   1.00
C1596  C     0.90470   0.65945   0.50157   0.00000  Uiso   1.00
C1597  C     0.90527   0.84128   0.49937   0.00000  Uiso   1.00
C1598  C     0.59548   0.65967   0.49842   0.00000  Uiso   1.00
C1599  C     0.84590   0.58978   0.49834   0.00000  Uiso   1.00
C1600  C     0.65471   0.90950   0.49902   0.00000  Uiso   1.00
C1601  C     0.65438   0.59011   0.50158   0.00000  Uiso   1.00
C1602  C     0.56071   0.80802   0.50026   0.00000  Uiso   1.00
C1603  C     0.84609   0.91061   0.50134   0.00000  Uiso   1.00
C1604  C     0.96658   0.64394   0.37918   0.00000  Uiso   1.00
C1605  C     0.97004   0.60523   0.41349   0.00000  Uiso   1.00
C1606  C     0.50011   0.86072   0.60979   0.00000  Uiso   1.00
C1607  C     0.97446   0.90324   0.60561   0.00000  Uiso   1.00
C1608  C     0.50193   0.86036   0.39069   0.00000  Uiso   1.00
C1609  C     0.52857   0.90211   0.39556   0.00000  Uiso   1.00
C1610  C     0.53346   0.64407   0.62083   0.00000  Uiso   1.00
C1611  C     0.53009   0.60534   0.58655   0.00000  Uiso   1.00
C1612  C     0.75185   0.88945   0.39049   0.00000  Uiso   1.00
C1613  C     0.81073   0.94206   0.50030   0.00000  Uiso   1.00
C1614  C     0.77877   0.84794   0.39550   0.00000  Uiso   1.00
C1615  C     0.78378   0.60586   0.62071   0.00000  Uiso   1.00
C1616  C     0.78032   0.64463   0.58646   0.00000  Uiso   1.00
C1617  C     0.71672   0.60605   0.37908   0.00000  Uiso   1.00
C1618  C     0.72011   0.64475   0.41340   0.00000  Uiso   1.00
C1619  C     0.74855   0.88950   0.60948   0.00000  Uiso   1.00
C1620  C     0.72200   0.84767   0.60485   0.00000  Uiso   1.00
C1621  C     0.83836   0.72252   0.44551   0.00000  Uiso   1.00
C1622  C     0.61490   0.81283   0.60944   0.00000  Uiso   1.00
C1623  C     0.63529   0.78651   0.41305   0.00000  Uiso   1.00
C1624  C     0.68912   0.55781   0.50030   0.00000  Uiso   1.00
C1625  C     0.89643   0.66485   0.61381   0.00000  Uiso   1.00
C1626  C     0.66226   0.72228   0.55444   0.00000  Uiso   1.00
C1627  C     0.88654   0.81509   0.39037   0.00000  Uiso   1.00
C1628  C     0.86723   0.78771   0.58766   0.00000  Uiso   1.00
C1629  C     0.60367   0.66511   0.38584   0.00000  Uiso   1.00
C1630  C     0.63648   0.93520   0.38969   0.00000  Uiso   1.00
C1631  C     0.91239   0.52620   0.55343   0.00000  Uiso   1.00
C1632  C     0.85380   0.58492   0.38568   0.00000  Uiso   1.00
C1633  C     0.61454   0.96241   0.58735   0.00000  Uiso   1.00
C1634  C     0.85783   0.93809   0.61077   0.00000  Uiso   1.00
C1635  C     0.68943   0.94180   0.49975   0.00000  Uiso   1.00
C1636  C     0.58832   0.52718   0.44492   0.00000  Uiso   1.00
C1637  C     0.64637   0.58457   0.61418   0.00000  Uiso   1.00
C1638  C     0.88552   0.96389   0.41285   0.00000  Uiso   1.00
C1639  C     0.81099   0.55766   0.49969   0.00000  Uiso   1.00
C1640  C     0.99844   0.71041   0.35845   0.00000  Uiso   1.00
Cu1641 Cu    0.50000   0.75000   0.54689   0.00000  Uiso   1.00
Cu1642 Cu    0.50000   0.75000   0.45311   0.00000  Uiso   1.00
Cu1643 Cu    0.75000   0.50000   0.54689   0.00000  Uiso   1.00
Cu1644 Cu    0.75000   0.50000   0.45311   0.00000  Uiso   1.00
H1645  H     0.96400   0.62922   0.34392   0.00000  Uiso   1.00
H1646  H     0.95772   0.91031   0.63849   0.00000  Uiso   1.00
H1647  H     0.63143   0.55642   0.59551   0.00000  Uiso   1.00
H1648  H     0.85521   0.90725   0.38793   0.00000  Uiso   1.00
H1649  H     0.88147   0.98688   0.44285   0.00000  Uiso   1.00
H1650  H     0.87710   0.98183   0.38033   0.00000  Uiso   1.00
H1651  H     0.91861   0.95355   0.41060   0.00000  Uiso   1.00
H1652  H     0.98827   0.85458   0.42525   0.00000  Uiso   1.00
H1653  H     0.97750   0.86737   0.36492   0.00000  Uiso   1.00
H1654  H     0.50827   0.93172   0.40060   0.00000  Uiso   1.00
H1655  H     0.54904   0.89903   0.42648   0.00000  Uiso   1.00
H1656  H     0.54787   0.90748   0.36408   0.00000  Uiso   1.00
H1657  H     0.53613   0.62937   0.65610   0.00000  Uiso   1.00
H1658  H     0.56200   0.66325   0.61326   0.00000  Uiso   1.00
H1659  H     0.52322   0.61780   0.55092   0.00000  Uiso   1.00
H1660  H     0.55958   0.58627   0.58566   0.00000  Uiso   1.00
H1661  H     0.93798   0.66301   0.38671   0.00000  Uiso   1.00
H1662  H     0.50482   0.58239   0.59743   0.00000  Uiso   1.00
H1663  H     0.72757   0.88216   0.36461   0.00000  Uiso   1.00
H1664  H     0.73801   0.89517   0.42499   0.00000  Uiso   1.00
H1665  H     0.79788   0.84254   0.36387   0.00000  Uiso   1.00
H1666  H     0.79942   0.85140   0.42623   0.00000  Uiso   1.00
H1667  H     0.75869   0.81822   0.40091   0.00000  Uiso   1.00
H1668  H     0.81235   0.58668   0.61305   0.00000  Uiso   1.00
H1669  H     0.78648   0.62053   0.65598   0.00000  Uiso   1.00
H1670  H     0.75474   0.66728   0.59712   0.00000  Uiso   1.00
H1671  H     0.80963   0.66402   0.58588   0.00000  Uiso   1.00
H1672  H     0.97670   0.61773   0.44914   0.00000  Uiso   1.00
H1673  H     0.77383   0.63216   0.55076   0.00000  Uiso   1.00
H1674  H     0.68812   0.58695   0.38660   0.00000  Uiso   1.00
H1675  H     0.71416   0.62076   0.34381   0.00000  Uiso   1.00
H1676  H     0.69074   0.66405   0.41399   0.00000  Uiso   1.00
H1677  H     0.72662   0.63223   0.44908   0.00000  Uiso   1.00
H1678  H     0.74563   0.66750   0.40277   0.00000  Uiso   1.00
H1679  H     0.77317   0.88255   0.63511   0.00000  Uiso   1.00
H1680  H     0.76196   0.89521   0.57477   0.00000  Uiso   1.00
H1681  H     0.70250   0.84260   0.63623   0.00000  Uiso   1.00
H1682  H     0.70174   0.85047   0.57373   0.00000  Uiso   1.00
H1683  H     0.94066   0.58596   0.41422   0.00000  Uiso   1.00
H1684  H     0.74235   0.81804   0.60027   0.00000  Uiso   1.00
H1685  H     0.87128   0.68425   0.39808   0.00000  Uiso   1.00
H1686  H     0.82622   0.73976   0.41407   0.00000  Uiso   1.00
H1687  H     0.84944   0.74750   0.47129   0.00000  Uiso   1.00
H1688  H     0.81183   0.70371   0.46078   0.00000  Uiso   1.00
H1689  H     0.58521   0.87386   0.60932   0.00000  Uiso   1.00
H1690  H     0.64275   0.80378   0.58912   0.00000  Uiso   1.00
H1691  H     0.59477   0.78302   0.61374   0.00000  Uiso   1.00
H1692  H     0.62559   0.82387   0.64437   0.00000  Uiso   1.00
H1693  H     0.60492   0.84308   0.38773   0.00000  Uiso   1.00
H1694  H     0.99550   0.58244   0.40275   0.00000  Uiso   1.00
H1695  H     0.66834   0.79690   0.41023   0.00000  Uiso   1.00
H1696  H     0.62659   0.76809   0.38092   0.00000  Uiso   1.00
H1697  H     0.63162   0.76392   0.44349   0.00000  Uiso   1.00
H1698  H     0.93470   0.61101   0.59828   0.00000  Uiso   1.00
H1699  H     0.88154   0.69295   0.59497   0.00000  Uiso   1.00
H1700  H     0.91629   0.67938   0.64136   0.00000  Uiso   1.00
H1701  H     0.87199   0.64401   0.63017   0.00000  Uiso   1.00
H1702  H     0.62870   0.68454   0.60187   0.00000  Uiso   1.00
H1703  H     0.68817   0.70338   0.53799   0.00000  Uiso   1.00
H1704  H     0.67530   0.73843   0.58607   0.00000  Uiso   1.00
H1705  H     0.51350   0.85520   0.57506   0.00000  Uiso   1.00
H1706  H     0.65120   0.74811   0.52959   0.00000  Uiso   1.00
H1707  H     0.91694   0.87584   0.39160   0.00000  Uiso   1.00
H1708  H     0.85966   0.80436   0.41145   0.00000  Uiso   1.00
H1709  H     0.90711   0.78603   0.38381   0.00000  Uiso   1.00
H1710  H     0.87445   0.82738   0.35647   0.00000  Uiso   1.00
H1711  H     0.89681   0.84495   0.61295   0.00000  Uiso   1.00
H1712  H     0.83401   0.79727   0.59085   0.00000  Uiso   1.00
H1713  H     0.87660   0.76928   0.61956   0.00000  Uiso   1.00
H1714  H     0.87110   0.76536   0.55707   0.00000  Uiso   1.00
H1715  H     0.56547   0.61129   0.40188   0.00000  Uiso   1.00
H1716  H     0.52466   0.86689   0.63566   0.00000  Uiso   1.00
H1717  H     0.61894   0.69300   0.40457   0.00000  Uiso   1.00
H1718  H     0.58362   0.67989   0.35861   0.00000  Uiso   1.00
H1719  H     0.62783   0.64416   0.36912   0.00000  Uiso   1.00
H1720  H     0.66686   0.87447   0.39150   0.00000  Uiso   1.00
H1721  H     0.62494   0.92284   0.35559   0.00000  Uiso   1.00
H1722  H     0.65695   0.96443   0.38354   0.00000  Uiso   1.00
H1723  H     0.60921   0.94566   0.41026   0.00000  Uiso   1.00
H1724  H     0.88002   0.56428   0.60154   0.00000  Uiso   1.00
H1725  H     0.90372   0.50733   0.52157   0.00000  Uiso   1.00
H1726  H     0.91921   0.50220   0.58188   0.00000  Uiso   1.00
H1727  H     0.99529   0.93189   0.59795   0.00000  Uiso   1.00
H1728  H     0.94138   0.54536   0.54675   0.00000  Uiso   1.00
H1729  H     0.81551   0.63854   0.40214   0.00000  Uiso   1.00
H1730  H     0.86928   0.55705   0.40423   0.00000  Uiso   1.00
H1731  H     0.87780   0.60604   0.36891   0.00000  Uiso   1.00
H1732  H     0.83369   0.57010   0.35854   0.00000  Uiso   1.00
H1733  H     0.64611   0.90637   0.61218   0.00000  Uiso   1.00
H1734  H     0.61757   0.98511   0.55690   0.00000  Uiso   1.00
H1735  H     0.62324   0.98097   0.61940   0.00000  Uiso   1.00
H1736  H     0.58170   0.95140   0.59054   0.00000  Uiso   1.00
H1737  H     0.83485   0.87403   0.60931   0.00000  Uiso   1.00
H1738  H     0.95184   0.90019   0.57663   0.00000  Uiso   1.00
H1739  H     0.89052   0.93104   0.62008   0.00000  Uiso   1.00
H1740  H     0.84024   0.94487   0.64323   0.00000  Uiso   1.00
H1741  H     0.85596   0.96830   0.58882   0.00000  Uiso   1.00
H1742  H     0.62140   0.56572   0.39783   0.00000  Uiso   1.00
H1743  H     0.59946   0.50180   0.47024   0.00000  Uiso   1.00
H1744  H     0.57602   0.51045   0.41326   0.00000  Uiso   1.00
H1745  H     0.56189   0.54579   0.46065   0.00000  Uiso   1.00
H1746  H     0.68436   0.63855   0.59812   0.00000  Uiso   1.00
H1747  H     0.62199   0.60534   0.63072   0.00000  Uiso   1.00
H1748  H     0.66648   0.57012   0.64155   0.00000  Uiso   1.00
N1749  N     0.50000   0.75000   0.61736   0.00000  Uiso   1.00
N1750  N     0.90975   0.84996   0.41367   0.00000  Uiso   1.00
N1751  N     0.89307   0.82693   0.58266   0.00000  Uiso   1.00
N1752  N     0.57901   0.63855   0.41764   0.00000  Uiso   1.00
N1753  N     0.65959   0.90048   0.41337   0.00000  Uiso   1.00
N1754  N     0.87866   0.55565   0.56681   0.00000  Uiso   1.00
N1755  N     0.82917   0.61125   0.41771   0.00000  Uiso   1.00
N1756  N     0.64178   0.92439   0.58199   0.00000  Uiso   1.00
N1757  N     0.83959   0.90035   0.58697   0.00000  Uiso   1.00
N1758  N     0.62229   0.55667   0.43248   0.00000  Uiso   1.00
N1759  N     0.67089   0.61126   0.58236   0.00000  Uiso   1.00
N1760  N     0.50000   0.75000   0.38264   0.00000  Uiso   1.00
N1761  N     0.85889   0.92538   0.41818   0.00000  Uiso   1.00
N1762  N     0.75000   0.50000   0.61736   0.00000  Uiso   1.00
N1763  N     0.75000   0.50000   0.38264   0.00000  Uiso   1.00
N1764  N     0.87231   0.69314   0.43276   0.00000  Uiso   1.00
N1765  N     0.59173   0.84814   0.58682   0.00000  Uiso   1.00
N1766  N     0.60863   0.82505   0.41802   0.00000  Uiso   1.00
N1767  N     0.92124   0.63817   0.58228   0.00000  Uiso   1.00
N1768  N     0.62796   0.69333   0.56714   0.00000  Uiso   1.00
O1769  O     0.54509   0.70491   0.53958   0.00000  Uiso   1.00
O1770  O     0.70492   0.54509   0.46042   0.00000  Uiso   1.00
O1771  O     0.70492   0.54509   0.53958   0.00000  Uiso   1.00
O1772  O     0.79509   0.95491   0.46042   0.00000  Uiso   1.00
O1773  O     0.70492   0.95491   0.46042   0.00000  Uiso   1.00
O1774  O     0.79509   0.54509   0.53958   0.00000  Uiso   1.00
O1775  O     0.79509   0.54509   0.46042   0.00000  Uiso   1.00
O1776  O     0.70492   0.95491   0.53958   0.00000  Uiso   1.00
O1777  O     0.50213   0.67118   0.38374   0.00000  Uiso   1.00
O1778  O     0.97473   0.82434   0.62239   0.00000  Uiso   1.00
O1779  O     0.52661   0.82367   0.37749   0.00000  Uiso   1.00
O1780  O     0.95492   0.79509   0.46042   0.00000  Uiso   1.00
O1781  O     0.99781   0.67117   0.61631   0.00000  Uiso   1.00
O1782  O     0.77640   0.92629   0.37740   0.00000  Uiso   1.00
O1783  O     0.74808   0.57882   0.61624   0.00000  Uiso   1.00
O1784  O     0.75229   0.57883   0.38368   0.00000  Uiso   1.00
O1785  O     0.72377   0.92615   0.62264   0.00000  Uiso   1.00
O1786  O     0.95492   0.79509   0.53958   0.00000  Uiso   1.00
O1787  O     0.54509   0.70491   0.46042   0.00000  Uiso   1.00
O1788  O     0.95492   0.70491   0.46042   0.00000  Uiso   1.00
O1789  O     0.54509   0.79509   0.53958   0.00000  Uiso   1.00
O1790  O     0.54509   0.79509   0.46042   0.00000  Uiso   1.00
O1791  O     0.95492   0.70491   0.53958   0.00000  Uiso   1.00
O1792  O     0.79509   0.95491   0.53958   0.00000  Uiso   1.00
C1793  C     0.06083   0.19211   0.83303   0.00000  Uiso   1.00
C1794  C     0.49733   0.28944   0.97522   0.00000  Uiso   1.00
C1795  C     0.00323   0.28937   0.69144   0.00000  Uiso   1.00
C1796  C     0.00143   0.21041   0.97491   0.00000  Uiso   1.00
C1797  C     0.25297   0.46061   0.69147   0.00000  Uiso   1.00
C1798  C     0.25163   0.03958   0.97488   0.00000  Uiso   1.00
C1799  C     0.24859   0.03959   0.69175   0.00000  Uiso   1.00
C1800  C     0.24700   0.46061   0.97526   0.00000  Uiso   1.00
C1801  C     0.37699   0.15645   0.79723   0.00000  Uiso   1.00
C1802  C     0.10720   0.36222   0.87604   0.00000  Uiso   1.00
C1803  C     0.11599   0.35076   0.79236   0.00000  Uiso   1.00
C1804  C     0.43963   0.30848   0.83314   0.00000  Uiso   1.00
C1805  C     0.40081   0.12930   0.87263   0.00000  Uiso   1.00
C1806  C     0.12310   0.15656   0.86950   0.00000  Uiso   1.00
C1807  C     0.39395   0.36372   0.79107   0.00000  Uiso   1.00
C1808  C     0.38541   0.35249   0.87492   0.00000  Uiso   1.00
C1809  C     0.09965   0.12982   0.79386   0.00000  Uiso   1.00
C1810  C     0.14353   0.38694   0.79073   0.00000  Uiso   1.00
C1811  C     0.37386   0.09251   0.86919   0.00000  Uiso   1.00
C1812  C     0.34992   0.11982   0.79390   0.00000  Uiso   1.00
C1813  C     0.13451   0.39861   0.87435   0.00000  Uiso   1.00
C1814  C     0.35769   0.38859   0.87662   0.00000  Uiso   1.00
C1815  C     0.43923   0.19204   0.83364   0.00000  Uiso   1.00
C1816  C     0.12679   0.09323   0.79713   0.00000  Uiso   1.00
C1817  C     0.15016   0.11992   0.87284   0.00000  Uiso   1.00
C1818  C     0.36645   0.39990   0.79269   0.00000  Uiso   1.00
C1819  C     0.09573   0.33996   0.83435   0.00000  Uiso   1.00
C1820  C     0.40470   0.15945   0.83490   0.00000  Uiso   1.00
C1821  C     0.40527   0.34128   0.83270   0.00000  Uiso   1.00
C1822  C     0.09548   0.15967   0.83176   0.00000  Uiso   1.00
C1823  C     0.34590   0.08978   0.83168   0.00000  Uiso   1.00
C1824  C     0.15471   0.40950   0.83235   0.00000  Uiso   1.00
C1825  C     0.15438   0.09011   0.83492   0.00000  Uiso   1.00
C1826  C     0.06071   0.30802   0.83359   0.00000  Uiso   1.00
C1827  C     0.34609   0.41061   0.83468   0.00000  Uiso   1.00
C1828  C     0.46658   0.14394   0.71251   0.00000  Uiso   1.00
C1829  C     0.47004   0.10523   0.74682   0.00000  Uiso   1.00
C1830  C     0.00011   0.36072   0.94312   0.00000  Uiso   1.00
C1831  C     0.47446   0.40324   0.93895   0.00000  Uiso   1.00
C1832  C     0.00193   0.36036   0.72402   0.00000  Uiso   1.00
C1833  C     0.02857   0.40211   0.72889   0.00000  Uiso   1.00
C1834  C     0.03346   0.14407   0.95416   0.00000  Uiso   1.00
C1835  C     0.03009   0.10534   0.91988   0.00000  Uiso   1.00
C1836  C     0.25185   0.38945   0.72383   0.00000  Uiso   1.00
C1837  C     0.31073   0.44206   0.83364   0.00000  Uiso   1.00
C1838  C     0.27877   0.34794   0.72883   0.00000  Uiso   1.00
C1839  C     0.28378   0.10586   0.95404   0.00000  Uiso   1.00
C1840  C     0.28032   0.14463   0.91979   0.00000  Uiso   1.00
C1841  C     0.21672   0.10605   0.71242   0.00000  Uiso   1.00
C1842  C     0.22011   0.14475   0.74673   0.00000  Uiso   1.00
C1843  C     0.24855   0.38950   0.94281   0.00000  Uiso   1.00
C1844  C     0.22200   0.34767   0.93818   0.00000  Uiso   1.00
C1845  C     0.33836   0.22252   0.77885   0.00000  Uiso   1.00
C1846  C     0.11490   0.31283   0.94278   0.00000  Uiso   1.00
C1847  C     0.13529   0.28651   0.74638   0.00000  Uiso   1.00
C1848  C     0.18912   0.05781   0.83364   0.00000  Uiso   1.00
C1849  C     0.39643   0.16485   0.94715   0.00000  Uiso   1.00
C1850  C     0.16226   0.22228   0.88777   0.00000  Uiso   1.00
C1851  C     0.38654   0.31509   0.72370   0.00000  Uiso   1.00
C1852  C     0.36723   0.28771   0.92099   0.00000  Uiso   1.00
C1853  C     0.10367   0.16511   0.71917   0.00000  Uiso   1.00
C1854  C     0.13648   0.43520   0.72302   0.00000  Uiso   1.00
C1855  C     0.41239   0.02620   0.88676   0.00000  Uiso   1.00
C1856  C     0.35380   0.08492   0.71902   0.00000  Uiso   1.00
C1857  C     0.11454   0.46241   0.92068   0.00000  Uiso   1.00
C1858  C     0.35783   0.43809   0.94410   0.00000  Uiso   1.00
C1859  C     0.18943   0.44180   0.83308   0.00000  Uiso   1.00
C1860  C     0.08832   0.02718   0.77826   0.00000  Uiso   1.00
C1861  C     0.14637   0.08457   0.94751   0.00000  Uiso   1.00
C1862  C     0.38552   0.46389   0.74619   0.00000  Uiso   1.00
C1863  C     0.31099   0.05766   0.83302   0.00000  Uiso   1.00
C1864  C     0.49844   0.21041   0.69178   0.00000  Uiso   1.00
Cu1865 Cu    0.00000   0.25000   0.88022   0.00000  Uiso   1.00
Cu1866 Cu    0.00000   0.25000   0.78645   0.00000  Uiso   1.00
Cu1867 Cu    0.25000  -0.00000   0.88022   0.00000  Uiso   1.00
Cu1868 Cu    0.25000  -0.00000   0.78645   0.00000  Uiso   1.00
H1869  H     0.46400   0.12922   0.67726   0.00000  Uiso   1.00
H1870  H     0.45772   0.41031   0.97183   0.00000  Uiso   1.00
H1871  H     0.13143   0.05642   0.92884   0.00000  Uiso   1.00
H1872  H     0.35521   0.40725   0.72126   0.00000  Uiso   1.00
H1873  H     0.38147   0.48688   0.77618   0.00000  Uiso   1.00
H1874  H     0.37710   0.48183   0.71366   0.00000  Uiso   1.00
H1875  H     0.41861   0.45355   0.74393   0.00000  Uiso   1.00
H1876  H     0.48827   0.35458   0.75859   0.00000  Uiso   1.00
H1877  H     0.47750   0.36737   0.69826   0.00000  Uiso   1.00
H1878  H     0.00827   0.43172   0.73394   0.00000  Uiso   1.00
H1879  H     0.04904   0.39903   0.75982   0.00000  Uiso   1.00
H1880  H     0.04787   0.40748   0.69741   0.00000  Uiso   1.00
H1881  H     0.03613   0.12937   0.98943   0.00000  Uiso   1.00
H1882  H     0.06200   0.16325   0.94659   0.00000  Uiso   1.00
H1883  H     0.02322   0.11780   0.88426   0.00000  Uiso   1.00
H1884  H     0.05958   0.08627   0.91900   0.00000  Uiso   1.00
H1885  H     0.43798   0.16301   0.72004   0.00000  Uiso   1.00
H1886  H     0.00482   0.08239   0.93076   0.00000  Uiso   1.00
H1887  H     0.22757   0.38216   0.69794   0.00000  Uiso   1.00
H1888  H     0.23801   0.39517   0.75833   0.00000  Uiso   1.00
H1889  H     0.29788   0.34254   0.69721   0.00000  Uiso   1.00
H1890  H     0.29942   0.35140   0.75956   0.00000  Uiso   1.00
H1891  H     0.25869   0.31822   0.73425   0.00000  Uiso   1.00
H1892  H     0.31235   0.08668   0.94638   0.00000  Uiso   1.00
H1893  H     0.28648   0.12053   0.98931   0.00000  Uiso   1.00
H1894  H     0.25474   0.16728   0.93045   0.00000  Uiso   1.00
H1895  H     0.30963   0.16402   0.91922   0.00000  Uiso   1.00
H1896  H     0.47670   0.11773   0.78247   0.00000  Uiso   1.00
H1897  H     0.27383   0.13216   0.88409   0.00000  Uiso   1.00
H1898  H     0.18812   0.08695   0.71994   0.00000  Uiso   1.00
H1899  H     0.21416   0.12076   0.67715   0.00000  Uiso   1.00
H1900  H     0.19074   0.16405   0.74732   0.00000  Uiso   1.00
H1901  H     0.22662   0.13223   0.78242   0.00000  Uiso   1.00
H1902  H     0.24563   0.16750   0.73610   0.00000  Uiso   1.00
H1903  H     0.27317   0.38255   0.96844   0.00000  Uiso   1.00
H1904  H     0.26196   0.39521   0.90810   0.00000  Uiso   1.00
H1905  H     0.20250   0.34260   0.96957   0.00000  Uiso   1.00
H1906  H     0.20174   0.35047   0.90706   0.00000  Uiso   1.00
H1907  H     0.44066   0.08596   0.74755   0.00000  Uiso   1.00
H1908  H     0.24235   0.31804   0.93360   0.00000  Uiso   1.00
H1909  H     0.37128   0.18425   0.73141   0.00000  Uiso   1.00
H1910  H     0.32622   0.23976   0.74740   0.00000  Uiso   1.00
H1911  H     0.34944   0.24750   0.80463   0.00000  Uiso   1.00
H1912  H     0.31183   0.20371   0.79411   0.00000  Uiso   1.00
H1913  H     0.08521   0.37386   0.94266   0.00000  Uiso   1.00
H1914  H     0.14275   0.30378   0.92246   0.00000  Uiso   1.00
H1915  H     0.09477   0.28302   0.94707   0.00000  Uiso   1.00
H1916  H     0.12559   0.32387   0.97771   0.00000  Uiso   1.00
H1917  H     0.10492   0.34308   0.72107   0.00000  Uiso   1.00
H1918  H     0.49550   0.08244   0.73609   0.00000  Uiso   1.00
H1919  H     0.16834   0.29690   0.74356   0.00000  Uiso   1.00
H1920  H     0.12659   0.26809   0.71425   0.00000  Uiso   1.00
H1921  H     0.13162   0.26392   0.77682   0.00000  Uiso   1.00
H1922  H     0.43470   0.11101   0.93161   0.00000  Uiso   1.00
H1923  H     0.38154   0.19295   0.92831   0.00000  Uiso   1.00
H1924  H     0.41629   0.17938   0.97469   0.00000  Uiso   1.00
H1925  H     0.37199   0.14401   0.96350   0.00000  Uiso   1.00
H1926  H     0.12870   0.18454   0.93520   0.00000  Uiso   1.00
H1927  H     0.18817   0.20338   0.87133   0.00000  Uiso   1.00
H1928  H     0.17530   0.23843   0.91940   0.00000  Uiso   1.00
H1929  H     0.01350   0.35520   0.90839   0.00000  Uiso   1.00
H1930  H     0.15120   0.24811   0.86292   0.00000  Uiso   1.00
H1931  H     0.41694   0.37584   0.72493   0.00000  Uiso   1.00
H1932  H     0.35966   0.30436   0.74479   0.00000  Uiso   1.00
H1933  H     0.40711   0.28603   0.71715   0.00000  Uiso   1.00
H1934  H     0.37445   0.32738   0.68980   0.00000  Uiso   1.00
H1935  H     0.39681   0.34495   0.94628   0.00000  Uiso   1.00
H1936  H     0.33401   0.29727   0.92418   0.00000  Uiso   1.00
H1937  H     0.37660   0.26928   0.95290   0.00000  Uiso   1.00
H1938  H     0.37110   0.26536   0.89040   0.00000  Uiso   1.00
H1939  H     0.06547   0.11129   0.73521   0.00000  Uiso   1.00
H1940  H     0.02466   0.36689   0.96900   0.00000  Uiso   1.00
H1941  H     0.11894   0.19300   0.73790   0.00000  Uiso   1.00
H1942  H     0.08362   0.17989   0.69194   0.00000  Uiso   1.00
H1943  H     0.12783   0.14416   0.70246   0.00000  Uiso   1.00
H1944  H     0.16686   0.37447   0.72484   0.00000  Uiso   1.00
H1945  H     0.12494   0.42284   0.68892   0.00000  Uiso   1.00
H1946  H     0.15695   0.46443   0.71687   0.00000  Uiso   1.00
H1947  H     0.10921   0.44566   0.74359   0.00000  Uiso   1.00
H1948  H     0.38002   0.06428   0.93488   0.00000  Uiso   1.00
H1949  H     0.40372   0.00733   0.85490   0.00000  Uiso   1.00
H1950  H     0.41921   0.00220   0.91521   0.00000  Uiso   1.00
H1951  H     0.49529   0.43189   0.93128   0.00000  Uiso   1.00
H1952  H     0.44138   0.04536   0.88008   0.00000  Uiso   1.00
H1953  H     0.31551   0.13854   0.73548   0.00000  Uiso   1.00
H1954  H     0.36928   0.05705   0.73757   0.00000  Uiso   1.00
H1955  H     0.37780   0.10604   0.70224   0.00000  Uiso   1.00
H1956  H     0.33369   0.07010   0.69188   0.00000  Uiso   1.00
H1957  H     0.14611   0.40637   0.94552   0.00000  Uiso   1.00
H1958  H     0.11757   0.48511   0.89024   0.00000  Uiso   1.00
H1959  H     0.12324   0.48097   0.95273   0.00000  Uiso   1.00
H1960  H     0.08170   0.45140   0.92387   0.00000  Uiso   1.00
H1961  H     0.33485   0.37403   0.94264   0.00000  Uiso   1.00
H1962  H     0.45184   0.40019   0.90996   0.00000  Uiso   1.00
H1963  H     0.39052   0.43104   0.95341   0.00000  Uiso   1.00
H1964  H     0.34024   0.44487   0.97657   0.00000  Uiso   1.00
H1965  H     0.35596   0.46830   0.92215   0.00000  Uiso   1.00
H1966  H     0.12140   0.06572   0.73117   0.00000  Uiso   1.00
H1967  H     0.09946   0.00180   0.80357   0.00000  Uiso   1.00
H1968  H     0.07602   0.01045   0.74659   0.00000  Uiso   1.00
H1969  H     0.06189   0.04579   0.79399   0.00000  Uiso   1.00
H1970  H     0.18436   0.13855   0.93146   0.00000  Uiso   1.00
H1971  H     0.12199   0.10534   0.96405   0.00000  Uiso   1.00
H1972  H     0.16648   0.07012   0.97488   0.00000  Uiso   1.00
N1973  N     0.00000   0.25000   0.95069   0.00000  Uiso   1.00
N1974  N     0.40975   0.34996   0.74701   0.00000  Uiso   1.00
N1975  N     0.39307   0.32693   0.91599   0.00000  Uiso   1.00
N1976  N     0.07901   0.13855   0.75097   0.00000  Uiso   1.00
N1977  N     0.15959   0.40048   0.74670   0.00000  Uiso   1.00
N1978  N     0.37866   0.05565   0.90014   0.00000  Uiso   1.00
N1979  N     0.32917   0.11125   0.75104   0.00000  Uiso   1.00
N1980  N     0.14178   0.42439   0.91533   0.00000  Uiso   1.00
N1981  N     0.33959   0.40035   0.92031   0.00000  Uiso   1.00
N1982  N     0.12229   0.05667   0.76581   0.00000  Uiso   1.00
N1983  N     0.17089   0.11126   0.91570   0.00000  Uiso   1.00
N1984  N     0.00000   0.25000   0.71598   0.00000  Uiso   1.00
N1985  N     0.35889   0.42538   0.75151   0.00000  Uiso   1.00
N1986  N     0.25000  -0.00000   0.95069   0.00000  Uiso   1.00
N1987  N     0.25000  -0.00000   0.71598   0.00000  Uiso   1.00
N1988  N     0.37231   0.19314   0.76609   0.00000  Uiso   1.00
N1989  N     0.09173   0.34814   0.92016   0.00000  Uiso   1.00
N1990  N     0.10863   0.32505   0.75136   0.00000  Uiso   1.00
N1991  N     0.42124   0.13817   0.91561   0.00000  Uiso   1.00
N1992  N     0.12796   0.19333   0.90048   0.00000  Uiso   1.00
O1993  O     0.04509   0.20491   0.87291   0.00000  Uiso   1.00
O1994  O     0.20492   0.04509   0.79375   0.00000  Uiso   1.00
O1995  O     0.20492   0.04509   0.87291   0.00000  Uiso   1.00
O1996  O     0.29509   0.45491   0.79375   0.00000  Uiso   1.00
O1997  O     0.20492   0.45491   0.79375   0.00000  Uiso   1.00
O1998  O     0.29509   0.04509   0.87291   0.00000  Uiso   1.00
O1999  O     0.29509   0.04509   0.79375   0.00000  Uiso   1.00
O2000  O     0.20492   0.45491   0.87291   0.00000  Uiso   1.00
O2001  O     0.00213   0.17118   0.71707   0.00000  Uiso   1.00
O2002  O     0.47473   0.32434   0.95572   0.00000  Uiso   1.00
O2003  O     0.02661   0.32367   0.71082   0.00000  Uiso   1.00
O2004  O     0.45492   0.29509   0.79375   0.00000  Uiso   1.00
O2005  O     0.49781   0.17117   0.94964   0.00000  Uiso   1.00
O2006  O     0.27640   0.42629   0.71073   0.00000  Uiso   1.00
O2007  O     0.24808   0.07882   0.94957   0.00000  Uiso   1.00
O2008  O     0.25229   0.07883   0.71701   0.00000  Uiso   1.00
O2009  O     0.22377   0.42615   0.95597   0.00000  Uiso   1.00
O2010  O     0.45492   0.29509   0.87291   0.00000  Uiso   1.00
O2011  O     0.04509   0.20491   0.79375   0.00000  Uiso   1.00
O2012  O     0.45492   0.20491   0.79375   0.00000  Uiso   1.00
O2013  O     0.04509   0.29509   0.87291   0.00000  Uiso   1.00
O2014  O     0.04509   0.29509   0.79375   0.00000  Uiso   1.00
O2015  O     0.45492   0.20491   0.87291   0.00000  Uiso   1.00
O2016  O     0.29509   0.45491   0.87291   0.00000  Uiso   1.00
C2017  C     0.56083   0.19211   0.83303   0.00000  Uiso   1.00
C2018  C     0.99733   0.28944   0.97522   0.00000  Uiso   1.00
C2019  C     0.50323   0.28937   0.69144   0.00000  Uiso   1.00
C2020  C     0.50143   0.21041   0.97491   0.00000  Uiso   1.00
C2021  C     0.75297   0.46061   0.69147   0.00000  Uiso   1.00
C2022  C     0.75163   0.03958   0.97488   0.00000  Uiso   1.00
C2023  C     0.74859   0.03959   0.69175   0.00000  Uiso   1.00
C2024  C     0.74700   0.46061   0.97526   0.00000  Uiso   1.00
C2025  C     0.87699   0.15645   0.79723   0.00000  Uiso   1.00
C2026  C     0.60720   0.36222   0.87604   0.00000  Uiso   1.00
C2027  C     0.61599   0.35076   0.79236   0.00000  Uiso   1.00
C2028  C     0.93963   0.30848   0.83314   0.00000  Uiso   1.00
C2029  C     0.90081   0.12930   0.87263   0.00000  Uiso   1.00
C2030  C     0.62310   0.15656   0.86950   0.00000  Uiso   1.00
C2031  C     0.89395   0.36372   0.79107   0.00000  Uiso   1.00
C2032  C     0.88541   0.35249   0.87492   0.00000  Uiso   1.00
C2033  C     0.59965   0.12982   0.79386   0.00000  Uiso   1.00
C2034  C     0.64353   0.38694   0.79073   0.00000  Uiso   1.00
C2035  C     0.87386   0.09251   0.86919   0.00000  Uiso   1.00
C2036  C     0.84992   0.11982   0.79390   0.00000  Uiso   1.00
C2037  C     0.63451   0.39861   0.87435   0.00000  Uiso   1.00
C2038  C     0.85769   0.38859   0.87662   0.00000  Uiso   1.00
C2039  C     0.93923   0.19204   0.83364   0.00000  Uiso   1.00
C2040  C     0.62679   0.09323   0.79713   0.00000  Uiso   1.00
C2041  C     0.65016   0.11992   0.87284   0.00000  Uiso   1.00
C2042  C     0.86645   0.39990   0.79269   0.00000  Uiso   1.00
C2043  C     0.59573   0.33996   0.83435   0.00000  Uiso   1.00
C2044  C     0.90470   0.15945   0.83490   0.00000  Uiso   1.00
C2045  C     0.90527   0.34128   0.83270   0.00000  Uiso   1.00
C2046  C     0.59548   0.15967   0.83176   0.00000  Uiso   1.00
C2047  C     0.84590   0.08978   0.83168   0.00000  Uiso   1.00
C2048  C     0.65471   0.40950   0.83235   0.00000  Uiso   1.00
C2049  C     0.65438   0.09011   0.83492   0.00000  Uiso   1.00
C2050  C     0.56071   0.30802   0.83359   0.00000  Uiso   1.00
C2051  C     0.84609   0.41061   0.83468   0.00000  Uiso   1.00
C2052  C     0.96658   0.14394   0.71251   0.00000  Uiso   1.00
C2053  C     0.97004   0.10523   0.74682   0.00000  Uiso   1.00
C2054  C     0.50011   0.36072   0.94312   0.00000  Uiso   1.00
C2055  C     0.97446   0.40324   0.93895   0.00000  Uiso   1.00
C2056  C     0.50193   0.36036   0.72402   0.00000  Uiso   1.00
C2057  C     0.52857   0.40211   0.72889   0.00000  Uiso   1.00
C2058  C     0.53346   0.14407   0.95416   0.00000  Uiso   1.00
C2059  C     0.53009   0.10534   0.91988   0.00000  Uiso   1.00
C2060  C     0.75185   0.38945   0.72383   0.00000  Uiso   1.00
C2061  C     0.81073   0.44206   0.83364   0.00000  Uiso   1.00
C2062  C     0.77877   0.34794   0.72883   0.00000  Uiso   1.00
C2063  C     0.78378   0.10586   0.95404   0.00000  Uiso   1.00
C2064  C     0.78032   0.14463   0.91979   0.00000  Uiso   1.00
C2065  C     0.71672   0.10605   0.71242   0.00000  Uiso   1.00
C2066  C     0.72011   0.14475   0.74673   0.00000  Uiso   1.00
C2067  C     0.74855   0.38950   0.94281   0.00000  Uiso   1.00
C2068  C     0.72200   0.34767   0.93818   0.00000  Uiso   1.00
C2069  C     0.83836   0.22252   0.77885   0.00000  Uiso   1.00
C2070  C     0.61490   0.31283   0.94278   0.00000  Uiso   1.00
C2071  C     0.63529   0.28651   0.74638   0.00000  Uiso   1.00
C2072  C     0.68912   0.05781   0.83364   0.00000  Uiso   1.00
C2073  C     0.89643   0.16485   0.94715   0.00000  Uiso   1.00
C2074  C     0.66226   0.22228   0.88777   0.00000  Uiso   1.00
C2075  C     0.88654   0.31509   0.72370   0.00000  Uiso   1.00
C2076  C     0.86723   0.28771   0.92099   0.00000  Uiso   1.00
C2077  C     0.60367   0.16511   0.71917   0.00000  Uiso   1.00
C2078  C     0.63648   0.43520   0.72302   0.00000  Uiso   1.00
C2079  C     0.91239   0.02620   0.88676   0.00000  Uiso   1.00
C2080  C     0.85380   0.08492   0.71902   0.00000  Uiso   1.00
C2081  C     0.61454   0.46241   0.92068   0.00000  Uiso   1.00
C2082  C     0.85783   0.43809   0.94410   0.00000  Uiso   1.00
C2083  C     0.68943   0.44180   0.83308   0.00000  Uiso   1.00
C2084  C     0.58832   0.02718   0.77826   0.00000  Uiso   1.00
C2085  C     0.64637   0.08457   0.94751   0.00000  Uiso   1.00
C2086  C     0.88552   0.46389   0.74619   0.00000  Uiso   1.00
C2087  C     0.81099   0.05766   0.83302   0.00000  Uiso   1.00
C2088  C     0.99844   0.21041   0.69178   0.00000  Uiso   1.00
Cu2089 Cu    0.50000   0.25000   0.88022   0.00000  Uiso   1.00
Cu2090 Cu    0.50000   0.25000   0.78645   0.00000  Uiso   1.00
Cu2091 Cu    0.75000  -0.00000   0.88022   0.00000  Uiso   1.00
Cu2092 Cu    0.75000  -0.00000   0.78645   0.00000  Uiso   1.00
H2093  H     0.96400   0.12922   0.67726   0.00000  Uiso   1.00
H2094  H     0.95772   0.41031   0.97183   0.00000  Uiso   1.00
H2095  H     0.63143   0.05642   0.92884   0.00000  Uiso   1.00
H2096  H     0.85521   0.40725   0.72126   0.00000  Uiso   1.00
H2097  H     0.88147   0.48688   0.77618   0.00000  Uiso   1.00
H2098  H     0.87710   0.48183   0.71366   0.00000  Uiso   1.00
H2099  H     0.91861   0.45355   0.74393   0.00000  Uiso   1.00
H2100  H     0.98827   0.35458   0.75859   0.00000  Uiso   1.00
H2101  H     0.97750   0.36737   0.69826   0.00000  Uiso   1.00
H2102  H     0.50827   0.43172   0.73394   0.00000  Uiso   1.00
H2103  H     0.54904   0.39903   0.75982   0.00000  Uiso   1.00
H2104  H     0.54787   0.40748   0.69741   0.00000  Uiso   1.00
H2105  H     0.53613   0.12937   0.98943   0.00000  Uiso   1.00
H2106  H     0.56200   0.16325   0.94659   0.00000  Uiso   1.00
H2107  H     0.52322   0.11780   0.88426   0.00000  Uiso   1.00
H2108  H     0.55958   0.08627   0.91900   0.00000  Uiso   1.00
H2109  H     0.93798   0.16301   0.72004   0.00000  Uiso   1.00
H2110  H     0.50482   0.08239   0.93076   0.00000  Uiso   1.00
H2111  H     0.72757   0.38216   0.69794   0.00000  Uiso   1.00
H2112  H     0.73801   0.39517   0.75833   0.00000  Uiso   1.00
H2113  H     0.79788   0.34254   0.69721   0.00000  Uiso   1.00
H2114  H     0.79942   0.35140   0.75956   0.00000  Uiso   1.00
H2115  H     0.75869   0.31822   0.73425   0.00000  Uiso   1.00
H2116  H     0.81235   0.08668   0.94638   0.00000  Uiso   1.00
H2117  H     0.78648   0.12053   0.98931   0.00000  Uiso   1.00
H2118  H     0.75474   0.16728   0.93045   0.00000  Uiso   1.00
H2119  H     0.80963   0.16402   0.91922   0.00000  Uiso   1.00
H2120  H     0.97670   0.11773   0.78247   0.00000  Uiso   1.00
H2121  H     0.77383   0.13216   0.88409   0.00000  Uiso   1.00
H2122  H     0.68812   0.08695   0.71994   0.00000  Uiso   1.00
H2123  H     0.71416   0.12076   0.67715   0.00000  Uiso   1.00
H2124  H     0.69074   0.16405   0.74732   0.00000  Uiso   1.00
H2125  H     0.72662   0.13223   0.78242   0.00000  Uiso   1.00
H2126  H     0.74563   0.16750   0.73610   0.00000  Uiso   1.00
H2127  H     0.77317   0.38255   0.96844   0.00000  Uiso   1.00
H2128  H     0.76196   0.39521   0.90810   0.00000  Uiso   1.00
H2129  H     0.70250   0.34260   0.96957   0.00000  Uiso   1.00
H2130  H     0.70174   0.35047   0.90706   0.00000  Uiso   1.00
H2131  H     0.94066   0.08596   0.74755   0.00000  Uiso   1.00
H2132  H     0.74235   0.31804   0.93360   0.00000  Uiso   1.00
H2133  H     0.87128   0.18425   0.73141   0.00000  Uiso   1.00
H2134  H     0.82622   0.23976   0.74740   0.00000  Uiso   1.00
H2135  H     0.84944   0.24750   0.80463   0.00000  Uiso   1.00
H2136  H     0.81183   0.20371   0.79411   0.00000  Uiso   1.00
H2137  H     0.58521   0.37386   0.94266   0.00000  Uiso   1.00
H2138  H     0.64275   0.30378   0.92246   0.00000  Uiso   1.00
H2139  H     0.59477   0.28302   0.94707   0.00000  Uiso   1.00
H2140  H     0.62559   0.32387   0.97771   0.00000  Uiso   1.00
H2141  H     0.60492   0.34308   0.72107   0.00000  Uiso   1.00
H2142  H     0.99550   0.08244   0.73609   0.00000  Uiso   1.00
H2143  H     0.66834   0.29690   0.74356   0.00000  Uiso   1.00
H2144  H     0.62659   0.26809   0.71425   0.00000  Uiso   1.00
H2145  H     0.63162   0.26392   0.77682   0.00000  Uiso   1.00
H2146  H     0.93470   0.11101   0.93161   0.00000  Uiso   1.00
H2147  H     0.88154   0.19295   0.92831   0.00000  Uiso   1.00
H2148  H     0.91629   0.17938   0.97469   0.00000  Uiso   1.00
H2149  H     0.87199   0.14401   0.96350   0.00000  Uiso   1.00
H2150  H     0.62870   0.18454   0.93520   0.00000  Uiso   1.00
H2151  H     0.68817   0.20338   0.87133   0.00000  Uiso   1.00
H2152  H     0.67530   0.23843   0.91940   0.00000  Uiso   1.00
H2153  H     0.51350   0.35520   0.90839   0.00000  Uiso   1.00
H2154  H     0.65120   0.24811   0.86292   0.00000  Uiso   1.00
H2155  H     0.91694   0.37584   0.72493   0.00000  Uiso   1.00
H2156  H     0.85966   0.30436   0.74479   0.00000  Uiso   1.00
H2157  H     0.90711   0.28603   0.71715   0.00000  Uiso   1.00
H2158  H     0.87445   0.32738   0.68980   0.00000  Uiso   1.00
H2159  H     0.89681   0.34495   0.94628   0.00000  Uiso   1.00
H2160  H     0.83401   0.29727   0.92418   0.00000  Uiso   1.00
H2161  H     0.87660   0.26928   0.95290   0.00000  Uiso   1.00
H2162  H     0.87110   0.26536   0.89040   0.00000  Uiso   1.00
H2163  H     0.56547   0.11129   0.73521   0.00000  Uiso   1.00
H2164  H     0.52466   0.36689   0.96900   0.00000  Uiso   1.00
H2165  H     0.61894   0.19300   0.73790   0.00000  Uiso   1.00
H2166  H     0.58362   0.17989   0.69194   0.00000  Uiso   1.00
H2167  H     0.62783   0.14416   0.70246   0.00000  Uiso   1.00
H2168  H     0.66686   0.37447   0.72484   0.00000  Uiso   1.00
H2169  H     0.62494   0.42284   0.68892   0.00000  Uiso   1.00
H2170  H     0.65695   0.46443   0.71687   0.00000  Uiso   1.00
H2171  H     0.60921   0.44566   0.74359   0.00000  Uiso   1.00
H2172  H     0.88002   0.06428   0.93488   0.00000  Uiso   1.00
H2173  H     0.90372   0.00733   0.85490   0.00000  Uiso   1.00
H2174  H     0.91921   0.00220   0.91521   0.00000  Uiso   1.00
H2175  H     0.99529   0.43189   0.93128   0.00000  Uiso   1.00
H2176  H     0.94138   0.04536   0.88008   0.00000  Uiso   1.00
H2177  H     0.81551   0.13854   0.73548   0.00000  Uiso   1.00
H2178  H     0.86928   0.05705   0.73757   0.00000  Uiso   1.00
H2179  H     0.87780   0.10604   0.70224   0.00000  Uiso   1.00
H2180  H     0.83369   0.07010   0.69188   0.00000  Uiso   1.00
H2181  H     0.64611   0.40637   0.94552   0.00000  Uiso   1.00
H2182  H     0.61757   0.48511   0.89024   0.00000  Uiso   1.00
H2183  H     0.62324   0.48097   0.95273   0.00000  Uiso   1.00
H2184  H     0.58170   0.45140   0.92387   0.00000  Uiso   1.00
H2185  H     0.83485   0.37403   0.94264   0.00000  Uiso   1.00
H2186  H     0.95184   0.40019   0.90996   0.00000  Uiso   1.00
H2187  H     0.89052   0.43104   0.95341   0.00000  Uiso   1.00
H2188  H     0.84024   0.44487   0.97657   0.00000  Uiso   1.00
H2189  H     0.85596   0.46830   0.92215   0.00000  Uiso   1.00
H2190  H     0.62140   0.06572   0.73117   0.00000  Uiso   1.00
H2191  H     0.59946   0.00180   0.80357   0.00000  Uiso   1.00
H2192  H     0.57602   0.01045   0.74659   0.00000  Uiso   1.00
H2193  H     0.56189   0.04579   0.79399   0.00000  Uiso   1.00
H2194  H     0.68436   0.13855   0.93146   0.00000  Uiso   1.00
H2195  H     0.62199   0.10534   0.96405   0.00000  Uiso   1.00
H2196  H     0.66648   0.07012   0.97488   0.00000  Uiso   1.00
N2197  N     0.50000   0.25000   0.95069   0.00000  Uiso   1.00
N2198  N     0.90975   0.34996   0.74701   0.00000  Uiso   1.00
N2199  N     0.89307   0.32693   0.91599   0.00000  Uiso   1.00
N2200  N     0.57901   0.13855   0.75097   0.00000  Uiso   1.00
N2201  N     0.65959   0.40048   0.74670   0.00000  Uiso   1.00
N2202  N     0.87866   0.05565   0.90014   0.00000  Uiso   1.00
N2203  N     0.82917   0.11125   0.75104   0.00000  Uiso   1.00
N2204  N     0.64178   0.42439   0.91533   0.00000  Uiso   1.00
N2205  N     0.83959   0.40035   0.92031   0.00000  Uiso   1.00
N2206  N     0.62229   0.05667   0.76581   0.00000  Uiso   1.00
N2207  N     0.67089   0.11126   0.91570   0.00000  Uiso   1.00
N2208  N     0.50000   0.25000   0.71598   0.00000  Uiso   1.00
N2209  N     0.85889   0.42538   0.75151   0.00000  Uiso   1.00
N2210  N     0.75000  -0.00000   0.95069   0.00000  Uiso   1.00
N2211  N     0.75000  -0.00000   0.71598   0.00000  Uiso   1.00
N2212  N     0.87231   0.19314   0.76609   0.00000  Uiso   1.00
N2213  N     0.59173   0.34814   0.92016   0.00000  Uiso   1.00
N2214  N     0.60863   0.32505   0.75136   0.00000  Uiso   1.00
N2215  N     0.92124   0.13817   0.91561   0.00000  Uiso   1.00
N2216  N     0.62796   0.19333   0.90048   0.00000  Uiso   1.00
O2217  O     0.54509   0.20491   0.87291   0.00000  Uiso   1.00
O2218  O     0.70492   0.04509   0.79375   0.00000  Uiso   1.00
O2219  O     0.70492   0.04509   0.87291   0.00000  Uiso   1.00
O2220  O     0.79509   0.45491   0.79375   0.00000  Uiso   1.00
O2221  O     0.70492   0.45491   0.79375   0.00000  Uiso   1.00
O2222  O     0.79509   0.04509   0.87291   0.00000  Uiso   1.00
O2223  O     0.79509   0.04509   0.79375   0.00000  Uiso   1.00
O2224  O     0.70492   0.45491   0.87291   0.00000  Uiso   1.00
O2225  O     0.50213   0.17118   0.71707   0.00000  Uiso   1.00
O2226  O     0.97473   0.32434   0.95572   0.00000  Uiso   1.00
O2227  O     0.52661   0.32367   0.71082   0.00000  Uiso   1.00
O2228  O     0.95492   0.29509   0.79375   0.00000  Uiso   1.00
O2229  O     0.99781   0.17117   0.94964   0.00000  Uiso   1.00
O2230  O     0.77640   0.42629   0.71073   0.00000  Uiso   1.00
O2231  O     0.74808   0.07882   0.94957   0.00000  Uiso   1.00
O2232  O     0.75229   0.07883   0.71701   0.00000  Uiso   1.00
O2233  O     0.72377   0.42615   0.95597   0.00000  Uiso   1.00
O2234  O     0.95492   0.29509   0.87291   0.00000  Uiso   1.00
O2235  O     0.54509   0.20491   0.79375   0.00000  Uiso   1.00
O2236  O     0.95492   0.20491   0.79375   0.00000  Uiso   1.00
O2237  O     0.54509   0.29509   0.87291   0.00000  Uiso   1.00
O2238  O     0.54509   0.29509   0.79375   0.00000  Uiso   1.00
O2239  O     0.95492   0.20491   0.87291   0.00000  Uiso   1.00
O2240  O     0.79509   0.45491   0.87291   0.00000  Uiso   1.00
C2241  C     0.06083   0.69211   0.83303   0.00000  Uiso   1.00
C2242  C     0.49733   0.78944   0.97522   0.00000  Uiso   1.00
C2243  C     0.00323   0.78937   0.69144   0.00000  Uiso   1.00
C2244  C     0.00143   0.71041   0.97491   0.00000  Uiso   1.00
C2245  C     0.25297   0.96061   0.69147   0.00000  Uiso   1.00
C2246  C     0.25163   0.53958   0.97488   0.00000  Uiso   1.00
C2247  C     0.24859   0.53959   0.69175   0.00000  Uiso   1.00
C2248  C     0.24700   0.96061   0.97526   0.00000  Uiso   1.00
C2249  C     0.37699   0.65645   0.79723   0.00000  Uiso   1.00
C2250  C     0.10720   0.86222   0.87604   0.00000  Uiso   1.00
C2251  C     0.11599   0.85076   0.79236   0.00000  Uiso   1.00
C2252  C     0.43963   0.80848   0.83314   0.00000  Uiso   1.00
C2253  C     0.40081   0.62930   0.87263   0.00000  Uiso   1.00
C2254  C     0.12310   0.65656   0.86950   0.00000  Uiso   1.00
C2255  C     0.39395   0.86372   0.79107   0.00000  Uiso   1.00
C2256  C     0.38541   0.85249   0.87492   0.00000  Uiso   1.00
C2257  C     0.09965   0.62982   0.79386   0.00000  Uiso   1.00
C2258  C     0.14353   0.88694   0.79073   0.00000  Uiso   1.00
C2259  C     0.37386   0.59251   0.86919   0.00000  Uiso   1.00
C2260  C     0.34992   0.61982   0.79390   0.00000  Uiso   1.00
C2261  C     0.13451   0.89861   0.87435   0.00000  Uiso   1.00
C2262  C     0.35769   0.88859   0.87662   0.00000  Uiso   1.00
C2263  C     0.43923   0.69204   0.83364   0.00000  Uiso   1.00
C2264  C     0.12679   0.59323   0.79713   0.00000  Uiso   1.00
C2265  C     0.15016   0.61992   0.87284   0.00000  Uiso   1.00
C2266  C     0.36645   0.89990   0.79269   0.00000  Uiso   1.00
C2267  C     0.09573   0.83996   0.83435   0.00000  Uiso   1.00
C2268  C     0.40470   0.65945   0.83490   0.00000  Uiso   1.00
C2269  C     0.40527   0.84128   0.83270   0.00000  Uiso   1.00
C2270  C     0.09548   0.65967   0.83176   0.00000  Uiso   1.00
C2271  C     0.34590   0.58978   0.83168   0.00000  Uiso   1.00
C2272  C     0.15471   0.90950   0.83235   0.00000  Uiso   1.00
C2273  C     0.15438   0.59011   0.83492   0.00000  Uiso   1.00
C2274  C     0.06071   0.80802   0.83359   0.00000  Uiso   1.00
C2275  C     0.34609   0.91061   0.83468   0.00000  Uiso   1.00
C2276  C     0.46658   0.64394   0.71251   0.00000  Uiso   1.00
C2277  C     0.47004   0.60523   0.74682   0.00000  Uiso   1.00
C2278  C     0.00011   0.86072   0.94312   0.00000  Uiso   1.00
C2279  C     0.47446   0.90324   0.93895   0.00000  Uiso   1.00
C2280  C     0.00193   0.86036   0.72402   0.00000  Uiso   1.00
C2281  C     0.02857   0.90211   0.72889   0.00000  Uiso   1.00
C2282  C     0.03346   0.64407   0.95416   0.00000  Uiso   1.00
C2283  C     0.03009   0.60534   0.91988   0.00000  Uiso   1.00
C2284  C     0.25185   0.88945   0.72383   0.00000  Uiso   1.00
C2285  C     0.31073   0.94206   0.83364   0.00000  Uiso   1.00
C2286  C     0.27877   0.84794   0.72883   0.00000  Uiso   1.00
C2287  C     0.28378   0.60586   0.95404   0.00000  Uiso   1.00
C2288  C     0.28032   0.64463   0.91979   0.00000  Uiso   1.00
C2289  C     0.21672   0.60605   0.71242   0.00000  Uiso   1.00
C2290  C     0.22011   0.64475   0.74673   0.00000  Uiso   1.00
C2291  C     0.24855   0.88950   0.94281   0.00000  Uiso   1.00
C2292  C     0.22200   0.84767   0.93818   0.00000  Uiso   1.00
C2293  C     0.33836   0.72252   0.77885   0.00000  Uiso   1.00
C2294  C     0.11490   0.81283   0.94278   0.00000  Uiso   1.00
C2295  C     0.13529   0.78651   0.74638   0.00000  Uiso   1.00
C2296  C     0.18912   0.55781   0.83364   0.00000  Uiso   1.00
C2297  C     0.39643   0.66485   0.94715   0.00000  Uiso   1.00
C2298  C     0.16226   0.72228   0.88777   0.00000  Uiso   1.00
C2299  C     0.38654   0.81509   0.72370   0.00000  Uiso   1.00
C2300  C     0.36723   0.78771   0.92099   0.00000  Uiso   1.00
C2301  C     0.10367   0.66511   0.71917   0.00000  Uiso   1.00
C2302  C     0.13648   0.93520   0.72302   0.00000  Uiso   1.00
C2303  C     0.41239   0.52620   0.88676   0.00000  Uiso   1.00
C2304  C     0.35380   0.58492   0.71902   0.00000  Uiso   1.00
C2305  C     0.11454   0.96241   0.92068   0.00000  Uiso   1.00
C2306  C     0.35783   0.93809   0.94410   0.00000  Uiso   1.00
C2307  C     0.18943   0.94180   0.83308   0.00000  Uiso   1.00
C2308  C     0.08832   0.52718   0.77826   0.00000  Uiso   1.00
C2309  C     0.14637   0.58457   0.94751   0.00000  Uiso   1.00
C2310  C     0.38552   0.96389   0.74619   0.00000  Uiso   1.00
C2311  C     0.31099   0.55766   0.83302   0.00000  Uiso   1.00
C2312  C     0.49844   0.71041   0.69178   0.00000  Uiso   1.00
Cu2313 Cu    0.00000   0.75000   0.88022   0.00000  Uiso   1.00
Cu2314 Cu    0.00000   0.75000   0.78645   0.00000  Uiso   1.00
Cu2315 Cu    0.25000   0.50000   0.88022   0.00000  Uiso   1.00
Cu2316 Cu    0.25000   0.50000   0.78645   0.00000  Uiso   1.00
H2317  H     0.46400   0.62922   0.67726   0.00000  Uiso   1.00
H2318  H     0.45772   0.91031   0.97183   0.00000  Uiso   1.00
H2319  H     0.13143   0.55642   0.92884   0.00000  Uiso   1.00
H2320  H     0.35521   0.90725   0.72126   0.00000  Uiso   1.00
H2321  H     0.38147   0.98688   0.77618   0.00000  Uiso   1.00
H2322  H     0.37710   0.98183   0.71366   0.00000  Uiso   1.00
H2323  H     0.41861   0.95355   0.74393   0.00000  Uiso   1.00
H2324  H     0.48827   0.85458   0.75859   0.00000  Uiso   1.00
H2325  H     0.47750   0.86737   0.69826   0.00000  Uiso   1.00
H2326  H     0.00827   0.93172   0.73394   0.00000  Uiso   1.00
H2327  H     0.04904   0.89903   0.75982   0.00000  Uiso   1.00
H2328  H     0.04787   0.90748   0.69741   0.00000  Uiso   1.00
H2329  H     0.03613   0.62937   0.98943   0.00000  Uiso   1.00
H2330  H     0.06200   0.66325   0.94659   0.00000  Uiso   1.00
H2331  H     0.02322   0.61780   0.88426   0.00000  Uiso   1.00
H2332  H     0.05958   0.58627   0.91900   0.00000  Uiso   1.00
H2333  H     0.43798   0.66301   0.72004   0.00000  Uiso   1.00
H2334  H     0.00482   0.58239   0.93076   0.00000  Uiso   1.00
H2335  H     0.22757   0.88216   0.69794   0.00000  Uiso   1.00
H2336  H     0.23801   0.89517   0.75833   0.00000  Uiso   1.00
H2337  H     0.29788   0.84254   0.69721   0.00000  Uiso   1.00
H2338  H     0.29942   0.85140   0.75956   0.00000  Uiso   1.00
H2339  H     0.25869   0.81822   0.73425   0.00000  Uiso   1.00
H2340  H     0.31235   0.58668   0.94638   0.00000  Uiso   1.00
H2341  H     0.28648   0.62053   0.98931   0.00000  Uiso   1.00
H2342  H     0.25474   0.66728   0.93045   0.00000  Uiso   1.00
H2343  H     0.30963   0.66402   0.91922   0.00000  Uiso   1.00
H2344  H     0.47670   0.61773   0.78247   0.00000  Uiso   1.00
H2345  H     0.27383   0.63216   0.88409   0.00000  Uiso   1.00
H2346  H     0.18812   0.58695   0.71994   0.00000  Uiso   1.00
H2347  H     0.21416   0.62076   0.67715   0.00000  Uiso   1.00
H2348  H     0.19074   0.66405   0.74732   0.00000  Uiso   1.00
H2349  H     0.22662   0.63223   0.78242   0.00000  Uiso   1.00
H2350  H     0.24563   0.66750   0.73610   0.00000  Uiso   1.00
H2351  H     0.27317   0.88255   0.96844   0.00000  Uiso   1.00
H2352  H     0.26196   0.89521   0.90810   0.00000  Uiso   1.00
H2353  H     0.20250   0.84260   0.96957   0.00000  Uiso   1.00
H2354  H     0.20174   0.85047   0.90706   0.00000  Uiso   1.00
H2355  H     0.44066   0.58596   0.74755   0.00000  Uiso   1.00
H2356  H     0.24235   0.81804   0.93360   0.00000  Uiso   1.00
H2357  H     0.37128   0.68425   0.73141   0.00000  Uiso   1.00
H2358  H     0.32622   0.73976   0.74740   0.00000  Uiso   1.00
H2359  H     0.34944   0.74750   0.80463   0.00000  Uiso   1.00
H2360  H     0.31183   0.70371   0.79411   0.00000  Uiso   1.00
H2361  H     0.08521   0.87386   0.94266   0.00000  Uiso   1.00
H2362  H     0.14275   0.80378   0.92246   0.00000  Uiso   1.00
H2363  H     0.09477   0.78302   0.94707   0.00000  Uiso   1.00
H2364  H     0.12559   0.82387   0.97771   0.00000  Uiso   1.00
H2365  H     0.10492   0.84308   0.72107   0.00000  Uiso   1.00
H2366  H     0.49550   0.58244   0.73609   0.00000  Uiso   1.00
H2367  H     0.16834   0.79690   0.74356   0.00000  Uiso   1.00
H2368  H     0.12659   0.76809   0.71425   0.00000  Uiso   1.00
H2369  H     0.13162   0.76392   0.77682   0.00000  Uiso   1.00
H2370  H     0.43470   0.61101   0.93161   0.00000  Uiso   1.00
H2371  H     0.38154   0.69295   0.92831   0.00000  Uiso   1.00
H2372  H     0.41629   0.67938   0.97469   0.00000  Uiso   1.00
H2373  H     0.37199   0.64401   0.96350   0.00000  Uiso   1.00
H2374  H     0.12870   0.68454   0.93520   0.00000  Uiso   1.00
H2375  H     0.18817   0.70338   0.87133   0.00000  Uiso   1.00
H2376  H     0.17530   0.73843   0.91940   0.00000  Uiso   1.00
H2377  H     0.01350   0.85520   0.90839   0.00000  Uiso   1.00
H2378  H     0.15120   0.74811   0.86292   0.00000  Uiso   1.00
H2379  H     0.41694   0.87584   0.72493   0.00000  Uiso   1.00
H2380  H     0.35966   0.80436   0.74479   0.00000  Uiso   1.00
H2381  H     0.40711   0.78603   0.71715   0.00000  Uiso   1.00
H2382  H     0.37445   0.82738   0.68980   0.00000  Uiso   1.00
H2383  H     0.39681   0.84495   0.94628   0.00000  Uiso   1.00
H2384  H     0.33401   0.79727   0.92418   0.00000  Uiso   1.00
H2385  H     0.37660   0.76928   0.95290   0.00000  Uiso   1.00
H2386  H     0.37110   0.76536   0.89040   0.00000  Uiso   1.00
H2387  H     0.06547   0.61129   0.73521   0.00000  Uiso   1.00
H2388  H     0.02466   0.86689   0.96900   0.00000  Uiso   1.00
H2389  H     0.11894   0.69300   0.73790   0.00000  Uiso   1.00
H2390  H     0.08362   0.67989   0.69194   0.00000  Uiso   1.00
H2391  H     0.12783   0.64416   0.70246   0.00000  Uiso   1.00
H2392  H     0.16686   0.87447   0.72484   0.00000  Uiso   1.00
H2393  H     0.12494   0.92284   0.68892   0.00000  Uiso   1.00
H2394  H     0.15695   0.96443   0.71687   0.00000  Uiso   1.00
H2395  H     0.10921   0.94566   0.74359   0.00000  Uiso   1.00
H2396  H     0.38002   0.56428   0.93488   0.00000  Uiso   1.00
H2397  H     0.40372   0.50733   0.85490   0.00000  Uiso   1.00
H2398  H     0.41921   0.50220   0.91521   0.00000  Uiso   1.00
H2399  H     0.49529   0.93189   0.93128   0.00000  Uiso   1.00
H2400  H     0.44138   0.54536   0.88008   0.00000  Uiso   1.00
H2401  H     0.31551   0.63854   0.73548   0.00000  Uiso   1.00
H2402  H     0.36928   0.55705   0.73757   0.00000  Uiso   1.00
H2403  H     0.37780   0.60604   0.70224   0.00000  Uiso   1.00
H2404  H     0.33369   0.57010   0.69188   0.00000  Uiso   1.00
H2405  H     0.14611   0.90637   0.94552   0.00000  Uiso   1.00
H2406  H     0.11757   0.98511   0.89024   0.00000  Uiso   1.00
H2407  H     0.12324   0.98097   0.95273   0.00000  Uiso   1.00
H2408  H     0.08170   0.95140   0.92387   0.00000  Uiso   1.00
H2409  H     0.33485   0.87403   0.94264   0.00000  Uiso   1.00
H2410  H     0.45184   0.90019   0.90996   0.00000  Uiso   1.00
H2411  H     0.39052   0.93104   0.95341   0.00000  Uiso   1.00
H2412  H     0.34024   0.94487   0.97657   0.00000  Uiso   1.00
H2413  H     0.35596   0.96830   0.92215   0.00000  Uiso   1.00
H2414  H     0.12140   0.56572   0.73117   0.00000  Uiso   1.00
H2415  H     0.09946   0.50180   0.80357   0.00000  Uiso   1.00
H2416  H     0.07602   0.51045   0.74659   0.00000  Uiso   1.00
H2417  H     0.06189   0.54579   0.79399   0.00000  Uiso   1.00
H2418  H     0.18436   0.63855   0.93146   0.00000  Uiso   1.00
H2419  H     0.12199   0.60534   0.96405   0.00000  Uiso   1.00
H2420  H     0.16648   0.57012   0.97488   0.00000  Uiso   1.00
N2421  N     0.00000   0.75000   0.95069   0.00000  Uiso   1.00
N2422  N     0.40975   0.84996   0.74701   0.00000  Uiso   1.00
N2423  N     0.39307   0.82693   0.91599   0.00000  Uiso   1.00
N2424  N     0.07901   0.63855   0.75097   0.00000  Uiso   1.00
N2425  N     0.15959   0.90048   0.74670   0.00000  Uiso   1.00
N2426  N     0.37866   0.55565   0.90014   0.00000  Uiso   1.00
N2427  N     0.32917   0.61125   0.75104   0.00000  Uiso   1.00
N2428  N     0.14178   0.92439   0.91533   0.00000  Uiso   1.00
N2429  N     0.33959   0.90035   0.92031   0.00000  Uiso   1.00
N2430  N     0.12229   0.55667   0.76581   0.00000  Uiso   1.00
N2431  N     0.17089   0.61126   0.91570   0.00000  Uiso   1.00
N2432  N     0.00000   0.75000   0.71598   0.00000  Uiso   1.00
N2433  N     0.35889   0.92538   0.75151   0.00000  Uiso   1.00
N2434  N     0.25000   0.50000   0.95069   0.00000  Uiso   1.00
N2435  N     0.25000   0.50000   0.71598   0.00000  Uiso   1.00
N2436  N     0.37231   0.69314   0.76609   0.00000  Uiso   1.00
N2437  N     0.09173   0.84814   0.92016   0.00000  Uiso   1.00
N2438  N     0.10863   0.82505   0.75136   0.00000  Uiso   1.00
N2439  N     0.42124   0.63817   0.91561   0.00000  Uiso   1.00
N2440  N     0.12796   0.69333   0.90048   0.00000  Uiso   1.00
O2441  O     0.04509   0.70491   0.87291   0.00000  Uiso   1.00
O2442  O     0.20492   0.54509   0.79375   0.00000  Uiso   1.00
O2443  O     0.20492   0.54509   0.87291   0.00000  Uiso   1.00
O2444  O     0.29509   0.95491   0.79375   0.00000  Uiso   1.00
O2445  O     0.20492   0.95491   0.79375   0.00000  Uiso   1.00
O2446  O     0.29509   0.54509   0.87291   0.00000  Uiso   1.00
O2447  O     0.29509   0.54509   0.79375   0.00000  Uiso   1.00
O2448  O     0.20492   0.95491   0.87291   0.00000  Uiso   1.00
O2449  O     0.00213   0.67118   0.71707   0.00000  Uiso   1.00
O2450  O     0.47473   0.82434   0.95572   0.00000  Uiso   1.00
O2451  O     0.02661   0.82367   0.71082   0.00000  Uiso   1.00
O2452  O     0.45492   0.79509   0.79375   0.00000  Uiso   1.00
O2453  O     0.49781   0.67117   0.94964   0.00000  Uiso   1.00
O2454  O     0.27640   0.92629   0.71073   0.00000  Uiso   1.00
O2455  O     0.24808   0.57882   0.94957   0.00000  Uiso   1.00
O2456  O     0.25229   0.57883   0.71701   0.00000  Uiso   1.00
O2457  O     0.22377   0.92615   0.95597   0.00000  Uiso   1.00
O2458  O     0.45492   0.79509   0.87291   0.00000  Uiso   1.00
O2459  O     0.04509   0.70491   0.79375   0.00000  Uiso   1.00
O2460  O     0.45492   0.70491   0.79375   0.00000  Uiso   1.00
O2461  O     0.04509   0.79509   0.87291   0.00000  Uiso   1.00
O2462  O     0.04509   0.79509   0.79375   0.00000  Uiso   1.00
O2463  O     0.45492   0.70491   0.87291   0.00000  Uiso   1.00
O2464  O     0.29509   0.95491   0.87291   0.00000  Uiso   1.00
C2465  C     0.56083   0.69211   0.83303   0.00000  Uiso   1.00
C2466  C     0.99733   0.78944   0.97522   0.00000  Uiso   1.00
C2467  C     0.50323   0.78937   0.69144   0.00000  Uiso   1.00
C2468  C     0.50143   0.71041   0.97491   0.00000  Uiso   1.00
C2469  C     0.75297   0.96061   0.69147   0.00000  Uiso   1.00
C2470  C     0.75163   0.53958   0.97488   0.00000  Uiso   1.00
C2471  C     0.74859   0.53959   0.69175   0.00000  Uiso   1.00
C2472  C     0.74700   0.96061   0.97526   0.00000  Uiso   1.00
C2473  C     0.87699   0.65645   0.79723   0.00000  Uiso   1.00
C2474  C     0.60720   0.86222   0.87604   0.00000  Uiso   1.00
C2475  C     0.61599   0.85076   0.79236   0.00000  Uiso   1.00
C2476  C     0.93963   0.80848   0.83314   0.00000  Uiso   1.00
C2477  C     0.90081   0.62930   0.87263   0.00000  Uiso   1.00
C2478  C     0.62310   0.65656   0.86950   0.00000  Uiso   1.00
C2479  C     0.89395   0.86372   0.79107   0.00000  Uiso   1.00
C2480  C     0.88541   0.85249   0.87492   0.00000  Uiso   1.00
C2481  C     0.59965   0.62982   0.79386   0.00000  Uiso   1.00
C2482  C     0.64353   0.88694   0.79073   0.00000  Uiso   1.00
C2483  C     0.87386   0.59251   0.86919   0.00000  Uiso   1.00
C2484  C     0.84992   0.61982   0.79390   0.00000  Uiso   1.00
C2485  C     0.63451   0.89861   0.87435   0.00000  Uiso   1.00
C2486  C     0.85769   0.88859   0.87662   0.00000  Uiso   1.00
C2487  C     0.93923   0.69204   0.83364   0.00000  Uiso   1.00
C2488  C     0.62679   0.59323   0.79713   0.00000  Uiso   1.00
C2489  C     0.65016   0.61992   0.87284   0.00000  Uiso   1.00
C2490  C     0.86645   0.89990   0.79269   0.00000  Uiso   1.00
C2491  C     0.59573   0.83996   0.83435   0.00000  Uiso   1.00
C2492  C     0.90470   0.65945   0.83490   0.00000  Uiso   1.00
C2493  C     0.90527   0.84128   0.83270   0.00000  Uiso   1.00
C2494  C     0.59548   0.65967   0.83176   0.00000  Uiso   1.00
C2495  C     0.84590   0.58978   0.83168   0.00000  Uiso   1.00
C2496  C     0.65471   0.90950   0.83235   0.00000  Uiso   1.00
C2497  C     0.65438   0.59011   0.83492   0.00000  Uiso   1.00
C2498  C     0.56071   0.80802   0.83359   0.00000  Uiso   1.00
C2499  C     0.84609   0.91061   0.83468   0.00000  Uiso   1.00
C2500  C     0.96658   0.64394   0.71251   0.00000  Uiso   1.00
C2501  C     0.97004   0.60523   0.74682   0.00000  Uiso   1.00
C2502  C     0.50011   0.86072   0.94312   0.00000  Uiso   1.00
C2503  C     0.97446   0.90324   0.93895   0.00000  Uiso   1.00
C2504  C     0.50193   0.86036   0.72402   0.00000  Uiso   1.00
C2505  C     0.52857   0.90211   0.72889   0.00000  Uiso   1.00
C2506  C     0.53346   0.64407   0.95416   0.00000  Uiso   1.00
C2507  C     0.53009   0.60534   0.91988   0.00000  Uiso   1.00
C2508  C     0.75185   0.88945   0.72383   0.00000  Uiso   1.00
C2509  C     0.81073   0.94206   0.83364   0.00000  Uiso   1.00
C2510  C     0.77877   0.84794   0.72883   0.00000  Uiso   1.00
C2511  C     0.78378   0.60586   0.95404   0.00000  Uiso   1.00
C2512  C     0.78032   0.64463   0.91979   0.00000  Uiso   1.00
C2513  C     0.71672   0.60605   0.71242   0.00000  Uiso   1.00
C2514  C     0.72011   0.64475   0.74673   0.00000  Uiso   1.00
C2515  C     0.74855   0.88950   0.94281   0.00000  Uiso   1.00
C2516  C     0.72200   0.84767   0.93818   0.00000  Uiso   1.00
C2517  C     0.83836   0.72252   0.77885   0.00000  Uiso   1.00
C2518  C     0.61490   0.81283   0.94278   0.00000  Uiso   1.00
C2519  C     0.63529   0.78651   0.74638   0.00000  Uiso   1.00
C2520  C     0.68912   0.55781   0.83364   0.00000  Uiso   1.00
C2521  C     0.89643   0.66485   0.94715   0.00000  Uiso   1.00
C2522  C     0.66226   0.72228   0.88777   0.00000  Uiso   1.00
C2523  C     0.88654   0.81509   0.72370   0.00000  Uiso   1.00
C2524  C     0.86723   0.78771   0.92099   0.00000  Uiso   1.00
C2525  C     0.60367   0.66511   0.71917   0.00000  Uiso   1.00
C2526  C     0.63648   0.93520   0.72302   0.00000  Uiso   1.00
C2527  C     0.91239   0.52620   0.88676   0.00000  Uiso   1.00
C2528  C     0.85380   0.58492   0.71902   0.00000  Uiso   1.00
C2529  C     0.61454   0.96241   0.92068   0.00000  Uiso   1.00
C2530  C     0.85783   0.93809   0.94410   0.00000  Uiso   1.00
C2531  C     0.68943   0.94180   0.83308   0.00000  Uiso   1.00
C2532  C     0.58832   0.52718   0.77826   0.00000  Uiso   1.00
C2533  C     0.64637   0.58457   0.94751   0.00000  Uiso   1.00
C2534  C     0.88552   0.96389   0.74619   0.00000  Uiso   1.00
C2535  C     0.81099   0.55766   0.83302   0.00000  Uiso   1.00
C2536  C     0.99844   0.71041   0.69178   0.00000  Uiso   1.00
Cu2537 Cu    0.50000   0.75000   0.88022   0.00000  Uiso   1.00
Cu2538 Cu    0.50000   0.75000   0.78645   0.00000  Uiso   1.00
Cu2539 Cu    0.75000   0.50000   0.88022   0.00000  Uiso   1.00
Cu2540 Cu    0.75000   0.50000   0.78645   0.00000  Uiso   1.00
H2541  H     0.96400   0.62922   0.67726   0.00000  Uiso   1.00
H2542  H     0.95772   0.91031   0.97183   0.00000  Uiso   1.00
H2543  H     0.63143   0.55642   0.92884   0.00000  Uiso   1.00
H2544  H     0.85521   0.90725   0.72126   0.00000  Uiso   1.00
H2545  H     0.88147   0.98688   0.77618   0.00000  Uiso   1.00
H2546  H     0.87710   0.98183   0.71366   0.00000  Uiso   1.00
H2547  H     0.91861   0.95355   0.74393   0.00000  Uiso   1.00
H2548  H     0.98827   0.85458   0.75859   0.00000  Uiso   1.00
H2549  H     0.97750   0.86737   0.69826   0.00000  Uiso   1.00
H2550  H     0.50827   0.93172   0.73394   0.00000  Uiso   1.00
H2551  H     0.54904   0.89903   0.75982   0.00000  Uiso   1.00
H2552  H     0.54787   0.90748   0.69741   0.00000  Uiso   1.00
H2553  H     0.53613   0.62937   0.98943   0.00000  Uiso   1.00
H2554  H     0.56200   0.66325   0.94659   0.00000  Uiso   1.00
H2555  H     0.52322   0.61780   0.88426   0.00000  Uiso   1.00
H2556  H     0.55958   0.58627   0.91900   0.00000  Uiso   1.00
H2557  H     0.93798   0.66301   0.72004   0.00000  Uiso   1.00
H2558  H     0.50482   0.58239   0.93076   0.00000  Uiso   1.00
H2559  H     0.72757   0.88216   0.69794   0.00000  Uiso   1.00
H2560  H     0.73801   0.89517   0.75833   0.00000  Uiso   1.00
H2561  H     0.79788   0.84254   0.69721   0.00000  Uiso   1.00
H2562  H     0.79942   0.85140   0.75956   0.00000  Uiso   1.00
H2563  H     0.75869   0.81822   0.73425   0.00000  Uiso   1.00
H2564  H     0.81235   0.58668   0.94638   0.00000  Uiso   1.00
H2565  H     0.78648   0.62053   0.98931   0.00000  Uiso   1.00
H2566  H     0.75474   0.66728   0.93045   0.00000  Uiso   1.00
H2567  H     0.80963   0.66402   0.91922   0.00000  Uiso   1.00
H2568  H     0.97670   0.61773   0.78247   0.00000  Uiso   1.00
H2569  H     0.77383   0.63216   0.88409   0.00000  Uiso   1.00
H2570  H     0.68812   0.58695   0.71994   0.00000  Uiso   1.00
H2571  H     0.71416   0.62076   0.67715   0.00000  Uiso   1.00
H2572  H     0.69074   0.66405   0.74732   0.00000  Uiso   1.00
H2573  H     0.72662   0.63223   0.78242   0.00000  Uiso   1.00
H2574  H     0.74563   0.66750   0.73610   0.00000  Uiso   1.00
H2575  H     0.77317   0.88255   0.96844   0.00000  Uiso   1.00
H2576  H     0.76196   0.89521   0.90810   0.00000  Uiso   1.00
H2577  H     0.70250   0.84260   0.96957   0.00000  Uiso   1.00
H2578  H     0.70174   0.85047   0.90706   0.00000  Uiso   1.00
H2579  H     0.94066   0.58596   0.74755   0.00000  Uiso   1.00
H2580  H     0.74235   0.81804   0.93360   0.00000  Uiso   1.00
H2581  H     0.87128   0.68425   0.73141   0.00000  Uiso   1.00
H2582  H     0.82622   0.73976   0.74740   0.00000  Uiso   1.00
H2583  H     0.84944   0.74750   0.80463   0.00000  Uiso   1.00
H2584  H     0.81183   0.70371   0.79411   0.00000  Uiso   1.00
H2585  H     0.58521   0.87386   0.94266   0.00000  Uiso   1.00
H2586  H     0.64275   0.80378   0.92246   0.00000  Uiso   1.00
H2587  H     0.59477   0.78302   0.94707   0.00000  Uiso   1.00
H2588  H     0.62559   0.82387   0.97771   0.00000  Uiso   1.00
H2589  H     0.60492   0.84308   0.72107   0.00000  Uiso   1.00
H2590  H     0.99550   0.58244   0.73609   0.00000  Uiso   1.00
H2591  H     0.66834   0.79690   0.74356   0.00000  Uiso   1.00
H2592  H     0.62659   0.76809   0.71425   0.00000  Uiso   1.00
H2593  H     0.63162   0.76392   0.77682   0.00000  Uiso   1.00
H2594  H     0.93470   0.61101   0.93161   0.00000  Uiso   1.00
H2595  H     0.88154   0.69295   0.92831   0.00000  Uiso   1.00
H2596  H     0.91629   0.67938   0.97469   0.00000  Uiso   1.00
H2597  H     0.87199   0.64401   0.96350   0.00000  Uiso   1.00
H2598  H     0.62870   0.68454   0.93520   0.00000  Uiso   1.00
H2599  H     0.68817   0.70338   0.87133   0.00000  Uiso   1.00
H2600  H     0.67530   0.73843   0.91940   0.00000  Uiso   1.00
H2601  H     0.51350   0.85520   0.90839   0.00000  Uiso   1.00
H2602  H     0.65120   0.74811   0.86292   0.00000  Uiso   1.00
H2603  H     0.91694   0.87584   0.72493   0.00000  Uiso   1.00
H2604  H     0.85966   0.80436   0.74479   0.00000  Uiso   1.00
H2605  H     0.90711   0.78603   0.71715   0.00000  Uiso   1.00
H2606  H     0.87445   0.82738   0.68980   0.00000  Uiso   1.00
H2607  H     0.89681   0.84495   0.94628   0.00000  Uiso   1.00
H2608  H     0.83401   0.79727   0.92418   0.00000  Uiso   1.00
H2609  H     0.87660   0.76928   0.95290   0.00000  Uiso   1.00
H2610  H     0.87110   0.76536   0.89040   0.00000  Uiso   1.00
H2611  H     0.56547   0.61129   0.73521   0.00000  Uiso   1.00
H2612  H     0.52466   0.86689   0.96900   0.00000  Uiso   1.00
H2613  H     0.61894   0.69300   0.73790   0.00000  Uiso   1.00
H2614  H     0.58362   0.67989   0.69194   0.00000  Uiso   1.00
H2615  H     0.62783   0.64416   0.70246   0.00000  Uiso   1.00
H2616  H     0.66686   0.87447   0.72484   0.00000  Uiso   1.00
H2617  H     0.62494   0.92284   0.68892   0.00000  Uiso   1.00
H2618  H     0.65695   0.96443   0.71687   0.00000  Uiso   1.00
H2619  H     0.60921   0.94566   0.74359   0.00000  Uiso   1.00
H2620  H     0.88002   0.56428   0.93488   0.00000  Uiso   1.00
H2621  H     0.90372   0.50733   0.85490   0.00000  Uiso   1.00
H2622  H     0.91921   0.50220   0.91521   0.00000  Uiso   1.00
H2623  H     0.99529   0.93189   0.93128   0.00000  Uiso   1.00
H2624  H     0.94138   0.54536   0.88008   0.00000  Uiso   1.00
H2625  H     0.81551   0.63854   0.73548   0.00000  Uiso   1.00
H2626  H     0.86928   0.55705   0.73757   0.00000  Uiso   1.00
H2627  H     0.87780   0.60604   0.70224   0.00000  Uiso   1.00
H2628  H     0.83369   0.57010   0.69188   0.00000  Uiso   1.00
H2629  H     0.64611   0.90637   0.94552   0.00000  Uiso   1.00
H2630  H     0.61757   0.98511   0.89024   0.00000  Uiso   1.00
H2631  H     0.62324   0.98097   0.95273   0.00000  Uiso   1.00
H2632  H     0.58170   0.95140   0.92387   0.00000  Uiso   1.00
H2633  H     0.83485   0.87403   0.94264   0.00000  Uiso   1.00
H2634  H     0.95184   0.90019   0.90996   0.00000  Uiso   1.00
H2635  H     0.89052   0.93104   0.95341   0.00000  Uiso   1.00
H2636  H     0.84024   0.94487   0.97657   0.00000  Uiso   1.00
H2637  H     0.85596   0.96830   0.92215   0.00000  Uiso   1.00
H2638  H     0.62140   0.56572   0.73117   0.00000  Uiso   1.00
H2639  H     0.59946   0.50180   0.80357   0.00000  Uiso   1.00
H2640  H     0.57602   0.51045   0.74659   0.00000  Uiso   1.00
H2641  H     0.56189   0.54579   0.79399   0.00000  Uiso   1.00
H2642  H     0.68436   0.63855   0.93146   0.00000  Uiso   1.00
H2643  H     0.62199   0.60534   0.96405   0.00000  Uiso   1.00
H2644  H     0.66648   0.57012   0.97488   0.00000  Uiso   1.00
N2645  N     0.50000   0.75000   0.95069   0.00000  Uiso   1.00
N2646  N     0.90975   0.84996   0.74701   0.00000  Uiso   1.00
N2647  N     0.89307   0.82693   0.91599   0.00000  Uiso   1.00
N2648  N     0.57901   0.63855   0.75097   0.00000  Uiso   1.00
N2649  N     0.65959   0.90048   0.74670   0.00000  Uiso   1.00
N2650  N     0.87866   0.55565   0.90014   0.00000  Uiso   1.00
N2651  N     0.82917   0.61125   0.75104   0.00000  Uiso   1.00
N2652  N     0.64178   0.92439   0.91533   0.00000  Uiso   1.00
N2653  N     0.83959   0.90035   0.92031   0.00000  Uiso   1.00
N2654  N     0.62229   0.55667   0.76581   0.00000  Uiso   1.00
N2655  N     0.67089   0.61126   0.91570   0.00000  Uiso   1.00
N2656  N     0.50000   0.75000   0.71598   0.00000  Uiso   1.00
N2657  N     0.85889   0.92538   0.75151   0.00000  Uiso   1.00
N2658  N     0.75000   0.50000   0.95069   0.00000  Uiso   1.00
N2659  N     0.75000   0.50000   0.71598   0.00000  Uiso   1.00
N2660  N     0.87231   0.69314   0.76609   0.00000  Uiso   1.00
N2661  N     0.59173   0.84814   0.92016   0.00000  Uiso   1.00
N2662  N     0.60863   0.82505   0.75136   0.00000  Uiso   1.00
N2663  N     0.92124   0.63817   0.91561   0.00000  Uiso   1.00
N2664  N     0.62796   0.69333   0.90048   0.00000  Uiso   1.00
O2665  O     0.54509   0.70491   0.87291   0.00000  Uiso   1.00
O2666  O     0.70492   0.54509   0.79375   0.00000  Uiso   1.00
O2667  O     0.70492   0.54509   0.87291   0.00000  Uiso   1.00
O2668  O     0.79509   0.95491   0.79375   0.00000  Uiso   1.00
O2669  O     0.70492   0.95491   0.79375   0.00000  Uiso   1.00
O2670  O     0.79509   0.54509   0.87291   0.00000  Uiso   1.00
O2671  O     0.79509   0.54509   0.79375   0.00000  Uiso   1.00
O2672  O     0.70492   0.95491   0.87291   0.00000  Uiso   1.00
O2673  O     0.50213   0.67118   0.71707   0.00000  Uiso   1.00
O2674  O     0.97473   0.82434   0.95572   0.00000  Uiso   1.00
O2675  O     0.52661   0.82367   0.71082   0.00000  Uiso   1.00
O2676  O     0.95492   0.79509   0.79375   0.00000  Uiso   1.00
O2677  O     0.99781   0.67117   0.94964   0.00000  Uiso   1.00
O2678  O     0.77640   0.92629   0.71073   0.00000  Uiso   1.00
O2679  O     0.74808   0.57882   0.94957   0.00000  Uiso   1.00
O2680  O     0.75229   0.57883   0.71701   0.00000  Uiso   1.00
O2681  O     0.72377   0.92615   0.95597   0.00000  Uiso   1.00
O2682  O     0.95492   0.79509   0.87291   0.00000  Uiso   1.00
O2683  O     0.54509   0.70491   0.79375   0.00000  Uiso   1.00
O2684  O     0.95492   0.70491   0.79375   0.00000  Uiso   1.00
O2685  O     0.54509   0.79509   0.87291   0.00000  Uiso   1.00
O2686  O     0.54509   0.79509   0.79375   0.00000  Uiso   1.00
O2687  O     0.95492   0.70491   0.87291   0.00000  Uiso   1.00
O2688  O     0.79509   0.95491   0.87291   0.00000  Uiso   1.00
loop_
_geom_bond_atom_site_label_1
_geom_bond_atom_site_label_2
_geom_bond_distance
_geom_bond_site_symmetry_2
_ccdc_geom_bond_type
C1     O201    1.309   .     A
C1     O219    1.293   .     A
C1     C30     1.479   .     S
C2     O210    1.390   .     S
C2     N405    1.377   .     A
C2     C1123   1.434   .     S
C3     O211    1.389   .     S
C3     N192    1.377   .     A
C3     C2018   1.434   1_454 S
C4     C1192   1.444   1_455 S
C4     N181    1.374   .     S
C4     O437    1.385   1_455 S
C5     N643    1.377   .     A
C5     O214    1.389   .     S
C5     C1800   1.434   1_554 S
C6     O215    1.385   .     S
C6     N194    1.374   .     A
C6     C903    1.444   .     S
C7     O216    1.385   .     S
C7     C1798   1.444   1_554 S
C7     N195    1.375   .     S
C8     O217    1.389   .     S
C8     C901    1.434   .     S
C8     N642    1.377   .     S
C9     N196    1.424   .     S
C9     C20     1.404   .     A
C9     C28     1.403   .     A
C10    C27     1.418   .     A
C10    C21     1.400   .     A
C10    N197    1.424   .     S
C11    C18     1.400   .     A
C11    C27     1.408   .     A
C11    N198    1.425   .     S
C12    C29     1.479   .     S
C12    O218    1.305   .     A
C12    O212    1.296   .     A
C13    C28     1.415   .     A
C13    N199    1.421   .     S
C13    C19     1.405   .     A
C14    C30     1.403   .     A
C14    N200    1.423   .     S
C14    C25     1.404   .     A
C15    N182    1.424   .     S
C15    C29     1.417   .     A
C15    C26     1.400   .     A
C16    C29     1.411   .     A
C16    C22     1.402   .     A
C16    N183    1.426   .     S
C17    C30     1.414   .     A
C17    C24     1.404   .     A
C17    N184    1.421   .     S
C18    C32     1.418   .     A
C18    N185    1.424   .     S
C19    C31     1.404   .     A
C19    N186    1.424   .     S
C20    N187    1.421   .     S
C20    C31     1.414   .     A
C21    C32     1.408   .     A
C21    N188    1.425   .     S
C22    C35     1.421   .     A
C22    N189    1.427   .     S
C23    C28     1.479   .     S
C23    O220    1.309   .     A
C23    O223    1.292   .     A
C24    C33     1.403   .     A
C24    N190    1.423   .     S
C25    N191    1.422   .     S
C25    C33     1.414   .     A
C26    C35     1.409   .     A
C26    N193    1.426   .     S
C27    C34     1.478   .     S
C31    C71     1.479   .     S
C32    C67     1.478   .     S
C33    C56     1.479   .     S
C34    O221    1.295   .     A
C34    O222    1.306   .     A
C35    C45     1.477   .     S
C36    C37     1.524   .     S
C36    H77     1.106   .     S
C36    H93     1.105   .     S
C36    O433    1.411   .     S
C37    H126    1.110   .     S
C37    H104    1.110   .     S
C37    H115    1.108   .     S
C38    H137    1.098   .     S
C38    H148    1.099   .     S
C38    C263    1.522   1_455 S
C38    O434    1.409   1_455 S
C39    H170    1.108   .     S
C39    H78     1.107   .     S
C39    H159    1.111   .     S
C39    C262    1.522   .     S
C40    O211    1.408   .     S
C40    C41     1.522   .     S
C40    H308    1.099   1_455 S
C40    H309    1.098   1_455 S
C41    H87     1.108   .     S
C41    H88     1.108   .     S
C41    H86     1.111   .     S
C42    H90     1.105   .     S
C42    C43     1.524   .     S
C42    H89     1.106   .     S
C42    O437    1.411   1_455 S
C43    H94     1.110   .     S
C43    H91     1.110   .     S
C43    H92     1.108   .     S
C44    O214    1.408   .     S
C44    C46     1.522   .     S
C44    H96     1.099   .     S
C44    H95     1.099   .     S
C45    O204    1.307   .     A
C45    O224    1.293   .     A
C46    H99     1.111   .     S
C46    H97     1.109   .     S
C46    H98     1.108   .     S
C47    H101    1.106   .     S
C47    O215    1.411   .     S
C47    H100    1.106   .     S
C47    C48     1.524   .     S
C48    H105    1.110   .     S
C48    H103    1.108   .     S
C48    H102    1.110   .     S
C49    H107    1.106   .     S
C49    H106    1.105   .     S
C49    O216    1.411   .     S
C49    C50     1.524   .     S
C50    H110    1.110   .     S
C50    H108    1.108   .     S
C50    H109    1.110   .     S
C51    H112    1.099   .     S
C51    O217    1.408   .     S
C51    H111    1.100   .     S
C51    C52     1.522   .     S
C52    H113    1.109   .     S
C52    H116    1.111   .     S
C52    H114    1.108   .     S
C53    H120    1.113   .     S
C53    H118    1.110   .     S
C53    H119    1.110   .     S
C53    N196    1.450   .     S
C54    H123    1.110   .     S
C54    N197    1.447   .     S
C54    H122    1.103   .     S
C54    H124    1.109   .     S
C55    N198    1.445   .     S
C55    H129    1.111   .     S
C55    H127    1.111   .     S
C55    H128    1.110   .     S
C56    O203    1.293   .     A
C56    O202    1.309   .     A
C57    H132    1.105   .     S
C57    N199    1.448   .     S
C57    H133    1.109   .     S
C57    H131    1.108   .     S
C58    N200    1.450   .     S
C58    H138    1.110   .     S
C58    H136    1.110   .     S
C58    H135    1.113   .     S
C59    H142    1.109   .     S
C59    N182    1.447   .     S
C59    H140    1.104   .     S
C59    H141    1.110   .     S
C60    H146    1.111   .     S
C60    H144    1.111   .     S
C60    N183    1.446   .     S
C60    H145    1.110   .     S
C61    H150    1.105   .     S
C61    H151    1.109   .     S
C61    N184    1.448   .     S
C61    H149    1.108   .     S
C62    H155    1.104   .     S
C62    H154    1.110   .     S
C62    N185    1.447   .     S
C62    H153    1.109   .     S
C63    H160    1.112   .     S
C63    N186    1.450   .     S
C63    H157    1.110   .     S
C63    H158    1.109   .     S
C64    H164    1.105   .     S
C64    H163    1.109   .     S
C64    H162    1.107   .     S
C64    N187    1.448   .     S
C65    H168    1.111   .     S
C65    N188    1.445   .     S
C65    H166    1.111   .     S
C65    H167    1.110   .     S
C66    N189    1.444   .     S
C66    H172    1.109   .     S
C66    H171    1.105   .     S
C66    H173    1.104   .     S
C67    O205    1.295   .     A
C67    O208    1.306   .     A
C68    H176    1.110   .     S
C68    H177    1.113   .     S
C68    N190    1.450   .     S
C68    H175    1.110   .     S
C69    N191    1.448   .     S
C69    H79     1.108   .     S
C69    H180    1.105   .     S
C69    H179    1.109   .     S
C70    H81     1.110   .     S
C70    H83     1.111   .     S
C70    N193    1.445   .     S
C70    H82     1.110   .     S
C71    O206    1.309   .     A
C71    O207    1.293   .     A
C72    C2020   1.444   1_554 S
C72    N416    1.374   .     S
C72    O433    1.385   .     S
Cu73   Cu74    2.690   .     S
Cu73   O447    1.993   1_455 S
Cu73   N181    2.021   .     S
Cu73   O442    1.993   1_455 S
Cu73   O201    1.993   .     S
Cu73   O221    1.993   .     S
Cu74   O436    1.993   1_455 S
Cu74   O444    1.993   1_455 S
Cu74   N192    2.021   .     S
Cu74   O219    1.993   .     S
Cu74   O222    1.993   .     S
Cu75   O206    1.993   .     S
Cu75   O203    1.993   .     S
Cu75   N194    2.021   .     S
Cu75   Cu76    2.690   .     S
Cu75   O656    1.993   1_545 S
Cu75   O672    1.993   1_545 S
Cu76   N195    2.021   .     S
Cu76   O653    1.993   1_545 S
Cu76   O652    1.993   1_545 S
Cu76   O202    1.993   .     S
Cu76   O207    1.993   .     S
H80    N193    1.030   .     S
H84    C264    1.099   .     S
H85    C264    1.098   .     S
H117   N196    1.030   .     S
H121   N197    1.027   .     S
H125   N198    1.030   .     S
H130   N199    1.029   .     S
H134   N200    1.030   .     S
H139   N182    1.027   .     S
H143   N183    1.030   .     S
H147   N184    1.029   .     S
H152   N185    1.027   .     S
H156   N186    1.030   .     S
H161   N187    1.029   .     S
H165   N188    1.029   .     S
H169   N189    1.027   .     S
H174   N190    1.030   .     S
H178   N191    1.029   .     S
N181   C226    1.377   1_455 A
N192   C296    1.374   1_455 S
N194   C456    1.377   1_545 S
N195   C453    1.377   1_545 A
O204   Cu524   1.993   .     S
O205   Cu524   1.993   .     S
O208   Cu523   1.993   .     S
O209   C260    1.411   1_455 S
O209   C296    1.385   1_455 S
O210   C262    1.409   .     S
O212   Cu298   1.993   .     S
O213   C266    1.411   .     S
O213   C228    1.385   .     S
O218   Cu297   1.993   .     S
O220   Cu298   1.993   .     S
O223   Cu297   1.993   .     S
O224   Cu523   1.993   .     S
C225   O425    1.309   .     A
C225   O443    1.293   .     A
C225   C254    1.479   .     S
C226   O434    1.390   .     S
C226   N181    1.377   1_655 A
C226   C899    1.434   1_655 S
C227   O435    1.389   .     S
C227   N416    1.377   .     A
C227   C1794   1.434   1_554 S
C228   C968    1.444   .     S
C228   N405    1.374   .     S
C229   N867    1.377   .     A
C229   O438    1.389   .     S
C229   C2024   1.434   1_554 S
C230   O439    1.385   .     S
C230   N418    1.374   .     A
C230   C1127   1.444   .     S
C231   O440    1.385   .     S
C231   C2022   1.444   1_554 S
C231   N419    1.375   .     S
C232   O441    1.389   .     S
C232   C1125   1.434   .     S
C232   N866    1.377   .     S
C233   N420    1.424   .     S
C233   C244    1.404   .     A
C233   C252    1.403   .     A
C234   C251    1.418   .     A
C234   C245    1.400   .     A
C234   N421    1.424   .     S
C235   C242    1.400   .     A
C235   C251    1.408   .     A
C235   N422    1.425   .     S
C236   C253    1.479   .     S
C236   O442    1.305   .     A
C236   O436    1.296   .     A
C237   C252    1.415   .     A
C237   N423    1.421   .     S
C237   C243    1.405   .     A
C238   C254    1.403   .     A
C238   N424    1.423   .     S
C238   C249    1.404   .     A
C239   N406    1.424   .     S
C239   C253    1.417   .     A
C239   C250    1.400   .     A
C240   C253    1.411   .     A
C240   C246    1.402   .     A
C240   N407    1.426   .     S
C241   C254    1.414   .     A
C241   C248    1.404   .     A
C241   N408    1.421   .     S
C242   C256    1.418   .     A
C242   N409    1.424   .     S
C243   C255    1.404   .     A
C243   N410    1.424   .     S
C244   N411    1.421   .     S
C244   C255    1.414   .     A
C245   C256    1.408   .     A
C245   N412    1.425   .     S
C246   C259    1.421   .     A
C246   N413    1.427   .     S
C247   C252    1.479   .     S
C247   O444    1.309   .     A
C247   O447    1.292   .     A
C248   C257    1.403   .     A
C248   N414    1.423   .     S
C249   N415    1.422   .     S
C249   C257    1.414   .     A
C250   C259    1.409   .     A
C250   N417    1.426   .     S
C251   C258    1.478   .     S
C255   C295    1.479   .     S
C256   C291    1.478   .     S
C257   C280    1.479   .     S
C258   O445    1.295   .     A
C258   O446    1.306   .     A
C259   C269    1.477   .     S
C260   C261    1.524   .     S
C260   H301    1.106   .     S
C260   H317    1.105   .     S
C260   O209    1.411   1_655 S
C261   H350    1.110   .     S
C261   H328    1.110   .     S
C261   H339    1.108   .     S
C262   H361    1.098   .     S
C262   H372    1.099   .     S
C263   H394    1.108   .     S
C263   H302    1.107   .     S
C263   H383    1.111   .     S
C263   C38     1.522   1_655 S
C264   O435    1.408   .     S
C264   C265    1.522   .     S
C265   H311    1.108   .     S
C265   H312    1.108   .     S
C265   H310    1.111   .     S
C266   H314    1.105   .     S
C266   C267    1.524   .     S
C266   H313    1.106   .     S
C267   H318    1.110   .     S
C267   H315    1.110   .     S
C267   H316    1.108   .     S
C268   O438    1.408   .     S
C268   C270    1.522   .     S
C268   H320    1.099   .     S
C268   H319    1.099   .     S
C269   O428    1.307   .     A
C269   O448    1.293   .     A
C270   H323    1.111   .     S
C270   H321    1.109   .     S
C270   H322    1.108   .     S
C271   H325    1.106   .     S
C271   O439    1.411   .     S
C271   H324    1.106   .     S
C271   C272    1.524   .     S
C272   H329    1.110   .     S
C272   H327    1.108   .     S
C272   H326    1.110   .     S
C273   H331    1.106   .     S
C273   H330    1.105   .     S
C273   O440    1.411   .     S
C273   C274    1.524   .     S
C274   H334    1.110   .     S
C274   H332    1.108   .     S
C274   H333    1.110   .     S
C275   H336    1.099   .     S
C275   O441    1.408   .     S
C275   H335    1.100   .     S
C275   C276    1.522   .     S
C276   H337    1.109   .     S
C276   H340    1.111   .     S
C276   H338    1.108   .     S
C277   H344    1.113   .     S
C277   H342    1.110   .     S
C277   H343    1.110   .     S
C277   N420    1.450   .     S
C278   H347    1.110   .     S
C278   N421    1.447   .     S
C278   H346    1.103   .     S
C278   H348    1.109   .     S
C279   N422    1.445   .     S
C279   H353    1.111   .     S
C279   H351    1.111   .     S
C279   H352    1.110   .     S
C280   O427    1.293   .     A
C280   O426    1.309   .     A
C281   H356    1.105   .     S
C281   N423    1.448   .     S
C281   H357    1.109   .     S
C281   H355    1.108   .     S
C282   N424    1.450   .     S
C282   H362    1.110   .     S
C282   H360    1.110   .     S
C282   H359    1.113   .     S
C283   H366    1.109   .     S
C283   N406    1.447   .     S
C283   H364    1.104   .     S
C283   H365    1.110   .     S
C284   H370    1.111   .     S
C284   H368    1.111   .     S
C284   N407    1.446   .     S
C284   H369    1.110   .     S
C285   H374    1.105   .     S
C285   H375    1.109   .     S
C285   N408    1.448   .     S
C285   H373    1.108   .     S
C286   H379    1.104   .     S
C286   H378    1.110   .     S
C286   N409    1.447   .     S
C286   H377    1.109   .     S
C287   H384    1.112   .     S
C287   N410    1.450   .     S
C287   H381    1.110   .     S
C287   H382    1.109   .     S
C288   H388    1.105   .     S
C288   H387    1.109   .     S
C288   H386    1.107   .     S
C288   N411    1.448   .     S
C289   H392    1.111   .     S
C289   N412    1.445   .     S
C289   H390    1.111   .     S
C289   H391    1.110   .     S
C290   N413    1.444   .     S
C290   H396    1.109   .     S
C290   H395    1.105   .     S
C290   H397    1.104   .     S
C291   O429    1.295   .     A
C291   O432    1.306   .     A
C292   H400    1.110   .     S
C292   H401    1.113   .     S
C292   N414    1.450   .     S
C292   H399    1.110   .     S
C293   N415    1.448   .     S
C293   H303    1.108   .     S
C293   H404    1.105   .     S
C293   H403    1.109   .     S
C294   H305    1.110   .     S
C294   H307    1.111   .     S
C294   N417    1.445   .     S
C294   H306    1.110   .     S
C295   O430    1.309   .     A
C295   O431    1.293   .     A
C296   C1796   1.444   1_654 S
C296   N192    1.374   1_655 S
C296   O209    1.385   1_655 S
Cu297  Cu298   2.690   .     S
Cu297  N405    2.021   .     S
Cu297  O425    1.993   .     S
Cu297  O445    1.993   .     S
Cu298  N416    2.021   .     S
Cu298  O443    1.993   .     S
Cu298  O446    1.993   .     S
Cu299  O430    1.993   .     S
Cu299  O427    1.993   .     S
Cu299  N418    2.021   .     S
Cu299  Cu300   2.690   .     S
Cu299  O880    1.993   1_545 S
Cu299  O896    1.993   1_545 S
Cu300  N419    2.021   .     S
Cu300  O877    1.993   1_545 S
Cu300  O876    1.993   1_545 S
Cu300  O426    1.993   .     S
Cu300  O431    1.993   .     S
H304   N417    1.030   .     S
H308   C40     1.099   1_655 S
H309   C40     1.098   1_655 S
H341   N420    1.030   .     S
H345   N421    1.027   .     S
H349   N422    1.030   .     S
H354   N423    1.029   .     S
H358   N424    1.030   .     S
H363   N406    1.027   .     S
H367   N407    1.030   .     S
H371   N408    1.029   .     S
H376   N409    1.027   .     S
H380   N410    1.030   .     S
H385   N411    1.029   .     S
H389   N412    1.029   .     S
H393   N413    1.027   .     S
H398   N414    1.030   .     S
H402   N415    1.029   .     S
N418   C680    1.377   1_545 S
N419   C677    1.377   1_545 A
O428   Cu748   1.993   .     S
O429   Cu748   1.993   .     S
O432   Cu747   1.993   .     S
O434   C38     1.409   1_655 S
O436   Cu74    1.993   1_655 S
O437   C42     1.411   1_655 S
O437   C4      1.385   1_655 S
O442   Cu73    1.993   1_655 S
O444   Cu74    1.993   1_655 S
O447   Cu73    1.993   1_655 S
O448   Cu747   1.993   .     S
C449   O649    1.309   .     A
C449   O667    1.293   .     A
C449   C478    1.479   .     S
C450   O658    1.390   .     S
C450   N853    1.377   .     A
C450   C1571   1.434   .     S
C451   O659    1.389   .     S
C451   N640    1.377   .     A
C451   C2466   1.434   1_454 S
C452   C1640   1.444   1_455 S
C452   N629    1.374   .     S
C452   O885    1.385   1_455 S
C453   N195    1.377   1_565 A
C453   O662    1.389   .     S
C453   C2248   1.434   1_554 S
C454   O663    1.385   .     S
C454   N642    1.374   .     A
C454   C1351   1.444   .     S
C455   O664    1.385   .     S
C455   C2246   1.444   1_554 S
C455   N643    1.375   .     S
C456   O665    1.389   .     S
C456   C1349   1.434   .     S
C456   N194    1.377   1_565 S
C457   N644    1.424   .     S
C457   C468    1.404   .     A
C457   C476    1.403   .     A
C458   C475    1.418   .     A
C458   C469    1.400   .     A
C458   N645    1.424   .     S
C459   C466    1.400   .     A
C459   C475    1.408   .     A
C459   N646    1.425   .     S
C460   C477    1.479   .     S
C460   O666    1.305   .     A
C460   O660    1.296   .     A
C461   C476    1.415   .     A
C461   N647    1.421   .     S
C461   C467    1.405   .     A
C462   C478    1.403   .     A
C462   N648    1.423   .     S
C462   C473    1.404   .     A
C463   N630    1.424   .     S
C463   C477    1.417   .     A
C463   C474    1.400   .     A
C464   C477    1.411   .     A
C464   C470    1.402   .     A
C464   N631    1.426   .     S
C465   C478    1.414   .     A
C465   C472    1.404   .     A
C465   N632    1.421   .     S
C466   C480    1.418   .     A
C466   N633    1.424   .     S
C467   C479    1.404   .     A
C467   N634    1.424   .     S
C468   N635    1.421   .     S
C468   C479    1.414   .     A
C469   C480    1.408   .     A
C469   N636    1.425   .     S
C470   C483    1.421   .     A
C470   N637    1.427   .     S
C471   C476    1.479   .     S
C471   O668    1.309   .     A
C471   O671    1.292   .     A
C472   C481    1.403   .     A
C472   N638    1.423   .     S
C473   N639    1.422   .     S
C473   C481    1.414   .     A
C474   C483    1.409   .     A
C474   N641    1.426   .     S
C475   C482    1.478   .     S
C479   C519    1.479   .     S
C480   C515    1.478   .     S
C481   C504    1.479   .     S
C482   O669    1.295   .     A
C482   O670    1.306   .     A
C483   C493    1.477   .     S
C484   C485    1.524   .     S
C484   H525    1.106   .     S
C484   H541    1.105   .     S
C484   O881    1.411   .     S
C485   H574    1.110   .     S
C485   H552    1.110   .     S
C485   H563    1.108   .     S
C486   H585    1.098   .     S
C486   H596    1.099   .     S
C486   C711    1.522   1_455 S
C486   O882    1.409   1_455 S
C487   H618    1.108   .     S
C487   H526    1.107   .     S
C487   H607    1.111   .     S
C487   C710    1.522   .     S
C488   O659    1.408   .     S
C488   C489    1.522   .     S
C488   H756    1.099   1_455 S
C488   H757    1.098   1_455 S
C489   H535    1.108   .     S
C489   H536    1.108   .     S
C489   H534    1.111   .     S
C490   H538    1.105   .     S
C490   C491    1.524   .     S
C490   H537    1.106   .     S
C490   O885    1.411   1_455 S
C491   H542    1.110   .     S
C491   H539    1.110   .     S
C491   H540    1.108   .     S
C492   O662    1.408   .     S
C492   C494    1.522   .     S
C492   H544    1.099   .     S
C492   H543    1.099   .     S
C493   O652    1.307   .     A
C493   O672    1.293   .     A
C494   H547    1.111   .     S
C494   H545    1.109   .     S
C494   H546    1.108   .     S
C495   H549    1.106   .     S
C495   O663    1.411   .     S
C495   H548    1.106   .     S
C495   C496    1.524   .     S
C496   H553    1.110   .     S
C496   H551    1.108   .     S
C496   H550    1.110   .     S
C497   H555    1.106   .     S
C497   H554    1.105   .     S
C497   O664    1.411   .     S
C497   C498    1.524   .     S
C498   H558    1.110   .     S
C498   H556    1.108   .     S
C498   H557    1.110   .     S
C499   H560    1.099   .     S
C499   O665    1.408   .     S
C499   H559    1.100   .     S
C499   C500    1.522   .     S
C500   H561    1.109   .     S
C500   H564    1.111   .     S
C500   H562    1.108   .     S
C501   H568    1.113   .     S
C501   H566    1.110   .     S
C501   H567    1.110   .     S
C501   N644    1.450   .     S
C502   H571    1.110   .     S
C502   N645    1.447   .     S
C502   H570    1.103   .     S
C502   H572    1.109   .     S
C503   N646    1.445   .     S
C503   H577    1.111   .     S
C503   H575    1.111   .     S
C503   H576    1.110   .     S
C504   O651    1.293   .     A
C504   O650    1.309   .     A
C505   H580    1.105   .     S
C505   N647    1.448   .     S
C505   H581    1.109   .     S
C505   H579    1.108   .     S
C506   N648    1.450   .     S
C506   H586    1.110   .     S
C506   H584    1.110   .     S
C506   H583    1.113   .     S
C507   H590    1.109   .     S
C507   N630    1.447   .     S
C507   H588    1.104   .     S
C507   H589    1.110   .     S
C508   H594    1.111   .     S
C508   H592    1.111   .     S
C508   N631    1.446   .     S
C508   H593    1.110   .     S
C509   H598    1.105   .     S
C509   H599    1.109   .     S
C509   N632    1.448   .     S
C509   H597    1.108   .     S
C510   H603    1.104   .     S
C510   H602    1.110   .     S
C510   N633    1.447   .     S
C510   H601    1.109   .     S
C511   H608    1.112   .     S
C511   N634    1.450   .     S
C511   H605    1.110   .     S
C511   H606    1.109   .     S
C512   H612    1.105   .     S
C512   H611    1.109   .     S
C512   H610    1.107   .     S
C512   N635    1.448   .     S
C513   H616    1.111   .     S
C513   N636    1.445   .     S
C513   H614    1.111   .     S
C513   H615    1.110   .     S
C514   N637    1.444   .     S
C514   H620    1.109   .     S
C514   H619    1.105   .     S
C514   H621    1.104   .     S
C515   O653    1.295   .     A
C515   O656    1.306   .     A
C516   H624    1.110   .     S
C516   H625    1.113   .     S
C516   N638    1.450   .     S
C516   H623    1.110   .     S
C517   N639    1.448   .     S
C517   H527    1.108   .     S
C517   H628    1.105   .     S
C517   H627    1.109   .     S
C518   H529    1.110   .     S
C518   H531    1.111   .     S
C518   N641    1.445   .     S
C518   H530    1.110   .     S
C519   O654    1.309   .     A
C519   O655    1.293   .     A
C520   C2468   1.444   1_554 S
C520   N864    1.374   .     S
C520   O881    1.385   .     S
Cu521  Cu522   2.690   .     S
Cu521  O895    1.993   1_455 S
Cu521  N629    2.021   .     S
Cu521  O890    1.993   1_455 S
Cu521  O649    1.993   .     S
Cu521  O669    1.993   .     S
Cu522  O884    1.993   1_455 S
Cu522  O892    1.993   1_455 S
Cu522  N640    2.021   .     S
Cu522  O667    1.993   .     S
Cu522  O670    1.993   .     S
Cu523  O654    1.993   .     S
Cu523  O651    1.993   .     S
Cu523  N642    2.021   .     S
Cu523  Cu524   2.690   .     S
Cu524  N643    2.021   .     S
Cu524  O650    1.993   .     S
Cu524  O655    1.993   .     S
H528   N641    1.030   .     S
H532   C712    1.099   .     S
H533   C712    1.098   .     S
H565   N644    1.030   .     S
H569   N645    1.027   .     S
H573   N646    1.030   .     S
H578   N647    1.029   .     S
H582   N648    1.030   .     S
H587   N630    1.027   .     S
H591   N631    1.030   .     S
H595   N632    1.029   .     S
H600   N633    1.027   .     S
H604   N634    1.030   .     S
H609   N635    1.029   .     S
H613   N636    1.029   .     S
H617   N637    1.027   .     S
H622   N638    1.030   .     S
H626   N639    1.029   .     S
N629   C674    1.377   1_455 A
N640   C744    1.374   1_455 S
O652   Cu76    1.993   1_565 S
O653   Cu76    1.993   1_565 S
O656   Cu75    1.993   1_565 S
O657   C708    1.411   1_455 S
O657   C744    1.385   1_455 S
O658   C710    1.409   .     S
O660   Cu746   1.993   .     S
O661   C714    1.411   .     S
O661   C676    1.385   .     S
O666   Cu745   1.993   .     S
O668   Cu746   1.993   .     S
O671   Cu745   1.993   .     S
O672   Cu75    1.993   1_565 S
C673   O873    1.309   .     A
C673   O891    1.293   .     A
C673   C702    1.479   .     S
C674   O882    1.390   .     S
C674   N629    1.377   1_655 A
C674   C1347   1.434   1_655 S
C675   O883    1.389   .     S
C675   N864    1.377   .     A
C675   C2242   1.434   1_554 S
C676   C1416   1.444   .     S
C676   N853    1.374   .     S
C677   N419    1.377   1_565 A
C677   O886    1.389   .     S
C677   C2472   1.434   1_554 S
C678   O887    1.385   .     S
C678   N866    1.374   .     A
C678   C1575   1.444   .     S
C679   O888    1.385   .     S
C679   C2470   1.444   1_554 S
C679   N867    1.375   .     S
C680   O889    1.389   .     S
C680   C1573   1.434   .     S
C680   N418    1.377   1_565 S
C681   N868    1.424   .     S
C681   C692    1.404   .     A
C681   C700    1.403   .     A
C682   C699    1.418   .     A
C682   C693    1.400   .     A
C682   N869    1.424   .     S
C683   C690    1.400   .     A
C683   C699    1.408   .     A
C683   N870    1.425   .     S
C684   C701    1.479   .     S
C684   O890    1.305   .     A
C684   O884    1.296   .     A
C685   C700    1.415   .     A
C685   N871    1.421   .     S
C685   C691    1.405   .     A
C686   C702    1.403   .     A
C686   N872    1.423   .     S
C686   C697    1.404   .     A
C687   N854    1.424   .     S
C687   C701    1.417   .     A
C687   C698    1.400   .     A
C688   C701    1.411   .     A
C688   C694    1.402   .     A
C688   N855    1.426   .     S
C689   C702    1.414   .     A
C689   C696    1.404   .     A
C689   N856    1.421   .     S
C690   C704    1.418   .     A
C690   N857    1.424   .     S
C691   C703    1.404   .     A
C691   N858    1.424   .     S
C692   N859    1.421   .     S
C692   C703    1.414   .     A
C693   C704    1.408   .     A
C693   N860    1.425   .     S
C694   C707    1.421   .     A
C694   N861    1.427   .     S
C695   C700    1.479   .     S
C695   O892    1.309   .     A
C695   O895    1.292   .     A
C696   C705    1.403   .     A
C696   N862    1.423   .     S
C697   N863    1.422   .     S
C697   C705    1.414   .     A
C698   C707    1.409   .     A
C698   N865    1.426   .     S
C699   C706    1.478   .     S
C703   C743    1.479   .     S
C704   C739    1.478   .     S
C705   C728    1.479   .     S
C706   O893    1.295   .     A
C706   O894    1.306   .     A
C707   C717    1.477   .     S
C708   C709    1.524   .     S
C708   H749    1.106   .     S
C708   H765    1.105   .     S
C708   O657    1.411   1_655 S
C709   H798    1.110   .     S
C709   H776    1.110   .     S
C709   H787    1.108   .     S
C710   H809    1.098   .     S
C710   H820    1.099   .     S
C711   H842    1.108   .     S
C711   H750    1.107   .     S
C711   H831    1.111   .     S
C711   C486    1.522   1_655 S
C712   O883    1.408   .     S
C712   C713    1.522   .     S
C713   H759    1.108   .     S
C713   H760    1.108   .     S
C713   H758    1.111   .     S
C714   H762    1.105   .     S
C714   C715    1.524   .     S
C714   H761    1.106   .     S
C715   H766    1.110   .     S
C715   H763    1.110   .     S
C715   H764    1.108   .     S
C716   O886    1.408   .     S
C716   C718    1.522   .     S
C716   H768    1.099   .     S
C716   H767    1.099   .     S
C717   O876    1.307   .     A
C717   O896    1.293   .     A
C718   H771    1.111   .     S
C718   H769    1.109   .     S
C718   H770    1.108   .     S
C719   H773    1.106   .     S
C719   O887    1.411   .     S
C719   H772    1.106   .     S
C719   C720    1.524   .     S
C720   H777    1.110   .     S
C720   H775    1.108   .     S
C720   H774    1.110   .     S
C721   H779    1.106   .     S
C721   H778    1.105   .     S
C721   O888    1.411   .     S
C721   C722    1.524   .     S
C722   H782    1.110   .     S
C722   H780    1.108   .     S
C722   H781    1.110   .     S
C723   H784    1.099   .     S
C723   O889    1.408   .     S
C723   H783    1.100   .     S
C723   C724    1.522   .     S
C724   H785    1.109   .     S
C724   H788    1.111   .     S
C724   H786    1.108   .     S
C725   H792    1.113   .     S
C725   H790    1.110   .     S
C725   H791    1.110   .     S
C725   N868    1.450   .     S
C726   H795    1.110   .     S
C726   N869    1.447   .     S
C726   H794    1.103   .     S
C726   H796    1.109   .     S
C727   N870    1.445   .     S
C727   H801    1.111   .     S
C727   H799    1.111   .     S
C727   H800    1.110   .     S
C728   O875    1.293   .     A
C728   O874    1.309   .     A
C729   H804    1.105   .     S
C729   N871    1.448   .     S
C729   H805    1.109   .     S
C729   H803    1.108   .     S
C730   N872    1.450   .     S
C730   H810    1.110   .     S
C730   H808    1.110   .     S
C730   H807    1.113   .     S
C731   H814    1.109   .     S
C731   N854    1.447   .     S
C731   H812    1.104   .     S
C731   H813    1.110   .     S
C732   H818    1.111   .     S
C732   H816    1.111   .     S
C732   N855    1.446   .     S
C732   H817    1.110   .     S
C733   H822    1.105   .     S
C733   H823    1.109   .     S
C733   N856    1.448   .     S
C733   H821    1.108   .     S
C734   H827    1.104   .     S
C734   H826    1.110   .     S
C734   N857    1.447   .     S
C734   H825    1.109   .     S
C735   H832    1.112   .     S
C735   N858    1.450   .     S
C735   H829    1.110   .     S
C735   H830    1.109   .     S
C736   H836    1.105   .     S
C736   H835    1.109   .     S
C736   H834    1.107   .     S
C736   N859    1.448   .     S
C737   H840    1.111   .     S
C737   N860    1.445   .     S
C737   H838    1.111   .     S
C737   H839    1.110   .     S
C738   N861    1.444   .     S
C738   H844    1.109   .     S
C738   H843    1.105   .     S
C738   H845    1.104   .     S
C739   O877    1.295   .     A
C739   O880    1.306   .     A
C740   H848    1.110   .     S
C740   H849    1.113   .     S
C740   N862    1.450   .     S
C740   H847    1.110   .     S
C741   N863    1.448   .     S
C741   H751    1.108   .     S
C741   H852    1.105   .     S
C741   H851    1.109   .     S
C742   H753    1.110   .     S
C742   H755    1.111   .     S
C742   N865    1.445   .     S
C742   H754    1.110   .     S
C743   O878    1.309   .     A
C743   O879    1.293   .     A
C744   C2244   1.444   1_654 S
C744   N640    1.374   1_655 S
C744   O657    1.385   1_655 S
Cu745  Cu746   2.690   .     S
Cu745  N853    2.021   .     S
Cu745  O873    1.993   .     S
Cu745  O893    1.993   .     S
Cu746  N864    2.021   .     S
Cu746  O891    1.993   .     S
Cu746  O894    1.993   .     S
Cu747  O878    1.993   .     S
Cu747  O875    1.993   .     S
Cu747  N866    2.021   .     S
Cu747  Cu748   2.690   .     S
Cu748  N867    2.021   .     S
Cu748  O874    1.993   .     S
Cu748  O879    1.993   .     S
H752   N865    1.030   .     S
H756   C488    1.099   1_655 S
H757   C488    1.098   1_655 S
H789   N868    1.030   .     S
H793   N869    1.027   .     S
H797   N870    1.030   .     S
H802   N871    1.029   .     S
H806   N872    1.030   .     S
H811   N854    1.027   .     S
H815   N855    1.030   .     S
H819   N856    1.029   .     S
H824   N857    1.027   .     S
H828   N858    1.030   .     S
H833   N859    1.029   .     S
H837   N860    1.029   .     S
H841   N861    1.027   .     S
H846   N862    1.030   .     S
H850   N863    1.029   .     S
O876   Cu300   1.993   1_565 S
O877   Cu300   1.993   1_565 S
O880   Cu299   1.993   1_565 S
O882   C486    1.409   1_655 S
O884   Cu522   1.993   1_655 S
O885   C490    1.411   1_655 S
O885   C452    1.385   1_655 S
O890   Cu521   1.993   1_655 S
O892   Cu522   1.993   1_655 S
O895   Cu521   1.993   1_655 S
O896   Cu299   1.993   1_565 S
C897   O1097   1.309   .     A
C897   O1115   1.293   .     A
C897   C926    1.479   .     S
C898   O1106   1.390   .     S
C898   N1301   1.377   .     A
C898   C2019   1.434   .     S
C899   O1107   1.389   .     S
C899   N1088   1.377   .     A
C899   C226    1.434   1_455 S
C900   C2088   1.444   1_455 S
C900   N1077   1.374   .     S
C900   O1333   1.385   1_455 S
C901   N1539   1.377   .     A
C901   O1110   1.389   .     S
C902   O1111   1.385   .     S
C902   N1090   1.374   .     A
C902   C1799   1.444   .     S
C903   O1112   1.385   .     S
C903   N1091   1.375   .     S
C904   O1113   1.389   .     S
C904   C1797   1.434   .     S
C904   N1538   1.377   .     S
C905   N1092   1.424   .     S
C905   C916    1.404   .     A
C905   C924    1.403   .     A
C906   C923    1.418   .     A
C906   C917    1.400   .     A
C906   N1093   1.424   .     S
C907   C914    1.400   .     A
C907   C923    1.408   .     A
C907   N1094   1.425   .     S
C908   C925    1.479   .     S
C908   O1114   1.305   .     A
C908   O1108   1.296   .     A
C909   C924    1.415   .     A
C909   N1095   1.421   .     S
C909   C915    1.405   .     A
C910   C926    1.403   .     A
C910   N1096   1.423   .     S
C910   C921    1.404   .     A
C911   N1078   1.424   .     S
C911   C925    1.417   .     A
C911   C922    1.400   .     A
C912   C925    1.411   .     A
C912   C918    1.402   .     A
C912   N1079   1.426   .     S
C913   C926    1.414   .     A
C913   C920    1.404   .     A
C913   N1080   1.421   .     S
C914   C928    1.418   .     A
C914   N1081   1.424   .     S
C915   C927    1.404   .     A
C915   N1082   1.424   .     S
C916   N1083   1.421   .     S
C916   C927    1.414   .     A
C917   C928    1.408   .     A
C917   N1084   1.425   .     S
C918   C931    1.421   .     A
C918   N1085   1.427   .     S
C919   C924    1.479   .     S
C919   O1116   1.309   .     A
C919   O1119   1.292   .     A
C920   C929    1.403   .     A
C920   N1086   1.423   .     S
C921   N1087   1.422   .     S
C921   C929    1.414   .     A
C922   C931    1.409   .     A
C922   N1089   1.426   .     S
C923   C930    1.478   .     S
C927   C967    1.479   .     S
C928   C963    1.478   .     S
C929   C952    1.479   .     S
C930   O1117   1.295   .     A
C930   O1118   1.306   .     A
C931   C941    1.477   .     S
C932   C933    1.524   .     S
C932   H973    1.106   .     S
C932   H989    1.105   .     S
C932   O1329   1.411   .     S
C933   H1022   1.110   .     S
C933   H1000   1.110   .     S
C933   H1011   1.108   .     S
C934   H1033   1.098   .     S
C934   H1044   1.099   .     S
C934   C1159   1.522   1_455 S
C934   O1330   1.409   1_455 S
C935   H1066   1.108   .     S
C935   H974    1.107   .     S
C935   H1055   1.111   .     S
C935   C1158   1.522   .     S
C936   O1107   1.408   .     S
C936   C937    1.522   .     S
C936   H1204   1.099   1_455 S
C936   H1205   1.098   1_455 S
C937   H983    1.108   .     S
C937   H984    1.108   .     S
C937   H982    1.111   .     S
C938   H986    1.105   .     S
C938   C939    1.524   .     S
C938   H985    1.106   .     S
C938   O1333   1.411   1_455 S
C939   H990    1.110   .     S
C939   H987    1.110   .     S
C939   H988    1.108   .     S
C940   O1110   1.408   .     S
C940   C942    1.522   .     S
C940   H992    1.099   .     S
C940   H991    1.099   .     S
C941   O1100   1.307   .     A
C941   O1120   1.293   .     A
C942   H995    1.111   .     S
C942   H993    1.109   .     S
C942   H994    1.108   .     S
C943   H997    1.106   .     S
C943   O1111   1.411   .     S
C943   H996    1.106   .     S
C943   C944    1.524   .     S
C944   H1001   1.110   .     S
C944   H999    1.108   .     S
C944   H998    1.110   .     S
C945   H1003   1.106   .     S
C945   H1002   1.105   .     S
C945   O1112   1.411   .     S
C945   C946    1.524   .     S
C946   H1006   1.110   .     S
C946   H1004   1.108   .     S
C946   H1005   1.110   .     S
C947   H1008   1.099   .     S
C947   O1113   1.408   .     S
C947   H1007   1.100   .     S
C947   C948    1.522   .     S
C948   H1009   1.109   .     S
C948   H1012   1.111   .     S
C948   H1010   1.108   .     S
C949   H1016   1.113   .     S
C949   H1014   1.110   .     S
C949   H1015   1.110   .     S
C949   N1092   1.450   .     S
C950   H1019   1.110   .     S
C950   N1093   1.447   .     S
C950   H1018   1.103   .     S
C950   H1020   1.109   .     S
C951   N1094   1.445   .     S
C951   H1025   1.111   .     S
C951   H1023   1.111   .     S
C951   H1024   1.110   .     S
C952   O1099   1.293   .     A
C952   O1098   1.309   .     A
C953   H1028   1.105   .     S
C953   N1095   1.448   .     S
C953   H1029   1.109   .     S
C953   H1027   1.108   .     S
C954   N1096   1.450   .     S
C954   H1034   1.110   .     S
C954   H1032   1.110   .     S
C954   H1031   1.113   .     S
C955   H1038   1.109   .     S
C955   N1078   1.447   .     S
C955   H1036   1.104   .     S
C955   H1037   1.110   .     S
C956   H1042   1.111   .     S
C956   H1040   1.111   .     S
C956   N1079   1.446   .     S
C956   H1041   1.110   .     S
C957   H1046   1.105   .     S
C957   H1047   1.109   .     S
C957   N1080   1.448   .     S
C957   H1045   1.108   .     S
C958   H1051   1.104   .     S
C958   H1050   1.110   .     S
C958   N1081   1.447   .     S
C958   H1049   1.109   .     S
C959   H1056   1.112   .     S
C959   N1082   1.450   .     S
C959   H1053   1.110   .     S
C959   H1054   1.109   .     S
C960   H1060   1.105   .     S
C960   H1059   1.109   .     S
C960   H1058   1.107   .     S
C960   N1083   1.448   .     S
C961   H1064   1.111   .     S
C961   N1084   1.445   .     S
C961   H1062   1.111   .     S
C961   H1063   1.110   .     S
C962   N1085   1.444   .     S
C962   H1068   1.109   .     S
C962   H1067   1.105   .     S
C962   H1069   1.104   .     S
C963   O1101   1.295   .     A
C963   O1104   1.306   .     A
C964   H1072   1.110   .     S
C964   H1073   1.113   .     S
C964   N1086   1.450   .     S
C964   H1071   1.110   .     S
C965   N1087   1.448   .     S
C965   H975    1.108   .     S
C965   H1076   1.105   .     S
C965   H1075   1.109   .     S
C966   H977    1.110   .     S
C966   H979    1.111   .     S
C966   N1089   1.445   .     S
C966   H978    1.110   .     S
C967   O1102   1.309   .     A
C967   O1103   1.293   .     A
C968   N1312   1.374   .     S
C968   O1329   1.385   .     S
Cu969  Cu970   2.690   .     S
Cu969  O1343   1.993   1_455 S
Cu969  N1077   2.021   .     S
Cu969  O1338   1.993   1_455 S
Cu969  O1097   1.993   .     S
Cu969  O1117   1.993   .     S
Cu970  O1332   1.993   1_455 S
Cu970  O1340   1.993   1_455 S
Cu970  N1088   2.021   .     S
Cu970  O1115   1.993   .     S
Cu970  O1118   1.993   .     S
Cu971  O1102   1.993   .     S
Cu971  O1099   1.993   .     S
Cu971  N1090   2.021   .     S
Cu971  Cu972   2.690   .     S
Cu971  O1552   1.993   1_545 S
Cu971  O1568   1.993   1_545 S
Cu972  N1091   2.021   .     S
Cu972  O1549   1.993   1_545 S
Cu972  O1548   1.993   1_545 S
Cu972  O1098   1.993   .     S
Cu972  O1103   1.993   .     S
H976   N1089   1.030   .     S
H980   C1160   1.099   .     S
H981   C1160   1.098   .     S
H1013  N1092   1.030   .     S
H1017  N1093   1.027   .     S
H1021  N1094   1.030   .     S
H1026  N1095   1.029   .     S
H1030  N1096   1.030   .     S
H1035  N1078   1.027   .     S
H1039  N1079   1.030   .     S
H1043  N1080   1.029   .     S
H1048  N1081   1.027   .     S
H1052  N1082   1.030   .     S
H1057  N1083   1.029   .     S
H1061  N1084   1.029   .     S
H1065  N1085   1.027   .     S
H1070  N1086   1.030   .     S
H1074  N1087   1.029   .     S
N1077  C1122   1.377   1_455 A
N1088  C1192   1.374   1_455 S
N1090  C1352   1.377   1_545 S
N1091  C1349   1.377   1_545 A
O1100  Cu1420  1.993   .     S
O1101  Cu1420  1.993   .     S
O1104  Cu1419  1.993   .     S
O1105  C1156   1.411   1_455 S
O1105  C1192   1.385   1_455 S
O1106  C1158   1.409   .     S
O1108  Cu1194  1.993   .     S
O1109  C1162   1.411   .     S
O1109  C1124   1.385   .     S
O1114  Cu1193  1.993   .     S
O1116  Cu1194  1.993   .     S
O1119  Cu1193  1.993   .     S
O1120  Cu1419  1.993   .     S
C1121  O1321   1.309   .     A
C1121  O1339   1.293   .     A
C1121  C1150   1.479   .     S
C1122  O1330   1.390   .     S
C1122  N1077   1.377   1_655 A
C1122  C1795   1.434   1_655 S
C1123  O1331   1.389   .     S
C1123  N1312   1.377   .     A
C1124  C1864   1.444   .     S
C1124  N1301   1.374   .     S
C1125  N1763   1.377   .     A
C1125  O1334   1.389   .     S
C1126  O1335   1.385   .     S
C1126  N1314   1.374   .     A
C1126  C2023   1.444   .     S
C1127  O1336   1.385   .     S
C1127  N1315   1.375   .     S
C1128  O1337   1.389   .     S
C1128  C2021   1.434   .     S
C1128  N1762   1.377   .     S
C1129  N1316   1.424   .     S
C1129  C1140   1.404   .     A
C1129  C1148   1.403   .     A
C1130  C1147   1.418   .     A
C1130  C1141   1.400   .     A
C1130  N1317   1.424   .     S
C1131  C1138   1.400   .     A
C1131  C1147   1.408   .     A
C1131  N1318   1.425   .     S
C1132  C1149   1.479   .     S
C1132  O1338   1.305   .     A
C1132  O1332   1.296   .     A
C1133  C1148   1.415   .     A
C1133  N1319   1.421   .     S
C1133  C1139   1.405   .     A
C1134  C1150   1.403   .     A
C1134  N1320   1.423   .     S
C1134  C1145   1.404   .     A
C1135  N1302   1.424   .     S
C1135  C1149   1.417   .     A
C1135  C1146   1.400   .     A
C1136  C1149   1.411   .     A
C1136  C1142   1.402   .     A
C1136  N1303   1.426   .     S
C1137  C1150   1.414   .     A
C1137  C1144   1.404   .     A
C1137  N1304   1.421   .     S
C1138  C1152   1.418   .     A
C1138  N1305   1.424   .     S
C1139  C1151   1.404   .     A
C1139  N1306   1.424   .     S
C1140  N1307   1.421   .     S
C1140  C1151   1.414   .     A
C1141  C1152   1.408   .     A
C1141  N1308   1.425   .     S
C1142  C1155   1.421   .     A
C1142  N1309   1.427   .     S
C1143  C1148   1.479   .     S
C1143  O1340   1.309   .     A
C1143  O1343   1.292   .     A
C1144  C1153   1.403   .     A
C1144  N1310   1.423   .     S
C1145  N1311   1.422   .     S
C1145  C1153   1.414   .     A
C1146  C1155   1.409   .     A
C1146  N1313   1.426   .     S
C1147  C1154   1.478   .     S
C1151  C1191   1.479   .     S
C1152  C1187   1.478   .     S
C1153  C1176   1.479   .     S
C1154  O1341   1.295   .     A
C1154  O1342   1.306   .     A
C1155  C1165   1.477   .     S
C1156  C1157   1.524   .     S
C1156  H1197   1.106   .     S
C1156  H1213   1.105   .     S
C1156  O1105   1.411   1_655 S
C1157  H1246   1.110   .     S
C1157  H1224   1.110   .     S
C1157  H1235   1.108   .     S
C1158  H1257   1.098   .     S
C1158  H1268   1.099   .     S
C1159  H1290   1.108   .     S
C1159  H1198   1.107   .     S
C1159  H1279   1.111   .     S
C1159  C934    1.522   1_655 S
C1160  O1331   1.408   .     S
C1160  C1161   1.522   .     S
C1161  H1207   1.108   .     S
C1161  H1208   1.108   .     S
C1161  H1206   1.111   .     S
C1162  H1210   1.105   .     S
C1162  C1163   1.524   .     S
C1162  H1209   1.106   .     S
C1163  H1214   1.110   .     S
C1163  H1211   1.110   .     S
C1163  H1212   1.108   .     S
C1164  O1334   1.408   .     S
C1164  C1166   1.522   .     S
C1164  H1216   1.099   .     S
C1164  H1215   1.099   .     S
C1165  O1324   1.307   .     A
C1165  O1344   1.293   .     A
C1166  H1219   1.111   .     S
C1166  H1217   1.109   .     S
C1166  H1218   1.108   .     S
C1167  H1221   1.106   .     S
C1167  O1335   1.411   .     S
C1167  H1220   1.106   .     S
C1167  C1168   1.524   .     S
C1168  H1225   1.110   .     S
C1168  H1223   1.108   .     S
C1168  H1222   1.110   .     S
C1169  H1227   1.106   .     S
C1169  H1226   1.105   .     S
C1169  O1336   1.411   .     S
C1169  C1170   1.524   .     S
C1170  H1230   1.110   .     S
C1170  H1228   1.108   .     S
C1170  H1229   1.110   .     S
C1171  H1232   1.099   .     S
C1171  O1337   1.408   .     S
C1171  H1231   1.100   .     S
C1171  C1172   1.522   .     S
C1172  H1233   1.109   .     S
C1172  H1236   1.111   .     S
C1172  H1234   1.108   .     S
C1173  H1240   1.113   .     S
C1173  H1238   1.110   .     S
C1173  H1239   1.110   .     S
C1173  N1316   1.450   .     S
C1174  H1243   1.110   .     S
C1174  N1317   1.447   .     S
C1174  H1242   1.103   .     S
C1174  H1244   1.109   .     S
C1175  N1318   1.445   .     S
C1175  H1249   1.111   .     S
C1175  H1247   1.111   .     S
C1175  H1248   1.110   .     S
C1176  O1323   1.293   .     A
C1176  O1322   1.309   .     A
C1177  H1252   1.105   .     S
C1177  N1319   1.448   .     S
C1177  H1253   1.109   .     S
C1177  H1251   1.108   .     S
C1178  N1320   1.450   .     S
C1178  H1258   1.110   .     S
C1178  H1256   1.110   .     S
C1178  H1255   1.113   .     S
C1179  H1262   1.109   .     S
C1179  N1302   1.447   .     S
C1179  H1260   1.104   .     S
C1179  H1261   1.110   .     S
C1180  H1266   1.111   .     S
C1180  H1264   1.111   .     S
C1180  N1303   1.446   .     S
C1180  H1265   1.110   .     S
C1181  H1270   1.105   .     S
C1181  H1271   1.109   .     S
C1181  N1304   1.448   .     S
C1181  H1269   1.108   .     S
C1182  H1275   1.104   .     S
C1182  H1274   1.110   .     S
C1182  N1305   1.447   .     S
C1182  H1273   1.109   .     S
C1183  H1280   1.112   .     S
C1183  N1306   1.450   .     S
C1183  H1277   1.110   .     S
C1183  H1278   1.109   .     S
C1184  H1284   1.105   .     S
C1184  H1283   1.109   .     S
C1184  H1282   1.107   .     S
C1184  N1307   1.448   .     S
C1185  H1288   1.111   .     S
C1185  N1308   1.445   .     S
C1185  H1286   1.111   .     S
C1185  H1287   1.110   .     S
C1186  N1309   1.444   .     S
C1186  H1292   1.109   .     S
C1186  H1291   1.105   .     S
C1186  H1293   1.104   .     S
C1187  O1325   1.295   .     A
C1187  O1328   1.306   .     A
C1188  H1296   1.110   .     S
C1188  H1297   1.113   .     S
C1188  N1310   1.450   .     S
C1188  H1295   1.110   .     S
C1189  N1311   1.448   .     S
C1189  H1199   1.108   .     S
C1189  H1300   1.105   .     S
C1189  H1299   1.109   .     S
C1190  H1201   1.110   .     S
C1190  H1203   1.111   .     S
C1190  N1313   1.445   .     S
C1190  H1202   1.110   .     S
C1191  O1326   1.309   .     A
C1191  O1327   1.293   .     A
C1192  C4      1.444   1_655 S
C1192  N1088   1.374   1_655 S
C1192  O1105   1.385   1_655 S
Cu1193 Cu1194  2.690   .     S
Cu1193 N1301   2.021   .     S
Cu1193 O1321   1.993   .     S
Cu1193 O1341   1.993   .     S
Cu1194 N1312   2.021   .     S
Cu1194 O1339   1.993   .     S
Cu1194 O1342   1.993   .     S
Cu1195 O1326   1.993   .     S
Cu1195 O1323   1.993   .     S
Cu1195 N1314   2.021   .     S
Cu1195 Cu1196  2.690   .     S
Cu1195 O1776   1.993   1_545 S
Cu1195 O1792   1.993   1_545 S
Cu1196 N1315   2.021   .     S
Cu1196 O1773   1.993   1_545 S
Cu1196 O1772   1.993   1_545 S
Cu1196 O1322   1.993   .     S
Cu1196 O1327   1.993   .     S
H1200  N1313   1.030   .     S
H1204  C936    1.099   1_655 S
H1205  C936    1.098   1_655 S
H1237  N1316   1.030   .     S
H1241  N1317   1.027   .     S
H1245  N1318   1.030   .     S
H1250  N1319   1.029   .     S
H1254  N1320   1.030   .     S
H1259  N1302   1.027   .     S
H1263  N1303   1.030   .     S
H1267  N1304   1.029   .     S
H1272  N1305   1.027   .     S
H1276  N1306   1.030   .     S
H1281  N1307   1.029   .     S
H1285  N1308   1.029   .     S
H1289  N1309   1.027   .     S
H1294  N1310   1.030   .     S
H1298  N1311   1.029   .     S
N1314  C1576   1.377   1_545 S
N1315  C1573   1.377   1_545 A
O1324  Cu1644  1.993   .     S
O1325  Cu1644  1.993   .     S
O1328  Cu1643  1.993   .     S
O1330  C934    1.409   1_655 S
O1332  Cu970   1.993   1_655 S
O1333  C938    1.411   1_655 S
O1333  C900    1.385   1_655 S
O1338  Cu969   1.993   1_655 S
O1340  Cu970   1.993   1_655 S
O1343  Cu969   1.993   1_655 S
O1344  Cu1643  1.993   .     S
C1345  O1545   1.309   .     A
C1345  O1563   1.293   .     A
C1345  C1374   1.479   .     S
C1346  O1554   1.390   .     S
C1346  N1749   1.377   .     A
C1346  C2467   1.434   .     S
C1347  O1555   1.389   .     S
C1347  N1536   1.377   .     A
C1347  C674    1.434   1_455 S
C1348  C2536   1.444   1_455 S
C1348  N1525   1.374   .     S
C1348  O1781   1.385   1_455 S
C1349  N1091   1.377   1_565 A
C1349  O1558   1.389   .     S
C1350  O1559   1.385   .     S
C1350  N1538   1.374   .     A
C1350  C2247   1.444   .     S
C1351  O1560   1.385   .     S
C1351  N1539   1.375   .     S
C1352  O1561   1.389   .     S
C1352  C2245   1.434   .     S
C1352  N1090   1.377   1_565 S
C1353  N1540   1.424   .     S
C1353  C1364   1.404   .     A
C1353  C1372   1.403   .     A
C1354  C1371   1.418   .     A
C1354  C1365   1.400   .     A
C1354  N1541   1.424   .     S
C1355  C1362   1.400   .     A
C1355  C1371   1.408   .     A
C1355  N1542   1.425   .     S
C1356  C1373   1.479   .     S
C1356  O1562   1.305   .     A
C1356  O1556   1.296   .     A
C1357  C1372   1.415   .     A
C1357  N1543   1.421   .     S
C1357  C1363   1.405   .     A
C1358  C1374   1.403   .     A
C1358  N1544   1.423   .     S
C1358  C1369   1.404   .     A
C1359  N1526   1.424   .     S
C1359  C1373   1.417   .     A
C1359  C1370   1.400   .     A
C1360  C1373   1.411   .     A
C1360  C1366   1.402   .     A
C1360  N1527   1.426   .     S
C1361  C1374   1.414   .     A
C1361  C1368   1.404   .     A
C1361  N1528   1.421   .     S
C1362  C1376   1.418   .     A
C1362  N1529   1.424   .     S
C1363  C1375   1.404   .     A
C1363  N1530   1.424   .     S
C1364  N1531   1.421   .     S
C1364  C1375   1.414   .     A
C1365  C1376   1.408   .     A
C1365  N1532   1.425   .     S
C1366  C1379   1.421   .     A
C1366  N1533   1.427   .     S
C1367  C1372   1.479   .     S
C1367  O1564   1.309   .     A
C1367  O1567   1.292   .     A
C1368  C1377   1.403   .     A
C1368  N1534   1.423   .     S
C1369  N1535   1.422   .     S
C1369  C1377   1.414   .     A
C1370  C1379   1.409   .     A
C1370  N1537   1.426   .     S
C1371  C1378   1.478   .     S
C1375  C1415   1.479   .     S
C1376  C1411   1.478   .     S
C1377  C1400   1.479   .     S
C1378  O1565   1.295   .     A
C1378  O1566   1.306   .     A
C1379  C1389   1.477   .     S
C1380  C1381   1.524   .     S
C1380  H1421   1.106   .     S
C1380  H1437   1.105   .     S
C1380  O1777   1.411   .     S
C1381  H1470   1.110   .     S
C1381  H1448   1.110   .     S
C1381  H1459   1.108   .     S
C1382  H1481   1.098   .     S
C1382  H1492   1.099   .     S
C1382  C1607   1.522   1_455 S
C1382  O1778   1.409   1_455 S
C1383  H1514   1.108   .     S
C1383  H1422   1.107   .     S
C1383  H1503   1.111   .     S
C1383  C1606   1.522   .     S
C1384  O1555   1.408   .     S
C1384  C1385   1.522   .     S
C1384  H1652   1.099   1_455 S
C1384  H1653   1.098   1_455 S
C1385  H1431   1.108   .     S
C1385  H1432   1.108   .     S
C1385  H1430   1.111   .     S
C1386  H1434   1.105   .     S
C1386  C1387   1.524   .     S
C1386  H1433   1.106   .     S
C1386  O1781   1.411   1_455 S
C1387  H1438   1.110   .     S
C1387  H1435   1.110   .     S
C1387  H1436   1.108   .     S
C1388  O1558   1.408   .     S
C1388  C1390   1.522   .     S
C1388  H1440   1.099   .     S
C1388  H1439   1.099   .     S
C1389  O1548   1.307   .     A
C1389  O1568   1.293   .     A
C1390  H1443   1.111   .     S
C1390  H1441   1.109   .     S
C1390  H1442   1.108   .     S
C1391  H1445   1.106   .     S
C1391  O1559   1.411   .     S
C1391  H1444   1.106   .     S
C1391  C1392   1.524   .     S
C1392  H1449   1.110   .     S
C1392  H1447   1.108   .     S
C1392  H1446   1.110   .     S
C1393  H1451   1.106   .     S
C1393  H1450   1.105   .     S
C1393  O1560   1.411   .     S
C1393  C1394   1.524   .     S
C1394  H1454   1.110   .     S
C1394  H1452   1.108   .     S
C1394  H1453   1.110   .     S
C1395  H1456   1.099   .     S
C1395  O1561   1.408   .     S
C1395  H1455   1.100   .     S
C1395  C1396   1.522   .     S
C1396  H1457   1.109   .     S
C1396  H1460   1.111   .     S
C1396  H1458   1.108   .     S
C1397  H1464   1.113   .     S
C1397  H1462   1.110   .     S
C1397  H1463   1.110   .     S
C1397  N1540   1.450   .     S
C1398  H1467   1.110   .     S
C1398  N1541   1.447   .     S
C1398  H1466   1.103   .     S
C1398  H1468   1.109   .     S
C1399  N1542   1.445   .     S
C1399  H1473   1.111   .     S
C1399  H1471   1.111   .     S
C1399  H1472   1.110   .     S
C1400  O1547   1.293   .     A
C1400  O1546   1.309   .     A
C1401  H1476   1.105   .     S
C1401  N1543   1.448   .     S
C1401  H1477   1.109   .     S
C1401  H1475   1.108   .     S
C1402  N1544   1.450   .     S
C1402  H1482   1.110   .     S
C1402  H1480   1.110   .     S
C1402  H1479   1.113   .     S
C1403  H1486   1.109   .     S
C1403  N1526   1.447   .     S
C1403  H1484   1.104   .     S
C1403  H1485   1.110   .     S
C1404  H1490   1.111   .     S
C1404  H1488   1.111   .     S
C1404  N1527   1.446   .     S
C1404  H1489   1.110   .     S
C1405  H1494   1.105   .     S
C1405  H1495   1.109   .     S
C1405  N1528   1.448   .     S
C1405  H1493   1.108   .     S
C1406  H1499   1.104   .     S
C1406  H1498   1.110   .     S
C1406  N1529   1.447   .     S
C1406  H1497   1.109   .     S
C1407  H1504   1.112   .     S
C1407  N1530   1.450   .     S
C1407  H1501   1.110   .     S
C1407  H1502   1.109   .     S
C1408  H1508   1.105   .     S
C1408  H1507   1.109   .     S
C1408  H1506   1.107   .     S
C1408  N1531   1.448   .     S
C1409  H1512   1.111   .     S
C1409  N1532   1.445   .     S
C1409  H1510   1.111   .     S
C1409  H1511   1.110   .     S
C1410  N1533   1.444   .     S
C1410  H1516   1.109   .     S
C1410  H1515   1.105   .     S
C1410  H1517   1.104   .     S
C1411  O1549   1.295   .     A
C1411  O1552   1.306   .     A
C1412  H1520   1.110   .     S
C1412  H1521   1.113   .     S
C1412  N1534   1.450   .     S
C1412  H1519   1.110   .     S
C1413  N1535   1.448   .     S
C1413  H1423   1.108   .     S
C1413  H1524   1.105   .     S
C1413  H1523   1.109   .     S
C1414  H1425   1.110   .     S
C1414  H1427   1.111   .     S
C1414  N1537   1.445   .     S
C1414  H1426   1.110   .     S
C1415  O1550   1.309   .     A
C1415  O1551   1.293   .     A
C1416  N1760   1.374   .     S
C1416  O1777   1.385   .     S
Cu1417 Cu1418  2.690   .     S
Cu1417 O1791   1.993   1_455 S
Cu1417 N1525   2.021   .     S
Cu1417 O1786   1.993   1_455 S
Cu1417 O1545   1.993   .     S
Cu1417 O1565   1.993   .     S
Cu1418 O1780   1.993   1_455 S
Cu1418 O1788   1.993   1_455 S
Cu1418 N1536   2.021   .     S
Cu1418 O1563   1.993   .     S
Cu1418 O1566   1.993   .     S
Cu1419 O1550   1.993   .     S
Cu1419 O1547   1.993   .     S
Cu1419 N1538   2.021   .     S
Cu1419 Cu1420  2.690   .     S
Cu1420 N1539   2.021   .     S
Cu1420 O1546   1.993   .     S
Cu1420 O1551   1.993   .     S
H1424  N1537   1.030   .     S
H1428  C1608   1.099   .     S
H1429  C1608   1.098   .     S
H1461  N1540   1.030   .     S
H1465  N1541   1.027   .     S
H1469  N1542   1.030   .     S
H1474  N1543   1.029   .     S
H1478  N1544   1.030   .     S
H1483  N1526   1.027   .     S
H1487  N1527   1.030   .     S
H1491  N1528   1.029   .     S
H1496  N1529   1.027   .     S
H1500  N1530   1.030   .     S
H1505  N1531   1.029   .     S
H1509  N1532   1.029   .     S
H1513  N1533   1.027   .     S
H1518  N1534   1.030   .     S
H1522  N1535   1.029   .     S
N1525  C1570   1.377   1_455 A
N1536  C1640   1.374   1_455 S
O1548  Cu972   1.993   1_565 S
O1549  Cu972   1.993   1_565 S
O1552  Cu971   1.993   1_565 S
O1553  C1604   1.411   1_455 S
O1553  C1640   1.385   1_455 S
O1554  C1606   1.409   .     S
O1556  Cu1642  1.993   .     S
O1557  C1610   1.411   .     S
O1557  C1572   1.385   .     S
O1562  Cu1641  1.993   .     S
O1564  Cu1642  1.993   .     S
O1567  Cu1641  1.993   .     S
O1568  Cu971   1.993   1_565 S
C1569  O1769   1.309   .     A
C1569  O1787   1.293   .     A
C1569  C1598   1.479   .     S
C1570  O1778   1.390   .     S
C1570  N1525   1.377   1_655 A
C1570  C2243   1.434   1_655 S
C1571  O1779   1.389   .     S
C1571  N1760   1.377   .     A
C1572  C2312   1.444   .     S
C1572  N1749   1.374   .     S
C1573  N1315   1.377   1_565 A
C1573  O1782   1.389   .     S
C1574  O1783   1.385   .     S
C1574  N1762   1.374   .     A
C1574  C2471   1.444   .     S
C1575  O1784   1.385   .     S
C1575  N1763   1.375   .     S
C1576  O1785   1.389   .     S
C1576  C2469   1.434   .     S
C1576  N1314   1.377   1_565 S
C1577  N1764   1.424   .     S
C1577  C1588   1.404   .     A
C1577  C1596   1.403   .     A
C1578  C1595   1.418   .     A
C1578  C1589   1.400   .     A
C1578  N1765   1.424   .     S
C1579  C1586   1.400   .     A
C1579  C1595   1.408   .     A
C1579  N1766   1.425   .     S
C1580  C1597   1.479   .     S
C1580  O1786   1.305   .     A
C1580  O1780   1.296   .     A
C1581  C1596   1.415   .     A
C1581  N1767   1.421   .     S
C1581  C1587   1.405   .     A
C1582  C1598   1.403   .     A
C1582  N1768   1.423   .     S
C1582  C1593   1.404   .     A
C1583  N1750   1.424   .     S
C1583  C1597   1.417   .     A
C1583  C1594   1.400   .     A
C1584  C1597   1.411   .     A
C1584  C1590   1.402   .     A
C1584  N1751   1.426   .     S
C1585  C1598   1.414   .     A
C1585  C1592   1.404   .     A
C1585  N1752   1.421   .     S
C1586  C1600   1.418   .     A
C1586  N1753   1.424   .     S
C1587  C1599   1.404   .     A
C1587  N1754   1.424   .     S
C1588  N1755   1.421   .     S
C1588  C1599   1.414   .     A
C1589  C1600   1.408   .     A
C1589  N1756   1.425   .     S
C1590  C1603   1.421   .     A
C1590  N1757   1.427   .     S
C1591  C1596   1.479   .     S
C1591  O1788   1.309   .     A
C1591  O1791   1.292   .     A
C1592  C1601   1.403   .     A
C1592  N1758   1.423   .     S
C1593  N1759   1.422   .     S
C1593  C1601   1.414   .     A
C1594  C1603   1.409   .     A
C1594  N1761   1.426   .     S
C1595  C1602   1.478   .     S
C1599  C1639   1.479   .     S
C1600  C1635   1.478   .     S
C1601  C1624   1.479   .     S
C1602  O1789   1.295   .     A
C1602  O1790   1.306   .     A
C1603  C1613   1.477   .     S
C1604  C1605   1.524   .     S
C1604  H1645   1.106   .     S
C1604  H1661   1.105   .     S
C1604  O1553   1.411   1_655 S
C1605  H1694   1.110   .     S
C1605  H1672   1.110   .     S
C1605  H1683   1.108   .     S
C1606  H1705   1.098   .     S
C1606  H1716   1.099   .     S
C1607  H1738   1.108   .     S
C1607  H1646   1.107   .     S
C1607  H1727   1.111   .     S
C1607  C1382   1.522   1_655 S
C1608  O1779   1.408   .     S
C1608  C1609   1.522   .     S
C1609  H1655   1.108   .     S
C1609  H1656   1.108   .     S
C1609  H1654   1.111   .     S
C1610  H1658   1.105   .     S
C1610  C1611   1.524   .     S
C1610  H1657   1.106   .     S
C1611  H1662   1.110   .     S
C1611  H1659   1.110   .     S
C1611  H1660   1.108   .     S
C1612  O1782   1.408   .     S
C1612  C1614   1.522   .     S
C1612  H1664   1.099   .     S
C1612  H1663   1.099   .     S
C1613  O1772   1.307   .     A
C1613  O1792   1.293   .     A
C1614  H1667   1.111   .     S
C1614  H1665   1.109   .     S
C1614  H1666   1.108   .     S
C1615  H1669   1.106   .     S
C1615  O1783   1.411   .     S
C1615  H1668   1.106   .     S
C1615  C1616   1.524   .     S
C1616  H1673   1.110   .     S
C1616  H1671   1.108   .     S
C1616  H1670   1.110   .     S
C1617  H1675   1.106   .     S
C1617  H1674   1.105   .     S
C1617  O1784   1.411   .     S
C1617  C1618   1.524   .     S
C1618  H1678   1.110   .     S
C1618  H1676   1.108   .     S
C1618  H1677   1.110   .     S
C1619  H1680   1.099   .     S
C1619  O1785   1.408   .     S
C1619  H1679   1.100   .     S
C1619  C1620   1.522   .     S
C1620  H1681   1.109   .     S
C1620  H1684   1.111   .     S
C1620  H1682   1.108   .     S
C1621  H1688   1.113   .     S
C1621  H1686   1.110   .     S
C1621  H1687   1.110   .     S
C1621  N1764   1.450   .     S
C1622  H1691   1.110   .     S
C1622  N1765   1.447   .     S
C1622  H1690   1.103   .     S
C1622  H1692   1.109   .     S
C1623  N1766   1.445   .     S
C1623  H1697   1.111   .     S
C1623  H1695   1.111   .     S
C1623  H1696   1.110   .     S
C1624  O1771   1.293   .     A
C1624  O1770   1.309   .     A
C1625  H1700   1.105   .     S
C1625  N1767   1.448   .     S
C1625  H1701   1.109   .     S
C1625  H1699   1.108   .     S
C1626  N1768   1.450   .     S
C1626  H1706   1.110   .     S
C1626  H1704   1.110   .     S
C1626  H1703   1.113   .     S
C1627  H1710   1.109   .     S
C1627  N1750   1.447   .     S
C1627  H1708   1.104   .     S
C1627  H1709   1.110   .     S
C1628  H1714   1.111   .     S
C1628  H1712   1.111   .     S
C1628  N1751   1.446   .     S
C1628  H1713   1.110   .     S
C1629  H1718   1.105   .     S
C1629  H1719   1.109   .     S
C1629  N1752   1.448   .     S
C1629  H1717   1.108   .     S
C1630  H1723   1.104   .     S
C1630  H1722   1.110   .     S
C1630  N1753   1.447   .     S
C1630  H1721   1.109   .     S
C1631  H1728   1.112   .     S
C1631  N1754   1.450   .     S
C1631  H1725   1.110   .     S
C1631  H1726   1.109   .     S
C1632  H1732   1.105   .     S
C1632  H1731   1.109   .     S
C1632  H1730   1.107   .     S
C1632  N1755   1.448   .     S
C1633  H1736   1.111   .     S
C1633  N1756   1.445   .     S
C1633  H1734   1.111   .     S
C1633  H1735   1.110   .     S
C1634  N1757   1.444   .     S
C1634  H1740   1.109   .     S
C1634  H1739   1.105   .     S
C1634  H1741   1.104   .     S
C1635  O1773   1.295   .     A
C1635  O1776   1.306   .     A
C1636  H1744   1.110   .     S
C1636  H1745   1.113   .     S
C1636  N1758   1.450   .     S
C1636  H1743   1.110   .     S
C1637  N1759   1.448   .     S
C1637  H1647   1.108   .     S
C1637  H1748   1.105   .     S
C1637  H1747   1.109   .     S
C1638  H1649   1.110   .     S
C1638  H1651   1.111   .     S
C1638  N1761   1.445   .     S
C1638  H1650   1.110   .     S
C1639  O1774   1.309   .     A
C1639  O1775   1.293   .     A
C1640  C452    1.444   1_655 S
C1640  N1536   1.374   1_655 S
C1640  O1553   1.385   1_655 S
Cu1641 Cu1642  2.690   .     S
Cu1641 N1749   2.021   .     S
Cu1641 O1769   1.993   .     S
Cu1641 O1789   1.993   .     S
Cu1642 N1760   2.021   .     S
Cu1642 O1787   1.993   .     S
Cu1642 O1790   1.993   .     S
Cu1643 O1774   1.993   .     S
Cu1643 O1771   1.993   .     S
Cu1643 N1762   2.021   .     S
Cu1643 Cu1644  2.690   .     S
Cu1644 N1763   2.021   .     S
Cu1644 O1770   1.993   .     S
Cu1644 O1775   1.993   .     S
H1648  N1761   1.030   .     S
H1652  C1384   1.099   1_655 S
H1653  C1384   1.098   1_655 S
H1685  N1764   1.030   .     S
H1689  N1765   1.027   .     S
H1693  N1766   1.030   .     S
H1698  N1767   1.029   .     S
H1702  N1768   1.030   .     S
H1707  N1750   1.027   .     S
H1711  N1751   1.030   .     S
H1715  N1752   1.029   .     S
H1720  N1753   1.027   .     S
H1724  N1754   1.030   .     S
H1729  N1755   1.029   .     S
H1733  N1756   1.029   .     S
H1737  N1757   1.027   .     S
H1742  N1758   1.030   .     S
H1746  N1759   1.029   .     S
O1772  Cu1196  1.993   1_565 S
O1773  Cu1196  1.993   1_565 S
O1776  Cu1195  1.993   1_565 S
O1778  C1382   1.409   1_655 S
O1780  Cu1418  1.993   1_655 S
O1781  C1386   1.411   1_655 S
O1781  C1348   1.385   1_655 S
O1786  Cu1417  1.993   1_655 S
O1788  Cu1418  1.993   1_655 S
O1791  Cu1417  1.993   1_655 S
O1792  Cu1195  1.993   1_565 S
C1793  O1993   1.309   .     A
C1793  O2011   1.293   .     A
C1793  C1822   1.479   .     S
C1794  O2002   1.390   .     S
C1794  N2197   1.377   .     A
C1794  C227    1.434   1_556 S
C1795  O2003   1.389   .     S
C1795  N1984   1.377   .     A
C1795  C1122   1.434   1_455 S
C1796  C296    1.444   1_456 S
C1796  N1973   1.374   .     S
C1796  O2229   1.385   1_455 S
C1797  N2435   1.377   .     A
C1797  O2006   1.389   .     S
C1798  O2007   1.385   .     S
C1798  N1986   1.374   .     A
C1798  C7      1.444   1_556 S
C1799  O2008   1.385   .     S
C1799  N1987   1.375   .     S
C1800  O2009   1.389   .     S
C1800  C5      1.434   1_556 S
C1800  N2434   1.377   .     S
C1801  N1988   1.424   .     S
C1801  C1812   1.404   .     A
C1801  C1820   1.403   .     A
C1802  C1819   1.418   .     A
C1802  C1813   1.400   .     A
C1802  N1989   1.424   .     S
C1803  C1810   1.400   .     A
C1803  C1819   1.408   .     A
C1803  N1990   1.425   .     S
C1804  C1821   1.479   .     S
C1804  O2010   1.305   .     A
C1804  O2004   1.296   .     A
C1805  C1820   1.415   .     A
C1805  N1991   1.421   .     S
C1805  C1811   1.405   .     A
C1806  C1822   1.403   .     A
C1806  N1992   1.423   .     S
C1806  C1817   1.404   .     A
C1807  N1974   1.424   .     S
C1807  C1821   1.417   .     A
C1807  C1818   1.400   .     A
C1808  C1821   1.411   .     A
C1808  C1814   1.402   .     A
C1808  N1975   1.426   .     S
C1809  C1822   1.414   .     A
C1809  C1816   1.404   .     A
C1809  N1976   1.421   .     S
C1810  C1824   1.418   .     A
C1810  N1977   1.424   .     S
C1811  C1823   1.404   .     A
C1811  N1978   1.424   .     S
C1812  N1979   1.421   .     S
C1812  C1823   1.414   .     A
C1813  C1824   1.408   .     A
C1813  N1980   1.425   .     S
C1814  C1827   1.421   .     A
C1814  N1981   1.427   .     S
C1815  C1820   1.479   .     S
C1815  O2012   1.309   .     A
C1815  O2015   1.292   .     A
C1816  C1825   1.403   .     A
C1816  N1982   1.423   .     S
C1817  N1983   1.422   .     S
C1817  C1825   1.414   .     A
C1818  C1827   1.409   .     A
C1818  N1985   1.426   .     S
C1819  C1826   1.478   .     S
C1823  C1863   1.479   .     S
C1824  C1859   1.478   .     S
C1825  C1848   1.479   .     S
C1826  O2013   1.295   .     A
C1826  O2014   1.306   .     A
C1827  C1837   1.477   .     S
C1828  C1829   1.524   .     S
C1828  H1869   1.106   .     S
C1828  H1885   1.105   .     S
C1828  O2225   1.411   .     S
C1829  H1918   1.110   .     S
C1829  H1896   1.110   .     S
C1829  H1907   1.108   .     S
C1830  H1929   1.098   .     S
C1830  H1940   1.099   .     S
C1830  C2055   1.522   1_455 S
C1830  O2226   1.409   1_455 S
C1831  H1962   1.108   .     S
C1831  H1870   1.107   .     S
C1831  H1951   1.111   .     S
C1831  C2054   1.522   .     S
C1832  O2003   1.408   .     S
C1832  C1833   1.522   .     S
C1832  H2100   1.099   1_455 S
C1832  H2101   1.098   1_455 S
C1833  H1879   1.108   .     S
C1833  H1880   1.108   .     S
C1833  H1878   1.111   .     S
C1834  H1882   1.105   .     S
C1834  C1835   1.524   .     S
C1834  H1881   1.106   .     S
C1834  O2229   1.411   1_455 S
C1835  H1886   1.110   .     S
C1835  H1883   1.110   .     S
C1835  H1884   1.108   .     S
C1836  O2006   1.408   .     S
C1836  C1838   1.522   .     S
C1836  H1888   1.099   .     S
C1836  H1887   1.099   .     S
C1837  O1996   1.307   .     A
C1837  O2016   1.293   .     A
C1838  H1891   1.111   .     S
C1838  H1889   1.109   .     S
C1838  H1890   1.108   .     S
C1839  H1893   1.106   .     S
C1839  O2007   1.411   .     S
C1839  H1892   1.106   .     S
C1839  C1840   1.524   .     S
C1840  H1897   1.110   .     S
C1840  H1895   1.108   .     S
C1840  H1894   1.110   .     S
C1841  H1899   1.106   .     S
C1841  H1898   1.105   .     S
C1841  O2008   1.411   .     S
C1841  C1842   1.524   .     S
C1842  H1902   1.110   .     S
C1842  H1900   1.108   .     S
C1842  H1901   1.110   .     S
C1843  H1904   1.099   .     S
C1843  O2009   1.408   .     S
C1843  H1903   1.100   .     S
C1843  C1844   1.522   .     S
C1844  H1905   1.109   .     S
C1844  H1908   1.111   .     S
C1844  H1906   1.108   .     S
C1845  H1912   1.113   .     S
C1845  H1910   1.110   .     S
C1845  H1911   1.110   .     S
C1845  N1988   1.450   .     S
C1846  H1915   1.110   .     S
C1846  N1989   1.447   .     S
C1846  H1914   1.103   .     S
C1846  H1916   1.109   .     S
C1847  N1990   1.445   .     S
C1847  H1921   1.111   .     S
C1847  H1919   1.111   .     S
C1847  H1920   1.110   .     S
C1848  O1995   1.293   .     A
C1848  O1994   1.309   .     A
C1849  H1924   1.105   .     S
C1849  N1991   1.448   .     S
C1849  H1925   1.109   .     S
C1849  H1923   1.108   .     S
C1850  N1992   1.450   .     S
C1850  H1930   1.110   .     S
C1850  H1928   1.110   .     S
C1850  H1927   1.113   .     S
C1851  H1934   1.109   .     S
C1851  N1974   1.447   .     S
C1851  H1932   1.104   .     S
C1851  H1933   1.110   .     S
C1852  H1938   1.111   .     S
C1852  H1936   1.111   .     S
C1852  N1975   1.446   .     S
C1852  H1937   1.110   .     S
C1853  H1942   1.105   .     S
C1853  H1943   1.109   .     S
C1853  N1976   1.448   .     S
C1853  H1941   1.108   .     S
C1854  H1947   1.104   .     S
C1854  H1946   1.110   .     S
C1854  N1977   1.447   .     S
C1854  H1945   1.109   .     S
C1855  H1952   1.112   .     S
C1855  N1978   1.450   .     S
C1855  H1949   1.110   .     S
C1855  H1950   1.109   .     S
C1856  H1956   1.105   .     S
C1856  H1955   1.109   .     S
C1856  H1954   1.107   .     S
C1856  N1979   1.448   .     S
C1857  H1960   1.111   .     S
C1857  N1980   1.445   .     S
C1857  H1958   1.111   .     S
C1857  H1959   1.110   .     S
C1858  N1981   1.444   .     S
C1858  H1964   1.109   .     S
C1858  H1963   1.105   .     S
C1858  H1965   1.104   .     S
C1859  O1997   1.295   .     A
C1859  O2000   1.306   .     A
C1860  H1968   1.110   .     S
C1860  H1969   1.113   .     S
C1860  N1982   1.450   .     S
C1860  H1967   1.110   .     S
C1861  N1983   1.448   .     S
C1861  H1871   1.108   .     S
C1861  H1972   1.105   .     S
C1861  H1971   1.109   .     S
C1862  H1873   1.110   .     S
C1862  H1875   1.111   .     S
C1862  N1985   1.445   .     S
C1862  H1874   1.110   .     S
C1863  O1998   1.309   .     A
C1863  O1999   1.293   .     A
C1864  N2208   1.374   .     S
C1864  O2225   1.385   .     S
Cu1865 Cu1866  2.690   .     S
Cu1865 O2239   1.993   1_455 S
Cu1865 N1973   2.021   .     S
Cu1865 O2234   1.993   1_455 S
Cu1865 O1993   1.993   .     S
Cu1865 O2013   1.993   .     S
Cu1866 O2228   1.993   1_455 S
Cu1866 O2236   1.993   1_455 S
Cu1866 N1984   2.021   .     S
Cu1866 O2011   1.993   .     S
Cu1866 O2014   1.993   .     S
Cu1867 O1998   1.993   .     S
Cu1867 O1995   1.993   .     S
Cu1867 N1986   2.021   .     S
Cu1867 Cu1868  2.690   .     S
Cu1867 O2448   1.993   1_545 S
Cu1867 O2464   1.993   1_545 S
Cu1868 N1987   2.021   .     S
Cu1868 O2445   1.993   1_545 S
Cu1868 O2444   1.993   1_545 S
Cu1868 O1994   1.993   .     S
Cu1868 O1999   1.993   .     S
H1872  N1985   1.030   .     S
H1876  C2056   1.099   .     S
H1877  C2056   1.098   .     S
H1909  N1988   1.030   .     S
H1913  N1989   1.027   .     S
H1917  N1990   1.030   .     S
H1922  N1991   1.029   .     S
H1926  N1992   1.030   .     S
H1931  N1974   1.027   .     S
H1935  N1975   1.030   .     S
H1939  N1976   1.029   .     S
H1944  N1977   1.027   .     S
H1948  N1978   1.030   .     S
H1953  N1979   1.029   .     S
H1957  N1980   1.029   .     S
H1961  N1981   1.027   .     S
H1966  N1982   1.030   .     S
H1970  N1983   1.029   .     S
N1973  C2018   1.377   1_455 A
N1984  C2088   1.374   1_455 S
N1986  C2248   1.377   1_545 S
N1987  C2245   1.377   1_545 A
O1996  Cu2316  1.993   .     S
O1997  Cu2316  1.993   .     S
O2000  Cu2315  1.993   .     S
O2001  C2052   1.411   1_455 S
O2001  C2088   1.385   1_455 S
O2002  C2054   1.409   .     S
O2004  Cu2090  1.993   .     S
O2005  C2058   1.411   .     S
O2005  C2020   1.385   .     S
O2010  Cu2089  1.993   .     S
O2012  Cu2090  1.993   .     S
O2015  Cu2089  1.993   .     S
O2016  Cu2315  1.993   .     S
C2017  O2217   1.309   .     A
C2017  O2235   1.293   .     A
C2017  C2046   1.479   .     S
C2018  O2226   1.390   .     S
C2018  N1973   1.377   1_655 A
C2018  C3      1.434   1_656 S
C2019  O2227   1.389   .     S
C2019  N2208   1.377   .     A
C2020  C72     1.444   1_556 S
C2020  N2197   1.374   .     S
C2021  N2659   1.377   .     A
C2021  O2230   1.389   .     S
C2022  O2231   1.385   .     S
C2022  N2210   1.374   .     A
C2022  C231    1.444   1_556 S
C2023  O2232   1.385   .     S
C2023  N2211   1.375   .     S
C2024  O2233   1.389   .     S
C2024  C229    1.434   1_556 S
C2024  N2658   1.377   .     S
C2025  N2212   1.424   .     S
C2025  C2036   1.404   .     A
C2025  C2044   1.403   .     A
C2026  C2043   1.418   .     A
C2026  C2037   1.400   .     A
C2026  N2213   1.424   .     S
C2027  C2034   1.400   .     A
C2027  C2043   1.408   .     A
C2027  N2214   1.425   .     S
C2028  C2045   1.479   .     S
C2028  O2234   1.305   .     A
C2028  O2228   1.296   .     A
C2029  C2044   1.415   .     A
C2029  N2215   1.421   .     S
C2029  C2035   1.405   .     A
C2030  C2046   1.403   .     A
C2030  N2216   1.423   .     S
C2030  C2041   1.404   .     A
C2031  N2198   1.424   .     S
C2031  C2045   1.417   .     A
C2031  C2042   1.400   .     A
C2032  C2045   1.411   .     A
C2032  C2038   1.402   .     A
C2032  N2199   1.426   .     S
C2033  C2046   1.414   .     A
C2033  C2040   1.404   .     A
C2033  N2200   1.421   .     S
C2034  C2048   1.418   .     A
C2034  N2201   1.424   .     S
C2035  C2047   1.404   .     A
C2035  N2202   1.424   .     S
C2036  N2203   1.421   .     S
C2036  C2047   1.414   .     A
C2037  C2048   1.408   .     A
C2037  N2204   1.425   .     S
C2038  C2051   1.421   .     A
C2038  N2205   1.427   .     S
C2039  C2044   1.479   .     S
C2039  O2236   1.309   .     A
C2039  O2239   1.292   .     A
C2040  C2049   1.403   .     A
C2040  N2206   1.423   .     S
C2041  N2207   1.422   .     S
C2041  C2049   1.414   .     A
C2042  C2051   1.409   .     A
C2042  N2209   1.426   .     S
C2043  C2050   1.478   .     S
C2047  C2087   1.479   .     S
C2048  C2083   1.478   .     S
C2049  C2072   1.479   .     S
C2050  O2237   1.295   .     A
C2050  O2238   1.306   .     A
C2051  C2061   1.477   .     S
C2052  C2053   1.524   .     S
C2052  H2093   1.106   .     S
C2052  H2109   1.105   .     S
C2052  O2001   1.411   1_655 S
C2053  H2142   1.110   .     S
C2053  H2120   1.110   .     S
C2053  H2131   1.108   .     S
C2054  H2153   1.098   .     S
C2054  H2164   1.099   .     S
C2055  H2186   1.108   .     S
C2055  H2094   1.107   .     S
C2055  H2175   1.111   .     S
C2055  C1830   1.522   1_655 S
C2056  O2227   1.408   .     S
C2056  C2057   1.522   .     S
C2057  H2103   1.108   .     S
C2057  H2104   1.108   .     S
C2057  H2102   1.111   .     S
C2058  H2106   1.105   .     S
C2058  C2059   1.524   .     S
C2058  H2105   1.106   .     S
C2059  H2110   1.110   .     S
C2059  H2107   1.110   .     S
C2059  H2108   1.108   .     S
C2060  O2230   1.408   .     S
C2060  C2062   1.522   .     S
C2060  H2112   1.099   .     S
C2060  H2111   1.099   .     S
C2061  O2220   1.307   .     A
C2061  O2240   1.293   .     A
C2062  H2115   1.111   .     S
C2062  H2113   1.109   .     S
C2062  H2114   1.108   .     S
C2063  H2117   1.106   .     S
C2063  O2231   1.411   .     S
C2063  H2116   1.106   .     S
C2063  C2064   1.524   .     S
C2064  H2121   1.110   .     S
C2064  H2119   1.108   .     S
C2064  H2118   1.110   .     S
C2065  H2123   1.106   .     S
C2065  H2122   1.105   .     S
C2065  O2232   1.411   .     S
C2065  C2066   1.524   .     S
C2066  H2126   1.110   .     S
C2066  H2124   1.108   .     S
C2066  H2125   1.110   .     S
C2067  H2128   1.099   .     S
C2067  O2233   1.408   .     S
C2067  H2127   1.100   .     S
C2067  C2068   1.522   .     S
C2068  H2129   1.109   .     S
C2068  H2132   1.111   .     S
C2068  H2130   1.108   .     S
C2069  H2136   1.113   .     S
C2069  H2134   1.110   .     S
C2069  H2135   1.110   .     S
C2069  N2212   1.450   .     S
C2070  H2139   1.110   .     S
C2070  N2213   1.447   .     S
C2070  H2138   1.103   .     S
C2070  H2140   1.109   .     S
C2071  N2214   1.445   .     S
C2071  H2145   1.111   .     S
C2071  H2143   1.111   .     S
C2071  H2144   1.110   .     S
C2072  O2219   1.293   .     A
C2072  O2218   1.309   .     A
C2073  H2148   1.105   .     S
C2073  N2215   1.448   .     S
C2073  H2149   1.109   .     S
C2073  H2147   1.108   .     S
C2074  N2216   1.450   .     S
C2074  H2154   1.110   .     S
C2074  H2152   1.110   .     S
C2074  H2151   1.113   .     S
C2075  H2158   1.109   .     S
C2075  N2198   1.447   .     S
C2075  H2156   1.104   .     S
C2075  H2157   1.110   .     S
C2076  H2162   1.111   .     S
C2076  H2160   1.111   .     S
C2076  N2199   1.446   .     S
C2076  H2161   1.110   .     S
C2077  H2166   1.105   .     S
C2077  H2167   1.109   .     S
C2077  N2200   1.448   .     S
C2077  H2165   1.108   .     S
C2078  H2171   1.104   .     S
C2078  H2170   1.110   .     S
C2078  N2201   1.447   .     S
C2078  H2169   1.109   .     S
C2079  H2176   1.112   .     S
C2079  N2202   1.450   .     S
C2079  H2173   1.110   .     S
C2079  H2174   1.109   .     S
C2080  H2180   1.105   .     S
C2080  H2179   1.109   .     S
C2080  H2178   1.107   .     S
C2080  N2203   1.448   .     S
C2081  H2184   1.111   .     S
C2081  N2204   1.445   .     S
C2081  H2182   1.111   .     S
C2081  H2183   1.110   .     S
C2082  N2205   1.444   .     S
C2082  H2188   1.109   .     S
C2082  H2187   1.105   .     S
C2082  H2189   1.104   .     S
C2083  O2221   1.295   .     A
C2083  O2224   1.306   .     A
C2084  H2192   1.110   .     S
C2084  H2193   1.113   .     S
C2084  N2206   1.450   .     S
C2084  H2191   1.110   .     S
C2085  N2207   1.448   .     S
C2085  H2095   1.108   .     S
C2085  H2196   1.105   .     S
C2085  H2195   1.109   .     S
C2086  H2097   1.110   .     S
C2086  H2099   1.111   .     S
C2086  N2209   1.445   .     S
C2086  H2098   1.110   .     S
C2087  O2222   1.309   .     A
C2087  O2223   1.293   .     A
C2088  C900    1.444   1_655 S
C2088  N1984   1.374   1_655 S
C2088  O2001   1.385   1_655 S
Cu2089 Cu2090  2.690   .     S
Cu2089 N2197   2.021   .     S
Cu2089 O2217   1.993   .     S
Cu2089 O2237   1.993   .     S
Cu2090 N2208   2.021   .     S
Cu2090 O2235   1.993   .     S
Cu2090 O2238   1.993   .     S
Cu2091 O2222   1.993   .     S
Cu2091 O2219   1.993   .     S
Cu2091 N2210   2.021   .     S
Cu2091 Cu2092  2.690   .     S
Cu2091 O2672   1.993   1_545 S
Cu2091 O2688   1.993   1_545 S
Cu2092 N2211   2.021   .     S
Cu2092 O2669   1.993   1_545 S
Cu2092 O2668   1.993   1_545 S
Cu2092 O2218   1.993   .     S
Cu2092 O2223   1.993   .     S
H2096  N2209   1.030   .     S
H2100  C1832   1.099   1_655 S
H2101  C1832   1.098   1_655 S
H2133  N2212   1.030   .     S
H2137  N2213   1.027   .     S
H2141  N2214   1.030   .     S
H2146  N2215   1.029   .     S
H2150  N2216   1.030   .     S
H2155  N2198   1.027   .     S
H2159  N2199   1.030   .     S
H2163  N2200   1.029   .     S
H2168  N2201   1.027   .     S
H2172  N2202   1.030   .     S
H2177  N2203   1.029   .     S
H2181  N2204   1.029   .     S
H2185  N2205   1.027   .     S
H2190  N2206   1.030   .     S
H2194  N2207   1.029   .     S
N2210  C2472   1.377   1_545 S
N2211  C2469   1.377   1_545 A
O2220  Cu2540  1.993   .     S
O2221  Cu2540  1.993   .     S
O2224  Cu2539  1.993   .     S
O2226  C1830   1.409   1_655 S
O2228  Cu1866  1.993   1_655 S
O2229  C1834   1.411   1_655 S
O2229  C1796   1.385   1_655 S
O2234  Cu1865  1.993   1_655 S
O2236  Cu1866  1.993   1_655 S
O2239  Cu1865  1.993   1_655 S
O2240  Cu2539  1.993   .     S
C2241  O2441   1.309   .     A
C2241  O2459   1.293   .     A
C2241  C2270   1.479   .     S
C2242  O2450   1.390   .     S
C2242  N2645   1.377   .     A
C2242  C675    1.434   1_556 S
C2243  O2451   1.389   .     S
C2243  N2432   1.377   .     A
C2243  C1570   1.434   1_455 S
C2244  C744    1.444   1_456 S
C2244  N2421   1.374   .     S
C2244  O2677   1.385   1_455 S
C2245  N1987   1.377   1_565 A
C2245  O2454   1.389   .     S
C2246  O2455   1.385   .     S
C2246  N2434   1.374   .     A
C2246  C455    1.444   1_556 S
C2247  O2456   1.385   .     S
C2247  N2435   1.375   .     S
C2248  O2457   1.389   .     S
C2248  C453    1.434   1_556 S
C2248  N1986   1.377   1_565 S
C2249  N2436   1.424   .     S
C2249  C2260   1.404   .     A
C2249  C2268   1.403   .     A
C2250  C2267   1.418   .     A
C2250  C2261   1.400   .     A
C2250  N2437   1.424   .     S
C2251  C2258   1.400   .     A
C2251  C2267   1.408   .     A
C2251  N2438   1.425   .     S
C2252  C2269   1.479   .     S
C2252  O2458   1.305   .     A
C2252  O2452   1.296   .     A
C2253  C2268   1.415   .     A
C2253  N2439   1.421   .     S
C2253  C2259   1.405   .     A
C2254  C2270   1.403   .     A
C2254  N2440   1.423   .     S
C2254  C2265   1.404   .     A
C2255  N2422   1.424   .     S
C2255  C2269   1.417   .     A
C2255  C2266   1.400   .     A
C2256  C2269   1.411   .     A
C2256  C2262   1.402   .     A
C2256  N2423   1.426   .     S
C2257  C2270   1.414   .     A
C2257  C2264   1.404   .     A
C2257  N2424   1.421   .     S
C2258  C2272   1.418   .     A
C2258  N2425   1.424   .     S
C2259  C2271   1.404   .     A
C2259  N2426   1.424   .     S
C2260  N2427   1.421   .     S
C2260  C2271   1.414   .     A
C2261  C2272   1.408   .     A
C2261  N2428   1.425   .     S
C2262  C2275   1.421   .     A
C2262  N2429   1.427   .     S
C2263  C2268   1.479   .     S
C2263  O2460   1.309   .     A
C2263  O2463   1.292   .     A
C2264  C2273   1.403   .     A
C2264  N2430   1.423   .     S
C2265  N2431   1.422   .     S
C2265  C2273   1.414   .     A
C2266  C2275   1.409   .     A
C2266  N2433   1.426   .     S
C2267  C2274   1.478   .     S
C2271  C2311   1.479   .     S
C2272  C2307   1.478   .     S
C2273  C2296   1.479   .     S
C2274  O2461   1.295   .     A
C2274  O2462   1.306   .     A
C2275  C2285   1.477   .     S
C2276  C2277   1.524   .     S
C2276  H2317   1.106   .     S
C2276  H2333   1.105   .     S
C2276  O2673   1.411   .     S
C2277  H2366   1.110   .     S
C2277  H2344   1.110   .     S
C2277  H2355   1.108   .     S
C2278  H2377   1.098   .     S
C2278  H2388   1.099   .     S
C2278  C2503   1.522   1_455 S
C2278  O2674   1.409   1_455 S
C2279  H2410   1.108   .     S
C2279  H2318   1.107   .     S
C2279  H2399   1.111   .     S
C2279  C2502   1.522   .     S
C2280  O2451   1.408   .     S
C2280  C2281   1.522   .     S
C2280  H2548   1.099   1_455 S
C2280  H2549   1.098   1_455 S
C2281  H2327   1.108   .     S
C2281  H2328   1.108   .     S
C2281  H2326   1.111   .     S
C2282  H2330   1.105   .     S
C2282  C2283   1.524   .     S
C2282  H2329   1.106   .     S
C2282  O2677   1.411   1_455 S
C2283  H2334   1.110   .     S
C2283  H2331   1.110   .     S
C2283  H2332   1.108   .     S
C2284  O2454   1.408   .     S
C2284  C2286   1.522   .     S
C2284  H2336   1.099   .     S
C2284  H2335   1.099   .     S
C2285  O2444   1.307   .     A
C2285  O2464   1.293   .     A
C2286  H2339   1.111   .     S
C2286  H2337   1.109   .     S
C2286  H2338   1.108   .     S
C2287  H2341   1.106   .     S
C2287  O2455   1.411   .     S
C2287  H2340   1.106   .     S
C2287  C2288   1.524   .     S
C2288  H2345   1.110   .     S
C2288  H2343   1.108   .     S
C2288  H2342   1.110   .     S
C2289  H2347   1.106   .     S
C2289  H2346   1.105   .     S
C2289  O2456   1.411   .     S
C2289  C2290   1.524   .     S
C2290  H2350   1.110   .     S
C2290  H2348   1.108   .     S
C2290  H2349   1.110   .     S
C2291  H2352   1.099   .     S
C2291  O2457   1.408   .     S
C2291  H2351   1.100   .     S
C2291  C2292   1.522   .     S
C2292  H2353   1.109   .     S
C2292  H2356   1.111   .     S
C2292  H2354   1.108   .     S
C2293  H2360   1.113   .     S
C2293  H2358   1.110   .     S
C2293  H2359   1.110   .     S
C2293  N2436   1.450   .     S
C2294  H2363   1.110   .     S
C2294  N2437   1.447   .     S
C2294  H2362   1.103   .     S
C2294  H2364   1.109   .     S
C2295  N2438   1.445   .     S
C2295  H2369   1.111   .     S
C2295  H2367   1.111   .     S
C2295  H2368   1.110   .     S
C2296  O2443   1.293   .     A
C2296  O2442   1.309   .     A
C2297  H2372   1.105   .     S
C2297  N2439   1.448   .     S
C2297  H2373   1.109   .     S
C2297  H2371   1.108   .     S
C2298  N2440   1.450   .     S
C2298  H2378   1.110   .     S
C2298  H2376   1.110   .     S
C2298  H2375   1.113   .     S
C2299  H2382   1.109   .     S
C2299  N2422   1.447   .     S
C2299  H2380   1.104   .     S
C2299  H2381   1.110   .     S
C2300  H2386   1.111   .     S
C2300  H2384   1.111   .     S
C2300  N2423   1.446   .     S
C2300  H2385   1.110   .     S
C2301  H2390   1.105   .     S
C2301  H2391   1.109   .     S
C2301  N2424   1.448   .     S
C2301  H2389   1.108   .     S
C2302  H2395   1.104   .     S
C2302  H2394   1.110   .     S
C2302  N2425   1.447   .     S
C2302  H2393   1.109   .     S
C2303  H2400   1.112   .     S
C2303  N2426   1.450   .     S
C2303  H2397   1.110   .     S
C2303  H2398   1.109   .     S
C2304  H2404   1.105   .     S
C2304  H2403   1.109   .     S
C2304  H2402   1.107   .     S
C2304  N2427   1.448   .     S
C2305  H2408   1.111   .     S
C2305  N2428   1.445   .     S
C2305  H2406   1.111   .     S
C2305  H2407   1.110   .     S
C2306  N2429   1.444   .     S
C2306  H2412   1.109   .     S
C2306  H2411   1.105   .     S
C2306  H2413   1.104   .     S
C2307  O2445   1.295   .     A
C2307  O2448   1.306   .     A
C2308  H2416   1.110   .     S
C2308  H2417   1.113   .     S
C2308  N2430   1.450   .     S
C2308  H2415   1.110   .     S
C2309  N2431   1.448   .     S
C2309  H2319   1.108   .     S
C2309  H2420   1.105   .     S
C2309  H2419   1.109   .     S
C2310  H2321   1.110   .     S
C2310  H2323   1.111   .     S
C2310  N2433   1.445   .     S
C2310  H2322   1.110   .     S
C2311  O2446   1.309   .     A
C2311  O2447   1.293   .     A
C2312  N2656   1.374   .     S
C2312  O2673   1.385   .     S
Cu2313 Cu2314  2.690   .     S
Cu2313 O2687   1.993   1_455 S
Cu2313 N2421   2.021   .     S
Cu2313 O2682   1.993   1_455 S
Cu2313 O2441   1.993   .     S
Cu2313 O2461   1.993   .     S
Cu2314 O2676   1.993   1_455 S
Cu2314 O2684   1.993   1_455 S
Cu2314 N2432   2.021   .     S
Cu2314 O2459   1.993   .     S
Cu2314 O2462   1.993   .     S
Cu2315 O2446   1.993   .     S
Cu2315 O2443   1.993   .     S
Cu2315 N2434   2.021   .     S
Cu2315 Cu2316  2.690   .     S
Cu2316 N2435   2.021   .     S
Cu2316 O2442   1.993   .     S
Cu2316 O2447   1.993   .     S
H2320  N2433   1.030   .     S
H2324  C2504   1.099   .     S
H2325  C2504   1.098   .     S
H2357  N2436   1.030   .     S
H2361  N2437   1.027   .     S
H2365  N2438   1.030   .     S
H2370  N2439   1.029   .     S
H2374  N2440   1.030   .     S
H2379  N2422   1.027   .     S
H2383  N2423   1.030   .     S
H2387  N2424   1.029   .     S
H2392  N2425   1.027   .     S
H2396  N2426   1.030   .     S
H2401  N2427   1.029   .     S
H2405  N2428   1.029   .     S
H2409  N2429   1.027   .     S
H2414  N2430   1.030   .     S
H2418  N2431   1.029   .     S
N2421  C2466   1.377   1_455 A
N2432  C2536   1.374   1_455 S
O2444  Cu1868  1.993   1_565 S
O2445  Cu1868  1.993   1_565 S
O2448  Cu1867  1.993   1_565 S
O2449  C2500   1.411   1_455 S
O2449  C2536   1.385   1_455 S
O2450  C2502   1.409   .     S
O2452  Cu2538  1.993   .     S
O2453  C2506   1.411   .     S
O2453  C2468   1.385   .     S
O2458  Cu2537  1.993   .     S
O2460  Cu2538  1.993   .     S
O2463  Cu2537  1.993   .     S
O2464  Cu1867  1.993   1_565 S
C2465  O2665   1.309   .     A
C2465  O2683   1.293   .     A
C2465  C2494   1.479   .     S
C2466  O2674   1.390   .     S
C2466  N2421   1.377   1_655 A
C2466  C451    1.434   1_656 S
C2467  O2675   1.389   .     S
C2467  N2656   1.377   .     A
C2468  C520    1.444   1_556 S
C2468  N2645   1.374   .     S
C2469  N2211   1.377   1_565 A
C2469  O2678   1.389   .     S
C2470  O2679   1.385   .     S
C2470  N2658   1.374   .     A
C2470  C679    1.444   1_556 S
C2471  O2680   1.385   .     S
C2471  N2659   1.375   .     S
C2472  O2681   1.389   .     S
C2472  C677    1.434   1_556 S
C2472  N2210   1.377   1_565 S
C2473  N2660   1.424   .     S
C2473  C2484   1.404   .     A
C2473  C2492   1.403   .     A
C2474  C2491   1.418   .     A
C2474  C2485   1.400   .     A
C2474  N2661   1.424   .     S
C2475  C2482   1.400   .     A
C2475  C2491   1.408   .     A
C2475  N2662   1.425   .     S
C2476  C2493   1.479   .     S
C2476  O2682   1.305   .     A
C2476  O2676   1.296   .     A
C2477  C2492   1.415   .     A
C2477  N2663   1.421   .     S
C2477  C2483   1.405   .     A
C2478  C2494   1.403   .     A
C2478  N2664   1.423   .     S
C2478  C2489   1.404   .     A
C2479  N2646   1.424   .     S
C2479  C2493   1.417   .     A
C2479  C2490   1.400   .     A
C2480  C2493   1.411   .     A
C2480  C2486   1.402   .     A
C2480  N2647   1.426   .     S
C2481  C2494   1.414   .     A
C2481  C2488   1.404   .     A
C2481  N2648   1.421   .     S
C2482  C2496   1.418   .     A
C2482  N2649   1.424   .     S
C2483  C2495   1.404   .     A
C2483  N2650   1.424   .     S
C2484  N2651   1.421   .     S
C2484  C2495   1.414   .     A
C2485  C2496   1.408   .     A
C2485  N2652   1.425   .     S
C2486  C2499   1.421   .     A
C2486  N2653   1.427   .     S
C2487  C2492   1.479   .     S
C2487  O2684   1.309   .     A
C2487  O2687   1.292   .     A
C2488  C2497   1.403   .     A
C2488  N2654   1.423   .     S
C2489  N2655   1.422   .     S
C2489  C2497   1.414   .     A
C2490  C2499   1.409   .     A
C2490  N2657   1.426   .     S
C2491  C2498   1.478   .     S
C2495  C2535   1.479   .     S
C2496  C2531   1.478   .     S
C2497  C2520   1.479   .     S
C2498  O2685   1.295   .     A
C2498  O2686   1.306   .     A
C2499  C2509   1.477   .     S
C2500  C2501   1.524   .     S
C2500  H2541   1.106   .     S
C2500  H2557   1.105   .     S
C2500  O2449   1.411   1_655 S
C2501  H2590   1.110   .     S
C2501  H2568   1.110   .     S
C2501  H2579   1.108   .     S
C2502  H2601   1.098   .     S
C2502  H2612   1.099   .     S
C2503  H2634   1.108   .     S
C2503  H2542   1.107   .     S
C2503  H2623   1.111   .     S
C2503  C2278   1.522   1_655 S
C2504  O2675   1.408   .     S
C2504  C2505   1.522   .     S
C2505  H2551   1.108   .     S
C2505  H2552   1.108   .     S
C2505  H2550   1.111   .     S
C2506  H2554   1.105   .     S
C2506  C2507   1.524   .     S
C2506  H2553   1.106   .     S
C2507  H2558   1.110   .     S
C2507  H2555   1.110   .     S
C2507  H2556   1.108   .     S
C2508  O2678   1.408   .     S
C2508  C2510   1.522   .     S
C2508  H2560   1.099   .     S
C2508  H2559   1.099   .     S
C2509  O2668   1.307   .     A
C2509  O2688   1.293   .     A
C2510  H2563   1.111   .     S
C2510  H2561   1.109   .     S
C2510  H2562   1.108   .     S
C2511  H2565   1.106   .     S
C2511  O2679   1.411   .     S
C2511  H2564   1.106   .     S
C2511  C2512   1.524   .     S
C2512  H2569   1.110   .     S
C2512  H2567   1.108   .     S
C2512  H2566   1.110   .     S
C2513  H2571   1.106   .     S
C2513  H2570   1.105   .     S
C2513  O2680   1.411   .     S
C2513  C2514   1.524   .     S
C2514  H2574   1.110   .     S
C2514  H2572   1.108   .     S
C2514  H2573   1.110   .     S
C2515  H2576   1.099   .     S
C2515  O2681   1.408   .     S
C2515  H2575   1.100   .     S
C2515  C2516   1.522   .     S
C2516  H2577   1.109   .     S
C2516  H2580   1.111   .     S
C2516  H2578   1.108   .     S
C2517  H2584   1.113   .     S
C2517  H2582   1.110   .     S
C2517  H2583   1.110   .     S
C2517  N2660   1.450   .     S
C2518  H2587   1.110   .     S
C2518  N2661   1.447   .     S
C2518  H2586   1.103   .     S
C2518  H2588   1.109   .     S
C2519  N2662   1.445   .     S
C2519  H2593   1.111   .     S
C2519  H2591   1.111   .     S
C2519  H2592   1.110   .     S
C2520  O2667   1.293   .     A
C2520  O2666   1.309   .     A
C2521  H2596   1.105   .     S
C2521  N2663   1.448   .     S
C2521  H2597   1.109   .     S
C2521  H2595   1.108   .     S
C2522  N2664   1.450   .     S
C2522  H2602   1.110   .     S
C2522  H2600   1.110   .     S
C2522  H2599   1.113   .     S
C2523  H2606   1.109   .     S
C2523  N2646   1.447   .     S
C2523  H2604   1.104   .     S
C2523  H2605   1.110   .     S
C2524  H2610   1.111   .     S
C2524  H2608   1.111   .     S
C2524  N2647   1.446   .     S
C2524  H2609   1.110   .     S
C2525  H2614   1.105   .     S
C2525  H2615   1.109   .     S
C2525  N2648   1.448   .     S
C2525  H2613   1.108   .     S
C2526  H2619   1.104   .     S
C2526  H2618   1.110   .     S
C2526  N2649   1.447   .     S
C2526  H2617   1.109   .     S
C2527  H2624   1.112   .     S
C2527  N2650   1.450   .     S
C2527  H2621   1.110   .     S
C2527  H2622   1.109   .     S
C2528  H2628   1.105   .     S
C2528  H2627   1.109   .     S
C2528  H2626   1.107   .     S
C2528  N2651   1.448   .     S
C2529  H2632   1.111   .     S
C2529  N2652   1.445   .     S
C2529  H2630   1.111   .     S
C2529  H2631   1.110   .     S
C2530  N2653   1.444   .     S
C2530  H2636   1.109   .     S
C2530  H2635   1.105   .     S
C2530  H2637   1.104   .     S
C2531  O2669   1.295   .     A
C2531  O2672   1.306   .     A
C2532  H2640   1.110   .     S
C2532  H2641   1.113   .     S
C2532  N2654   1.450   .     S
C2532  H2639   1.110   .     S
C2533  N2655   1.448   .     S
C2533  H2543   1.108   .     S
C2533  H2644   1.105   .     S
C2533  H2643   1.109   .     S
C2534  H2545   1.110   .     S
C2534  H2547   1.111   .     S
C2534  N2657   1.445   .     S
C2534  H2546   1.110   .     S
C2535  O2670   1.309   .     A
C2535  O2671   1.293   .     A
C2536  C1348   1.444   1_655 S
C2536  N2432   1.374   1_655 S
C2536  O2449   1.385   1_655 S
Cu2537 Cu2538  2.690   .     S
Cu2537 N2645   2.021   .     S
Cu2537 O2665   1.993   .     S
Cu2537 O2685   1.993   .     S
Cu2538 N2656   2.021   .     S
Cu2538 O2683   1.993   .     S
Cu2538 O2686   1.993   .     S
Cu2539 O2670   1.993   .     S
Cu2539 O2667   1.993   .     S
Cu2539 N2658   2.021   .     S
Cu2539 Cu2540  2.690   .     S
Cu2540 N2659   2.021   .     S
Cu2540 O2666   1.993   .     S
Cu2540 O2671   1.993   .     S
H2544  N2657   1.030   .     S
H2548  C2280   1.099   1_655 S
H2549  C2280   1.098   1_655 S
H2581  N2660   1.030   .     S
H2585  N2661   1.027   .     S
H2589  N2662   1.030   .     S
H2594  N2663   1.029   .     S
H2598  N2664   1.030   .     S
H2603  N2646   1.027   .     S
H2607  N2647   1.030   .     S
H2611  N2648   1.029   .     S
H2616  N2649   1.027   .     S
H2620  N2650   1.030   .     S
H2625  N2651   1.029   .     S
H2629  N2652   1.029   .     S
H2633  N2653   1.027   .     S
H2638  N2654   1.030   .     S
H2642  N2655   1.029   .     S
O2668  Cu2092  1.993   1_565 S
O2669  Cu2092  1.993   1_565 S
O2672  Cu2091  1.993   1_565 S
O2674  C2278   1.409   1_655 S
O2676  Cu2314  1.993   1_655 S
O2677  C2282   1.411   1_655 S
O2677  C2244   1.385   1_655 S
O2682  Cu2313  1.993   1_655 S
O2684  Cu2314  1.993   1_655 S
O2687  Cu2313  1.993   1_655 S
O2688  Cu2091  1.993   1_565 S
