data_str_m2_o10_o18_pcu_sym.53
_audit_creation_date              2020-01-03
_audit_creation_method            'Materials Studio'
_symmetry_space_group_name_H-M    'P1'
_symmetry_Int_Tables_number       1
_symmetry_cell_setting            triclinic
loop_
_symmetry_equiv_pos_as_xyz
  x,y,z
_cell_length_a                    22.2984
_cell_length_b                    26.3237
_cell_length_c                    31.5239
_cell_angle_alpha                 94.1673
_cell_angle_beta                  74.8139
_cell_angle_gamma                 102.7547
loop_
_atom_site_label
_atom_site_type_symbol
_atom_site_fract_x
_atom_site_fract_y
_atom_site_fract_z
_atom_site_U_iso_or_equiv
_atom_site_adp_type
_atom_site_occupancy
C1     C     0.18149   0.26637   0.25070   0.00000  Uiso   1.00
C2     C     0.20554   0.17124   0.16688   0.00000  Uiso   1.00
C3     C     0.10408   0.15597   0.38074   0.00000  Uiso   1.00
C4     C     0.22972   0.18106   0.11972   0.00000  Uiso   1.00
C5     C     0.02895   0.11290   0.44385   0.00000  Uiso   1.00
C6     C     0.30436   0.22988   0.05914   0.00000  Uiso   1.00
C7     C     0.04668   0.12217   0.39893   0.00000  Uiso   1.00
C8     C     0.28669   0.21637   0.10326   0.00000  Uiso   1.00
C9     C     0.14348   0.17975   0.40758   0.00000  Uiso   1.00
C10    C     0.19045   0.16041   0.09200   0.00000  Uiso   1.00
C11    C     0.13165   0.16492   0.45155   0.00000  Uiso   1.00
C12    C     0.15184   0.06696   0.24930   0.00000  Uiso   1.00
C13    C     0.20206   0.18005   0.04959   0.00000  Uiso   1.00
C14    C     0.07093   0.13380   0.47012   0.00000  Uiso   1.00
C15    C     0.26245   0.21189   0.03229   0.00000  Uiso   1.00
C16    C     0.17690   0.18018   0.47774   0.00000  Uiso   1.00
C17    C     0.15657   0.16788   0.02368   0.00000  Uiso   1.00
C18    C     0.09102   0.14550   0.04235   0.00000  Uiso   1.00
C19    C     0.24192   0.20573   0.46022   0.00000  Uiso   1.00
C20    C     0.05102   0.12567   0.01502   0.00000  Uiso   1.00
C21    C     0.28159   0.22394   0.48811   0.00000  Uiso   1.00
C22    C     0.19168   0.32128   0.24560   0.00000  Uiso   1.00
C23    C     0.14165   0.01205   0.25440   0.00000  Uiso   1.00
C24    C     0.12786   0.16260   0.33314   0.00000  Uiso   1.00
Cu25   Cu    0.10737   0.16108   0.24517   0.00000  Uiso   1.00
Cu26   Cu    0.22596   0.17225   0.25483   0.00000  Uiso   1.00
H27    H     0.00248   0.10578   0.02932   0.00000  Uiso   1.00
H28    H     0.06767   0.18502   0.09944   0.00000  Uiso   1.00
H29    H     0.30904   0.19330   0.40553   0.00000  Uiso   1.00
H30    H     0.28783   0.25131   0.40770   0.00000  Uiso   1.00
H31    H     0.27357   0.03785   0.25218   0.00000  Uiso   1.00
H32    H     0.26056   0.03525   0.20027   0.00000  Uiso   1.00
H33    H     0.05976   0.29548   0.24781   0.00000  Uiso   1.00
H34    H     0.07277   0.29808   0.29973   0.00000  Uiso   1.00
H35    H     0.00079   0.20406   0.28497   0.00000  Uiso   1.00
H36    H     0.33255   0.12928   0.21502   0.00000  Uiso   1.00
H37    H     0.32958   0.24536   0.47428   0.00000  Uiso   1.00
H38    H     0.15147   0.12852   0.10441   0.00000  Uiso   1.00
H39    H     0.18168   0.21086   0.39301   0.00000  Uiso   1.00
H40    H     0.31720   0.23353   0.12447   0.00000  Uiso   1.00
H41    H     0.01552   0.10342   0.37859   0.00000  Uiso   1.00
H42    H     0.31625   0.08849   0.45794   0.00000  Uiso   1.00
H43    H     0.01676   0.25534   0.04626   0.00000  Uiso   1.00
H44    H     0.01496   0.12894   0.09694   0.00000  Uiso   1.00
N45    N     0.31506   0.18068   0.26212   0.00000  Uiso   1.00
N46    N     0.01827   0.15265   0.23788   0.00000  Uiso   1.00
N47    N     0.06342   0.14610   0.08901   0.00000  Uiso   1.00
N48    N     0.27045   0.21159   0.41408   0.00000  Uiso   1.00
N49    N     0.25676   0.01403   0.22799   0.00000  Uiso   1.00
N50    N     0.07658   0.31930   0.27201   0.00000  Uiso   1.00
O51    O     0.12815   0.23809   0.24686   0.00000  Uiso   1.00
O52    O     0.20518   0.09524   0.25314   0.00000  Uiso   1.00
O53    O     0.22829   0.24753   0.25502   0.00000  Uiso   1.00
O54    O     0.10504   0.08580   0.24498   0.00000  Uiso   1.00
O55    O     0.08851   0.15930   0.30855   0.00000  Uiso   1.00
O56    O     0.24482   0.17403   0.19145   0.00000  Uiso   1.00
O57    O     0.18866   0.16874   0.31671   0.00000  Uiso   1.00
O58    O     0.14468   0.16460   0.18329   0.00000  Uiso   1.00
C59    C     0.51482   0.26637   0.25070   0.00000  Uiso   1.00
C60    C     0.53887   0.17124   0.16688   0.00000  Uiso   1.00
C61    C     0.43741   0.15597   0.38074   0.00000  Uiso   1.00
C62    C     0.56306   0.18106   0.11972   0.00000  Uiso   1.00
C63    C     0.36228   0.11290   0.44385   0.00000  Uiso   1.00
C64    C     0.63769   0.22988   0.05914   0.00000  Uiso   1.00
C65    C     0.38001   0.12217   0.39893   0.00000  Uiso   1.00
C66    C     0.62002   0.21637   0.10326   0.00000  Uiso   1.00
C67    C     0.47682   0.17975   0.40758   0.00000  Uiso   1.00
C68    C     0.52379   0.16041   0.09200   0.00000  Uiso   1.00
C69    C     0.46499   0.16492   0.45155   0.00000  Uiso   1.00
C70    C     0.48518   0.06696   0.24930   0.00000  Uiso   1.00
C71    C     0.53539   0.18005   0.04959   0.00000  Uiso   1.00
C72    C     0.40427   0.13380   0.47012   0.00000  Uiso   1.00
C73    C     0.59578   0.21189   0.03229   0.00000  Uiso   1.00
C74    C     0.51023   0.18018   0.47774   0.00000  Uiso   1.00
C75    C     0.48990   0.16788   0.02368   0.00000  Uiso   1.00
C76    C     0.42436   0.14550   0.04235   0.00000  Uiso   1.00
C77    C     0.57525   0.20573   0.46022   0.00000  Uiso   1.00
C78    C     0.38435   0.12567   0.01502   0.00000  Uiso   1.00
C79    C     0.61492   0.22394   0.48811   0.00000  Uiso   1.00
C80    C     0.52501   0.32128   0.24560   0.00000  Uiso   1.00
C81    C     0.47499   0.01205   0.25440   0.00000  Uiso   1.00
C82    C     0.46120   0.16260   0.33314   0.00000  Uiso   1.00
Cu83   Cu    0.44071   0.16108   0.24517   0.00000  Uiso   1.00
Cu84   Cu    0.55929   0.17225   0.25483   0.00000  Uiso   1.00
H85    H     0.33582   0.10578   0.02932   0.00000  Uiso   1.00
H86    H     0.40100   0.18502   0.09944   0.00000  Uiso   1.00
H87    H     0.64237   0.19330   0.40553   0.00000  Uiso   1.00
H88    H     0.62117   0.25131   0.40770   0.00000  Uiso   1.00
H89    H     0.60690   0.03785   0.25218   0.00000  Uiso   1.00
H90    H     0.59389   0.03525   0.20027   0.00000  Uiso   1.00
H91    H     0.39310   0.29548   0.24781   0.00000  Uiso   1.00
H92    H     0.40610   0.29808   0.29973   0.00000  Uiso   1.00
H93    H     0.33412   0.20406   0.28497   0.00000  Uiso   1.00
H94    H     0.66589   0.12928   0.21502   0.00000  Uiso   1.00
H95    H     0.66291   0.24536   0.47428   0.00000  Uiso   1.00
H96    H     0.48480   0.12852   0.10441   0.00000  Uiso   1.00
H97    H     0.51502   0.21086   0.39301   0.00000  Uiso   1.00
H98    H     0.65054   0.23353   0.12447   0.00000  Uiso   1.00
H99    H     0.34886   0.10342   0.37859   0.00000  Uiso   1.00
H100   H     0.64959   0.08849   0.45794   0.00000  Uiso   1.00
H101   H     0.35010   0.25534   0.04626   0.00000  Uiso   1.00
H102   H     0.34829   0.12894   0.09694   0.00000  Uiso   1.00
N103   N     0.64839   0.18068   0.26212   0.00000  Uiso   1.00
N104   N     0.35161   0.15265   0.23788   0.00000  Uiso   1.00
N105   N     0.39675   0.14610   0.08901   0.00000  Uiso   1.00
N106   N     0.60378   0.21159   0.41408   0.00000  Uiso   1.00
N107   N     0.59009   0.01403   0.22799   0.00000  Uiso   1.00
N108   N     0.40991   0.31930   0.27201   0.00000  Uiso   1.00
O109   O     0.46148   0.23809   0.24686   0.00000  Uiso   1.00
O110   O     0.53852   0.09524   0.25314   0.00000  Uiso   1.00
O111   O     0.56163   0.24753   0.25502   0.00000  Uiso   1.00
O112   O     0.43837   0.08580   0.24498   0.00000  Uiso   1.00
O113   O     0.42185   0.15930   0.30855   0.00000  Uiso   1.00
O114   O     0.57815   0.17403   0.19145   0.00000  Uiso   1.00
O115   O     0.52199   0.16874   0.31671   0.00000  Uiso   1.00
O116   O     0.47801   0.16460   0.18329   0.00000  Uiso   1.00
C117   C     0.84816   0.26637   0.25070   0.00000  Uiso   1.00
C118   C     0.87221   0.17124   0.16688   0.00000  Uiso   1.00
C119   C     0.77074   0.15597   0.38074   0.00000  Uiso   1.00
C120   C     0.89639   0.18106   0.11972   0.00000  Uiso   1.00
C121   C     0.69562   0.11290   0.44385   0.00000  Uiso   1.00
C122   C     0.97103   0.22988   0.05914   0.00000  Uiso   1.00
C123   C     0.71334   0.12217   0.39893   0.00000  Uiso   1.00
C124   C     0.95335   0.21637   0.10326   0.00000  Uiso   1.00
C125   C     0.81015   0.17975   0.40758   0.00000  Uiso   1.00
C126   C     0.85712   0.16041   0.09200   0.00000  Uiso   1.00
C127   C     0.79832   0.16492   0.45155   0.00000  Uiso   1.00
C128   C     0.81851   0.06696   0.24930   0.00000  Uiso   1.00
C129   C     0.86873   0.18005   0.04959   0.00000  Uiso   1.00
C130   C     0.73760   0.13380   0.47012   0.00000  Uiso   1.00
C131   C     0.92911   0.21189   0.03229   0.00000  Uiso   1.00
C132   C     0.84357   0.18018   0.47774   0.00000  Uiso   1.00
C133   C     0.82323   0.16788   0.02368   0.00000  Uiso   1.00
C134   C     0.75769   0.14550   0.04235   0.00000  Uiso   1.00
C135   C     0.90859   0.20573   0.46022   0.00000  Uiso   1.00
C136   C     0.71769   0.12567   0.01502   0.00000  Uiso   1.00
C137   C     0.94826   0.22394   0.48811   0.00000  Uiso   1.00
C138   C     0.85835   0.32128   0.24560   0.00000  Uiso   1.00
C139   C     0.80832   0.01205   0.25440   0.00000  Uiso   1.00
C140   C     0.79453   0.16260   0.33314   0.00000  Uiso   1.00
Cu141  Cu    0.77404   0.16108   0.24517   0.00000  Uiso   1.00
Cu142  Cu    0.89263   0.17225   0.25483   0.00000  Uiso   1.00
H143   H     0.66915   0.10578   0.02932   0.00000  Uiso   1.00
H144   H     0.73433   0.18502   0.09944   0.00000  Uiso   1.00
H145   H     0.97570   0.19330   0.40553   0.00000  Uiso   1.00
H146   H     0.95450   0.25131   0.40770   0.00000  Uiso   1.00
H147   H     0.94024   0.03785   0.25218   0.00000  Uiso   1.00
H148   H     0.92723   0.03525   0.20027   0.00000  Uiso   1.00
H149   H     0.72643   0.29548   0.24781   0.00000  Uiso   1.00
H150   H     0.73943   0.29808   0.29973   0.00000  Uiso   1.00
H151   H     0.66745   0.20406   0.28497   0.00000  Uiso   1.00
H152   H     0.99922   0.12928   0.21502   0.00000  Uiso   1.00
H153   H     0.99625   0.24536   0.47428   0.00000  Uiso   1.00
H154   H     0.81814   0.12852   0.10441   0.00000  Uiso   1.00
H155   H     0.84835   0.21086   0.39301   0.00000  Uiso   1.00
H156   H     0.98387   0.23353   0.12447   0.00000  Uiso   1.00
H157   H     0.68219   0.10342   0.37859   0.00000  Uiso   1.00
H158   H     0.98292   0.08849   0.45794   0.00000  Uiso   1.00
H159   H     0.68343   0.25534   0.04626   0.00000  Uiso   1.00
H160   H     0.68162   0.12894   0.09694   0.00000  Uiso   1.00
N161   N     0.98173   0.18068   0.26212   0.00000  Uiso   1.00
N162   N     0.68494   0.15265   0.23788   0.00000  Uiso   1.00
N163   N     0.73008   0.14610   0.08901   0.00000  Uiso   1.00
N164   N     0.93711   0.21159   0.41408   0.00000  Uiso   1.00
N165   N     0.92342   0.01403   0.22799   0.00000  Uiso   1.00
N166   N     0.74324   0.31930   0.27201   0.00000  Uiso   1.00
O167   O     0.79482   0.23809   0.24686   0.00000  Uiso   1.00
O168   O     0.87185   0.09524   0.25314   0.00000  Uiso   1.00
O169   O     0.89496   0.24753   0.25502   0.00000  Uiso   1.00
O170   O     0.77171   0.08580   0.24498   0.00000  Uiso   1.00
O171   O     0.75518   0.15930   0.30855   0.00000  Uiso   1.00
O172   O     0.91149   0.17403   0.19145   0.00000  Uiso   1.00
O173   O     0.85532   0.16874   0.31671   0.00000  Uiso   1.00
O174   O     0.81134   0.16460   0.18329   0.00000  Uiso   1.00
C175   C     0.18149   0.59970   0.25070   0.00000  Uiso   1.00
C176   C     0.20554   0.50457   0.16688   0.00000  Uiso   1.00
C177   C     0.10408   0.48931   0.38074   0.00000  Uiso   1.00
C178   C     0.22972   0.51439   0.11972   0.00000  Uiso   1.00
C179   C     0.02895   0.44624   0.44385   0.00000  Uiso   1.00
C180   C     0.30436   0.56321   0.05914   0.00000  Uiso   1.00
C181   C     0.04668   0.45551   0.39893   0.00000  Uiso   1.00
C182   C     0.28669   0.54970   0.10326   0.00000  Uiso   1.00
C183   C     0.14348   0.51309   0.40758   0.00000  Uiso   1.00
C184   C     0.19045   0.49375   0.09200   0.00000  Uiso   1.00
C185   C     0.13165   0.49825   0.45155   0.00000  Uiso   1.00
C186   C     0.15184   0.40030   0.24930   0.00000  Uiso   1.00
C187   C     0.20206   0.51338   0.04959   0.00000  Uiso   1.00
C188   C     0.07093   0.46713   0.47012   0.00000  Uiso   1.00
C189   C     0.26245   0.54523   0.03229   0.00000  Uiso   1.00
C190   C     0.17690   0.51351   0.47774   0.00000  Uiso   1.00
C191   C     0.15657   0.50121   0.02368   0.00000  Uiso   1.00
C192   C     0.09102   0.47884   0.04235   0.00000  Uiso   1.00
C193   C     0.24192   0.53906   0.46022   0.00000  Uiso   1.00
C194   C     0.05102   0.45901   0.01502   0.00000  Uiso   1.00
C195   C     0.28159   0.55727   0.48811   0.00000  Uiso   1.00
C196   C     0.19168   0.65461   0.24560   0.00000  Uiso   1.00
C197   C     0.14165   0.34538   0.25440   0.00000  Uiso   1.00
C198   C     0.12786   0.49593   0.33314   0.00000  Uiso   1.00
Cu199  Cu    0.10737   0.49441   0.24517   0.00000  Uiso   1.00
Cu200  Cu    0.22596   0.50559   0.25483   0.00000  Uiso   1.00
H201   H     0.00248   0.43912   0.02932   0.00000  Uiso   1.00
H202   H     0.06767   0.51836   0.09944   0.00000  Uiso   1.00
H203   H     0.30904   0.52663   0.40553   0.00000  Uiso   1.00
H204   H     0.28783   0.58464   0.40770   0.00000  Uiso   1.00
H205   H     0.27357   0.37118   0.25218   0.00000  Uiso   1.00
H206   H     0.26056   0.36858   0.20027   0.00000  Uiso   1.00
H207   H     0.05976   0.62881   0.24781   0.00000  Uiso   1.00
H208   H     0.07277   0.63141   0.29973   0.00000  Uiso   1.00
H209   H     0.00079   0.53740   0.28497   0.00000  Uiso   1.00
H210   H     0.33255   0.46261   0.21502   0.00000  Uiso   1.00
H211   H     0.32958   0.57869   0.47428   0.00000  Uiso   1.00
H212   H     0.15147   0.46186   0.10441   0.00000  Uiso   1.00
H213   H     0.18168   0.54420   0.39301   0.00000  Uiso   1.00
H214   H     0.31720   0.56687   0.12447   0.00000  Uiso   1.00
H215   H     0.01552   0.43675   0.37859   0.00000  Uiso   1.00
H216   H     0.31625   0.42183   0.45794   0.00000  Uiso   1.00
H217   H     0.01676   0.58867   0.04626   0.00000  Uiso   1.00
H218   H     0.01496   0.46227   0.09694   0.00000  Uiso   1.00
N219   N     0.31506   0.51401   0.26212   0.00000  Uiso   1.00
N220   N     0.01827   0.48599   0.23788   0.00000  Uiso   1.00
N221   N     0.06342   0.47943   0.08901   0.00000  Uiso   1.00
N222   N     0.27045   0.54492   0.41408   0.00000  Uiso   1.00
N223   N     0.25676   0.34736   0.22799   0.00000  Uiso   1.00
N224   N     0.07658   0.65263   0.27201   0.00000  Uiso   1.00
O225   O     0.12815   0.57142   0.24686   0.00000  Uiso   1.00
O226   O     0.20518   0.42858   0.25314   0.00000  Uiso   1.00
O227   O     0.22829   0.58086   0.25502   0.00000  Uiso   1.00
O228   O     0.10504   0.41914   0.24498   0.00000  Uiso   1.00
O229   O     0.08851   0.49263   0.30855   0.00000  Uiso   1.00
O230   O     0.24482   0.50737   0.19145   0.00000  Uiso   1.00
O231   O     0.18866   0.50207   0.31671   0.00000  Uiso   1.00
O232   O     0.14468   0.49793   0.18329   0.00000  Uiso   1.00
C233   C     0.51482   0.59970   0.25070   0.00000  Uiso   1.00
C234   C     0.53887   0.50457   0.16688   0.00000  Uiso   1.00
C235   C     0.43741   0.48931   0.38074   0.00000  Uiso   1.00
C236   C     0.56306   0.51439   0.11972   0.00000  Uiso   1.00
C237   C     0.36228   0.44624   0.44385   0.00000  Uiso   1.00
C238   C     0.63769   0.56321   0.05914   0.00000  Uiso   1.00
C239   C     0.38001   0.45551   0.39893   0.00000  Uiso   1.00
C240   C     0.62002   0.54970   0.10326   0.00000  Uiso   1.00
C241   C     0.47682   0.51309   0.40758   0.00000  Uiso   1.00
C242   C     0.52379   0.49375   0.09200   0.00000  Uiso   1.00
C243   C     0.46499   0.49825   0.45155   0.00000  Uiso   1.00
C244   C     0.48518   0.40030   0.24930   0.00000  Uiso   1.00
C245   C     0.53539   0.51338   0.04959   0.00000  Uiso   1.00
C246   C     0.40427   0.46713   0.47012   0.00000  Uiso   1.00
C247   C     0.59578   0.54523   0.03229   0.00000  Uiso   1.00
C248   C     0.51023   0.51351   0.47774   0.00000  Uiso   1.00
C249   C     0.48990   0.50121   0.02368   0.00000  Uiso   1.00
C250   C     0.42436   0.47884   0.04235   0.00000  Uiso   1.00
C251   C     0.57525   0.53906   0.46022   0.00000  Uiso   1.00
C252   C     0.38435   0.45901   0.01502   0.00000  Uiso   1.00
C253   C     0.61492   0.55727   0.48811   0.00000  Uiso   1.00
C254   C     0.52501   0.65461   0.24560   0.00000  Uiso   1.00
C255   C     0.47499   0.34538   0.25440   0.00000  Uiso   1.00
C256   C     0.46120   0.49593   0.33314   0.00000  Uiso   1.00
Cu257  Cu    0.44071   0.49441   0.24517   0.00000  Uiso   1.00
Cu258  Cu    0.55929   0.50559   0.25483   0.00000  Uiso   1.00
H259   H     0.33582   0.43912   0.02932   0.00000  Uiso   1.00
H260   H     0.40100   0.51836   0.09944   0.00000  Uiso   1.00
H261   H     0.64237   0.52663   0.40553   0.00000  Uiso   1.00
H262   H     0.62117   0.58464   0.40770   0.00000  Uiso   1.00
H263   H     0.60690   0.37118   0.25218   0.00000  Uiso   1.00
H264   H     0.59389   0.36858   0.20027   0.00000  Uiso   1.00
H265   H     0.39310   0.62881   0.24781   0.00000  Uiso   1.00
H266   H     0.40610   0.63141   0.29973   0.00000  Uiso   1.00
H267   H     0.33412   0.53740   0.28497   0.00000  Uiso   1.00
H268   H     0.66589   0.46261   0.21502   0.00000  Uiso   1.00
H269   H     0.66291   0.57869   0.47428   0.00000  Uiso   1.00
H270   H     0.48480   0.46186   0.10441   0.00000  Uiso   1.00
H271   H     0.51502   0.54420   0.39301   0.00000  Uiso   1.00
H272   H     0.65054   0.56687   0.12447   0.00000  Uiso   1.00
H273   H     0.34886   0.43675   0.37859   0.00000  Uiso   1.00
H274   H     0.64959   0.42183   0.45794   0.00000  Uiso   1.00
H275   H     0.35010   0.58867   0.04626   0.00000  Uiso   1.00
H276   H     0.34829   0.46227   0.09694   0.00000  Uiso   1.00
N277   N     0.64839   0.51401   0.26212   0.00000  Uiso   1.00
N278   N     0.35161   0.48599   0.23788   0.00000  Uiso   1.00
N279   N     0.39675   0.47943   0.08901   0.00000  Uiso   1.00
N280   N     0.60378   0.54492   0.41408   0.00000  Uiso   1.00
N281   N     0.59009   0.34736   0.22799   0.00000  Uiso   1.00
N282   N     0.40991   0.65263   0.27201   0.00000  Uiso   1.00
O283   O     0.46148   0.57142   0.24686   0.00000  Uiso   1.00
O284   O     0.53852   0.42858   0.25314   0.00000  Uiso   1.00
O285   O     0.56163   0.58086   0.25502   0.00000  Uiso   1.00
O286   O     0.43837   0.41914   0.24498   0.00000  Uiso   1.00
O287   O     0.42185   0.49263   0.30855   0.00000  Uiso   1.00
O288   O     0.57815   0.50737   0.19145   0.00000  Uiso   1.00
O289   O     0.52199   0.50207   0.31671   0.00000  Uiso   1.00
O290   O     0.47801   0.49793   0.18329   0.00000  Uiso   1.00
C291   C     0.84816   0.59970   0.25070   0.00000  Uiso   1.00
C292   C     0.87221   0.50457   0.16688   0.00000  Uiso   1.00
C293   C     0.77074   0.48931   0.38074   0.00000  Uiso   1.00
C294   C     0.89639   0.51439   0.11972   0.00000  Uiso   1.00
C295   C     0.69562   0.44624   0.44385   0.00000  Uiso   1.00
C296   C     0.97103   0.56321   0.05914   0.00000  Uiso   1.00
C297   C     0.71334   0.45551   0.39893   0.00000  Uiso   1.00
C298   C     0.95335   0.54970   0.10326   0.00000  Uiso   1.00
C299   C     0.81015   0.51309   0.40758   0.00000  Uiso   1.00
C300   C     0.85712   0.49375   0.09200   0.00000  Uiso   1.00
C301   C     0.79832   0.49825   0.45155   0.00000  Uiso   1.00
C302   C     0.81851   0.40030   0.24930   0.00000  Uiso   1.00
C303   C     0.86873   0.51338   0.04959   0.00000  Uiso   1.00
C304   C     0.73760   0.46713   0.47012   0.00000  Uiso   1.00
C305   C     0.92911   0.54523   0.03229   0.00000  Uiso   1.00
C306   C     0.84357   0.51351   0.47774   0.00000  Uiso   1.00
C307   C     0.82323   0.50121   0.02368   0.00000  Uiso   1.00
C308   C     0.75769   0.47884   0.04235   0.00000  Uiso   1.00
C309   C     0.90859   0.53906   0.46022   0.00000  Uiso   1.00
C310   C     0.71769   0.45901   0.01502   0.00000  Uiso   1.00
C311   C     0.94826   0.55727   0.48811   0.00000  Uiso   1.00
C312   C     0.85835   0.65461   0.24560   0.00000  Uiso   1.00
C313   C     0.80832   0.34538   0.25440   0.00000  Uiso   1.00
C314   C     0.79453   0.49593   0.33314   0.00000  Uiso   1.00
Cu315  Cu    0.77404   0.49441   0.24517   0.00000  Uiso   1.00
Cu316  Cu    0.89263   0.50559   0.25483   0.00000  Uiso   1.00
H317   H     0.66915   0.43912   0.02932   0.00000  Uiso   1.00
H318   H     0.73433   0.51836   0.09944   0.00000  Uiso   1.00
H319   H     0.97570   0.52663   0.40553   0.00000  Uiso   1.00
H320   H     0.95450   0.58464   0.40770   0.00000  Uiso   1.00
H321   H     0.94024   0.37118   0.25218   0.00000  Uiso   1.00
H322   H     0.92723   0.36858   0.20027   0.00000  Uiso   1.00
H323   H     0.72643   0.62881   0.24781   0.00000  Uiso   1.00
H324   H     0.73943   0.63141   0.29973   0.00000  Uiso   1.00
H325   H     0.66745   0.53740   0.28497   0.00000  Uiso   1.00
H326   H     0.99922   0.46261   0.21502   0.00000  Uiso   1.00
H327   H     0.99625   0.57869   0.47428   0.00000  Uiso   1.00
H328   H     0.81814   0.46186   0.10441   0.00000  Uiso   1.00
H329   H     0.84835   0.54420   0.39301   0.00000  Uiso   1.00
H330   H     0.98387   0.56687   0.12447   0.00000  Uiso   1.00
H331   H     0.68219   0.43675   0.37859   0.00000  Uiso   1.00
H332   H     0.98292   0.42183   0.45794   0.00000  Uiso   1.00
H333   H     0.68343   0.58867   0.04626   0.00000  Uiso   1.00
H334   H     0.68162   0.46227   0.09694   0.00000  Uiso   1.00
N335   N     0.98173   0.51401   0.26212   0.00000  Uiso   1.00
N336   N     0.68494   0.48599   0.23788   0.00000  Uiso   1.00
N337   N     0.73008   0.47943   0.08901   0.00000  Uiso   1.00
N338   N     0.93711   0.54492   0.41408   0.00000  Uiso   1.00
N339   N     0.92342   0.34736   0.22799   0.00000  Uiso   1.00
N340   N     0.74324   0.65263   0.27201   0.00000  Uiso   1.00
O341   O     0.79482   0.57142   0.24686   0.00000  Uiso   1.00
O342   O     0.87185   0.42858   0.25314   0.00000  Uiso   1.00
O343   O     0.89496   0.58086   0.25502   0.00000  Uiso   1.00
O344   O     0.77171   0.41914   0.24498   0.00000  Uiso   1.00
O345   O     0.75518   0.49263   0.30855   0.00000  Uiso   1.00
O346   O     0.91149   0.50737   0.19145   0.00000  Uiso   1.00
O347   O     0.85532   0.50207   0.31671   0.00000  Uiso   1.00
O348   O     0.81134   0.49793   0.18329   0.00000  Uiso   1.00
C349   C     0.18149   0.93304   0.25070   0.00000  Uiso   1.00
C350   C     0.20554   0.83790   0.16688   0.00000  Uiso   1.00
C351   C     0.10408   0.82264   0.38074   0.00000  Uiso   1.00
C352   C     0.22972   0.84772   0.11972   0.00000  Uiso   1.00
C353   C     0.02895   0.77957   0.44385   0.00000  Uiso   1.00
C354   C     0.30436   0.89654   0.05914   0.00000  Uiso   1.00
C355   C     0.04668   0.78884   0.39893   0.00000  Uiso   1.00
C356   C     0.28669   0.88304   0.10326   0.00000  Uiso   1.00
C357   C     0.14348   0.84642   0.40758   0.00000  Uiso   1.00
C358   C     0.19045   0.82708   0.09200   0.00000  Uiso   1.00
C359   C     0.13165   0.83158   0.45155   0.00000  Uiso   1.00
C360   C     0.15184   0.73363   0.24930   0.00000  Uiso   1.00
C361   C     0.20206   0.84671   0.04959   0.00000  Uiso   1.00
C362   C     0.07093   0.80046   0.47012   0.00000  Uiso   1.00
C363   C     0.26245   0.87856   0.03229   0.00000  Uiso   1.00
C364   C     0.17690   0.84684   0.47774   0.00000  Uiso   1.00
C365   C     0.15657   0.83454   0.02368   0.00000  Uiso   1.00
C366   C     0.09102   0.81217   0.04235   0.00000  Uiso   1.00
C367   C     0.24192   0.87239   0.46022   0.00000  Uiso   1.00
C368   C     0.05102   0.79234   0.01502   0.00000  Uiso   1.00
C369   C     0.28159   0.89061   0.48811   0.00000  Uiso   1.00
C370   C     0.19168   0.98795   0.24560   0.00000  Uiso   1.00
C371   C     0.14165   0.67872   0.25440   0.00000  Uiso   1.00
C372   C     0.12786   0.82926   0.33314   0.00000  Uiso   1.00
Cu373  Cu    0.10737   0.82775   0.24517   0.00000  Uiso   1.00
Cu374  Cu    0.22596   0.83892   0.25483   0.00000  Uiso   1.00
H375   H     0.00248   0.77245   0.02932   0.00000  Uiso   1.00
H376   H     0.06767   0.85169   0.09944   0.00000  Uiso   1.00
H377   H     0.30904   0.85996   0.40553   0.00000  Uiso   1.00
H378   H     0.28783   0.91797   0.40770   0.00000  Uiso   1.00
H379   H     0.27357   0.70452   0.25218   0.00000  Uiso   1.00
H380   H     0.26056   0.70192   0.20027   0.00000  Uiso   1.00
H381   H     0.05976   0.96215   0.24781   0.00000  Uiso   1.00
H382   H     0.07277   0.96474   0.29973   0.00000  Uiso   1.00
H383   H     0.00079   0.87073   0.28497   0.00000  Uiso   1.00
H384   H     0.33255   0.79595   0.21502   0.00000  Uiso   1.00
H385   H     0.32958   0.91202   0.47428   0.00000  Uiso   1.00
H386   H     0.15147   0.79519   0.10441   0.00000  Uiso   1.00
H387   H     0.18168   0.87753   0.39301   0.00000  Uiso   1.00
H388   H     0.31720   0.90020   0.12447   0.00000  Uiso   1.00
H389   H     0.01552   0.77009   0.37859   0.00000  Uiso   1.00
H390   H     0.31625   0.75516   0.45794   0.00000  Uiso   1.00
H391   H     0.01676   0.92200   0.04626   0.00000  Uiso   1.00
H392   H     0.01496   0.79560   0.09694   0.00000  Uiso   1.00
N393   N     0.31506   0.84735   0.26212   0.00000  Uiso   1.00
N394   N     0.01827   0.81932   0.23788   0.00000  Uiso   1.00
N395   N     0.06342   0.81276   0.08901   0.00000  Uiso   1.00
N396   N     0.27045   0.87826   0.41408   0.00000  Uiso   1.00
N397   N     0.25676   0.68070   0.22799   0.00000  Uiso   1.00
N398   N     0.07658   0.98597   0.27201   0.00000  Uiso   1.00
O399   O     0.12815   0.90476   0.24686   0.00000  Uiso   1.00
O400   O     0.20518   0.76191   0.25314   0.00000  Uiso   1.00
O401   O     0.22829   0.91420   0.25502   0.00000  Uiso   1.00
O402   O     0.10504   0.75247   0.24498   0.00000  Uiso   1.00
O403   O     0.08851   0.82597   0.30855   0.00000  Uiso   1.00
O404   O     0.24482   0.84070   0.19145   0.00000  Uiso   1.00
O405   O     0.18866   0.83540   0.31671   0.00000  Uiso   1.00
O406   O     0.14468   0.83126   0.18329   0.00000  Uiso   1.00
C407   C     0.51482   0.93304   0.25070   0.00000  Uiso   1.00
C408   C     0.53887   0.83790   0.16688   0.00000  Uiso   1.00
C409   C     0.43741   0.82264   0.38074   0.00000  Uiso   1.00
C410   C     0.56306   0.84772   0.11972   0.00000  Uiso   1.00
C411   C     0.36228   0.77957   0.44385   0.00000  Uiso   1.00
C412   C     0.63769   0.89654   0.05914   0.00000  Uiso   1.00
C413   C     0.38001   0.78884   0.39893   0.00000  Uiso   1.00
C414   C     0.62002   0.88304   0.10326   0.00000  Uiso   1.00
C415   C     0.47682   0.84642   0.40758   0.00000  Uiso   1.00
C416   C     0.52379   0.82708   0.09200   0.00000  Uiso   1.00
C417   C     0.46499   0.83158   0.45155   0.00000  Uiso   1.00
C418   C     0.48518   0.73363   0.24930   0.00000  Uiso   1.00
C419   C     0.53539   0.84671   0.04959   0.00000  Uiso   1.00
C420   C     0.40427   0.80046   0.47012   0.00000  Uiso   1.00
C421   C     0.59578   0.87856   0.03229   0.00000  Uiso   1.00
C422   C     0.51023   0.84684   0.47774   0.00000  Uiso   1.00
C423   C     0.48990   0.83454   0.02368   0.00000  Uiso   1.00
C424   C     0.42436   0.81217   0.04235   0.00000  Uiso   1.00
C425   C     0.57525   0.87239   0.46022   0.00000  Uiso   1.00
C426   C     0.38435   0.79234   0.01502   0.00000  Uiso   1.00
C427   C     0.61492   0.89061   0.48811   0.00000  Uiso   1.00
C428   C     0.52501   0.98795   0.24560   0.00000  Uiso   1.00
C429   C     0.47499   0.67872   0.25440   0.00000  Uiso   1.00
C430   C     0.46120   0.82926   0.33314   0.00000  Uiso   1.00
Cu431  Cu    0.44071   0.82775   0.24517   0.00000  Uiso   1.00
Cu432  Cu    0.55929   0.83892   0.25483   0.00000  Uiso   1.00
H433   H     0.33582   0.77245   0.02932   0.00000  Uiso   1.00
H434   H     0.40100   0.85169   0.09944   0.00000  Uiso   1.00
H435   H     0.64237   0.85996   0.40553   0.00000  Uiso   1.00
H436   H     0.62117   0.91797   0.40770   0.00000  Uiso   1.00
H437   H     0.60690   0.70452   0.25218   0.00000  Uiso   1.00
H438   H     0.59389   0.70192   0.20027   0.00000  Uiso   1.00
H439   H     0.39310   0.96215   0.24781   0.00000  Uiso   1.00
H440   H     0.40610   0.96474   0.29973   0.00000  Uiso   1.00
H441   H     0.33412   0.87073   0.28497   0.00000  Uiso   1.00
H442   H     0.66589   0.79595   0.21502   0.00000  Uiso   1.00
H443   H     0.66291   0.91202   0.47428   0.00000  Uiso   1.00
H444   H     0.48480   0.79519   0.10441   0.00000  Uiso   1.00
H445   H     0.51502   0.87753   0.39301   0.00000  Uiso   1.00
H446   H     0.65054   0.90020   0.12447   0.00000  Uiso   1.00
H447   H     0.34886   0.77009   0.37859   0.00000  Uiso   1.00
H448   H     0.64959   0.75516   0.45794   0.00000  Uiso   1.00
H449   H     0.35010   0.92200   0.04626   0.00000  Uiso   1.00
H450   H     0.34829   0.79560   0.09694   0.00000  Uiso   1.00
N451   N     0.64839   0.84735   0.26212   0.00000  Uiso   1.00
N452   N     0.35161   0.81932   0.23788   0.00000  Uiso   1.00
N453   N     0.39675   0.81276   0.08901   0.00000  Uiso   1.00
N454   N     0.60378   0.87826   0.41408   0.00000  Uiso   1.00
N455   N     0.59009   0.68070   0.22799   0.00000  Uiso   1.00
N456   N     0.40991   0.98597   0.27201   0.00000  Uiso   1.00
O457   O     0.46148   0.90476   0.24686   0.00000  Uiso   1.00
O458   O     0.53852   0.76191   0.25314   0.00000  Uiso   1.00
O459   O     0.56163   0.91420   0.25502   0.00000  Uiso   1.00
O460   O     0.43837   0.75247   0.24498   0.00000  Uiso   1.00
O461   O     0.42185   0.82597   0.30855   0.00000  Uiso   1.00
O462   O     0.57815   0.84070   0.19145   0.00000  Uiso   1.00
O463   O     0.52199   0.83540   0.31671   0.00000  Uiso   1.00
O464   O     0.47801   0.83126   0.18329   0.00000  Uiso   1.00
C465   C     0.84816   0.93304   0.25070   0.00000  Uiso   1.00
C466   C     0.87221   0.83790   0.16688   0.00000  Uiso   1.00
C467   C     0.77074   0.82264   0.38074   0.00000  Uiso   1.00
C468   C     0.89639   0.84772   0.11972   0.00000  Uiso   1.00
C469   C     0.69562   0.77957   0.44385   0.00000  Uiso   1.00
C470   C     0.97103   0.89654   0.05914   0.00000  Uiso   1.00
C471   C     0.71334   0.78884   0.39893   0.00000  Uiso   1.00
C472   C     0.95335   0.88304   0.10326   0.00000  Uiso   1.00
C473   C     0.81015   0.84642   0.40758   0.00000  Uiso   1.00
C474   C     0.85712   0.82708   0.09200   0.00000  Uiso   1.00
C475   C     0.79832   0.83158   0.45155   0.00000  Uiso   1.00
C476   C     0.81851   0.73363   0.24930   0.00000  Uiso   1.00
C477   C     0.86873   0.84671   0.04959   0.00000  Uiso   1.00
C478   C     0.73760   0.80046   0.47012   0.00000  Uiso   1.00
C479   C     0.92911   0.87856   0.03229   0.00000  Uiso   1.00
C480   C     0.84357   0.84684   0.47774   0.00000  Uiso   1.00
C481   C     0.82323   0.83454   0.02368   0.00000  Uiso   1.00
C482   C     0.75769   0.81217   0.04235   0.00000  Uiso   1.00
C483   C     0.90859   0.87239   0.46022   0.00000  Uiso   1.00
C484   C     0.71769   0.79234   0.01502   0.00000  Uiso   1.00
C485   C     0.94826   0.89061   0.48811   0.00000  Uiso   1.00
C486   C     0.85835   0.98795   0.24560   0.00000  Uiso   1.00
C487   C     0.80832   0.67872   0.25440   0.00000  Uiso   1.00
C488   C     0.79453   0.82926   0.33314   0.00000  Uiso   1.00
Cu489  Cu    0.77404   0.82775   0.24517   0.00000  Uiso   1.00
Cu490  Cu    0.89263   0.83892   0.25483   0.00000  Uiso   1.00
H491   H     0.66915   0.77245   0.02932   0.00000  Uiso   1.00
H492   H     0.73433   0.85169   0.09944   0.00000  Uiso   1.00
H493   H     0.97570   0.85996   0.40553   0.00000  Uiso   1.00
H494   H     0.95450   0.91797   0.40770   0.00000  Uiso   1.00
H495   H     0.94024   0.70452   0.25218   0.00000  Uiso   1.00
H496   H     0.92723   0.70192   0.20027   0.00000  Uiso   1.00
H497   H     0.72643   0.96215   0.24781   0.00000  Uiso   1.00
H498   H     0.73943   0.96474   0.29973   0.00000  Uiso   1.00
H499   H     0.66745   0.87073   0.28497   0.00000  Uiso   1.00
H500   H     0.99922   0.79595   0.21502   0.00000  Uiso   1.00
H501   H     0.99625   0.91202   0.47428   0.00000  Uiso   1.00
H502   H     0.81814   0.79519   0.10441   0.00000  Uiso   1.00
H503   H     0.84835   0.87753   0.39301   0.00000  Uiso   1.00
H504   H     0.98387   0.90020   0.12447   0.00000  Uiso   1.00
H505   H     0.68219   0.77009   0.37859   0.00000  Uiso   1.00
H506   H     0.98292   0.75516   0.45794   0.00000  Uiso   1.00
H507   H     0.68343   0.92200   0.04626   0.00000  Uiso   1.00
H508   H     0.68162   0.79560   0.09694   0.00000  Uiso   1.00
N509   N     0.98173   0.84735   0.26212   0.00000  Uiso   1.00
N510   N     0.68494   0.81932   0.23788   0.00000  Uiso   1.00
N511   N     0.73008   0.81276   0.08901   0.00000  Uiso   1.00
N512   N     0.93711   0.87826   0.41408   0.00000  Uiso   1.00
N513   N     0.92342   0.68070   0.22799   0.00000  Uiso   1.00
N514   N     0.74324   0.98597   0.27201   0.00000  Uiso   1.00
O515   O     0.79482   0.90476   0.24686   0.00000  Uiso   1.00
O516   O     0.87185   0.76191   0.25314   0.00000  Uiso   1.00
O517   O     0.89496   0.91420   0.25502   0.00000  Uiso   1.00
O518   O     0.77171   0.75247   0.24498   0.00000  Uiso   1.00
O519   O     0.75518   0.82597   0.30855   0.00000  Uiso   1.00
O520   O     0.91149   0.84070   0.19145   0.00000  Uiso   1.00
O521   O     0.85532   0.83540   0.31671   0.00000  Uiso   1.00
O522   O     0.81134   0.83126   0.18329   0.00000  Uiso   1.00
C523   C     0.18149   0.26637   0.75070   0.00000  Uiso   1.00
C524   C     0.20554   0.17124   0.66688   0.00000  Uiso   1.00
C525   C     0.10408   0.15597   0.88074   0.00000  Uiso   1.00
C526   C     0.22972   0.18106   0.61972   0.00000  Uiso   1.00
C527   C     0.02895   0.11290   0.94385   0.00000  Uiso   1.00
C528   C     0.30436   0.22988   0.55914   0.00000  Uiso   1.00
C529   C     0.04668   0.12217   0.89893   0.00000  Uiso   1.00
C530   C     0.28669   0.21637   0.60326   0.00000  Uiso   1.00
C531   C     0.14348   0.17975   0.90758   0.00000  Uiso   1.00
C532   C     0.19045   0.16041   0.59200   0.00000  Uiso   1.00
C533   C     0.13165   0.16492   0.95155   0.00000  Uiso   1.00
C534   C     0.15184   0.06696   0.74930   0.00000  Uiso   1.00
C535   C     0.20206   0.18005   0.54959   0.00000  Uiso   1.00
C536   C     0.07093   0.13380   0.97012   0.00000  Uiso   1.00
C537   C     0.26245   0.21189   0.53229   0.00000  Uiso   1.00
C538   C     0.17690   0.18018   0.97774   0.00000  Uiso   1.00
C539   C     0.15657   0.16788   0.52368   0.00000  Uiso   1.00
C540   C     0.09102   0.14550   0.54235   0.00000  Uiso   1.00
C541   C     0.24192   0.20573   0.96022   0.00000  Uiso   1.00
C542   C     0.05102   0.12567   0.51502   0.00000  Uiso   1.00
C543   C     0.28159   0.22394   0.98811   0.00000  Uiso   1.00
C544   C     0.19168   0.32128   0.74560   0.00000  Uiso   1.00
C545   C     0.14165   0.01205   0.75440   0.00000  Uiso   1.00
C546   C     0.12786   0.16260   0.83314   0.00000  Uiso   1.00
Cu547  Cu    0.10737   0.16108   0.74517   0.00000  Uiso   1.00
Cu548  Cu    0.22596   0.17225   0.75483   0.00000  Uiso   1.00
H549   H     0.00248   0.10578   0.52932   0.00000  Uiso   1.00
H550   H     0.06767   0.18502   0.59944   0.00000  Uiso   1.00
H551   H     0.30904   0.19330   0.90553   0.00000  Uiso   1.00
H552   H     0.28783   0.25131   0.90770   0.00000  Uiso   1.00
H553   H     0.27357   0.03785   0.75218   0.00000  Uiso   1.00
H554   H     0.26056   0.03525   0.70027   0.00000  Uiso   1.00
H555   H     0.05976   0.29548   0.74781   0.00000  Uiso   1.00
H556   H     0.07277   0.29808   0.79973   0.00000  Uiso   1.00
H557   H     0.00079   0.20406   0.78497   0.00000  Uiso   1.00
H558   H     0.33255   0.12928   0.71502   0.00000  Uiso   1.00
H559   H     0.32958   0.24536   0.97428   0.00000  Uiso   1.00
H560   H     0.15147   0.12852   0.60441   0.00000  Uiso   1.00
H561   H     0.18168   0.21086   0.89301   0.00000  Uiso   1.00
H562   H     0.31720   0.23353   0.62447   0.00000  Uiso   1.00
H563   H     0.01552   0.10342   0.87859   0.00000  Uiso   1.00
H564   H     0.31625   0.08849   0.95794   0.00000  Uiso   1.00
H565   H     0.01676   0.25534   0.54626   0.00000  Uiso   1.00
H566   H     0.01496   0.12894   0.59694   0.00000  Uiso   1.00
N567   N     0.31506   0.18068   0.76212   0.00000  Uiso   1.00
N568   N     0.01827   0.15265   0.73788   0.00000  Uiso   1.00
N569   N     0.06342   0.14610   0.58901   0.00000  Uiso   1.00
N570   N     0.27045   0.21159   0.91408   0.00000  Uiso   1.00
N571   N     0.25676   0.01403   0.72799   0.00000  Uiso   1.00
N572   N     0.07658   0.31930   0.77201   0.00000  Uiso   1.00
O573   O     0.12815   0.23809   0.74686   0.00000  Uiso   1.00
O574   O     0.20518   0.09524   0.75314   0.00000  Uiso   1.00
O575   O     0.22829   0.24753   0.75502   0.00000  Uiso   1.00
O576   O     0.10504   0.08580   0.74498   0.00000  Uiso   1.00
O577   O     0.08851   0.15930   0.80855   0.00000  Uiso   1.00
O578   O     0.24482   0.17403   0.69145   0.00000  Uiso   1.00
O579   O     0.18866   0.16874   0.81671   0.00000  Uiso   1.00
O580   O     0.14468   0.16460   0.68329   0.00000  Uiso   1.00
C581   C     0.51482   0.26637   0.75070   0.00000  Uiso   1.00
C582   C     0.53887   0.17124   0.66688   0.00000  Uiso   1.00
C583   C     0.43741   0.15597   0.88074   0.00000  Uiso   1.00
C584   C     0.56306   0.18106   0.61972   0.00000  Uiso   1.00
C585   C     0.36228   0.11290   0.94385   0.00000  Uiso   1.00
C586   C     0.63769   0.22988   0.55914   0.00000  Uiso   1.00
C587   C     0.38001   0.12217   0.89893   0.00000  Uiso   1.00
C588   C     0.62002   0.21637   0.60326   0.00000  Uiso   1.00
C589   C     0.47682   0.17975   0.90758   0.00000  Uiso   1.00
C590   C     0.52379   0.16041   0.59200   0.00000  Uiso   1.00
C591   C     0.46499   0.16492   0.95155   0.00000  Uiso   1.00
C592   C     0.48518   0.06696   0.74930   0.00000  Uiso   1.00
C593   C     0.53539   0.18005   0.54959   0.00000  Uiso   1.00
C594   C     0.40427   0.13380   0.97012   0.00000  Uiso   1.00
C595   C     0.59578   0.21189   0.53229   0.00000  Uiso   1.00
C596   C     0.51023   0.18018   0.97774   0.00000  Uiso   1.00
C597   C     0.48990   0.16788   0.52368   0.00000  Uiso   1.00
C598   C     0.42436   0.14550   0.54235   0.00000  Uiso   1.00
C599   C     0.57525   0.20573   0.96022   0.00000  Uiso   1.00
C600   C     0.38435   0.12567   0.51502   0.00000  Uiso   1.00
C601   C     0.61492   0.22394   0.98811   0.00000  Uiso   1.00
C602   C     0.52501   0.32128   0.74560   0.00000  Uiso   1.00
C603   C     0.47499   0.01205   0.75440   0.00000  Uiso   1.00
C604   C     0.46120   0.16260   0.83314   0.00000  Uiso   1.00
Cu605  Cu    0.44071   0.16108   0.74517   0.00000  Uiso   1.00
Cu606  Cu    0.55929   0.17225   0.75483   0.00000  Uiso   1.00
H607   H     0.33582   0.10578   0.52932   0.00000  Uiso   1.00
H608   H     0.40100   0.18502   0.59944   0.00000  Uiso   1.00
H609   H     0.64237   0.19330   0.90553   0.00000  Uiso   1.00
H610   H     0.62117   0.25131   0.90770   0.00000  Uiso   1.00
H611   H     0.60690   0.03785   0.75218   0.00000  Uiso   1.00
H612   H     0.59389   0.03525   0.70027   0.00000  Uiso   1.00
H613   H     0.39310   0.29548   0.74781   0.00000  Uiso   1.00
H614   H     0.40610   0.29808   0.79973   0.00000  Uiso   1.00
H615   H     0.33412   0.20406   0.78497   0.00000  Uiso   1.00
H616   H     0.66589   0.12928   0.71502   0.00000  Uiso   1.00
H617   H     0.66291   0.24536   0.97428   0.00000  Uiso   1.00
H618   H     0.48480   0.12852   0.60441   0.00000  Uiso   1.00
H619   H     0.51502   0.21086   0.89301   0.00000  Uiso   1.00
H620   H     0.65054   0.23353   0.62447   0.00000  Uiso   1.00
H621   H     0.34886   0.10342   0.87859   0.00000  Uiso   1.00
H622   H     0.64959   0.08849   0.95794   0.00000  Uiso   1.00
H623   H     0.35010   0.25534   0.54626   0.00000  Uiso   1.00
H624   H     0.34829   0.12894   0.59694   0.00000  Uiso   1.00
N625   N     0.64839   0.18068   0.76212   0.00000  Uiso   1.00
N626   N     0.35161   0.15265   0.73788   0.00000  Uiso   1.00
N627   N     0.39675   0.14610   0.58901   0.00000  Uiso   1.00
N628   N     0.60378   0.21159   0.91408   0.00000  Uiso   1.00
N629   N     0.59009   0.01403   0.72799   0.00000  Uiso   1.00
N630   N     0.40991   0.31930   0.77201   0.00000  Uiso   1.00
O631   O     0.46148   0.23809   0.74686   0.00000  Uiso   1.00
O632   O     0.53852   0.09524   0.75314   0.00000  Uiso   1.00
O633   O     0.56163   0.24753   0.75502   0.00000  Uiso   1.00
O634   O     0.43837   0.08580   0.74498   0.00000  Uiso   1.00
O635   O     0.42185   0.15930   0.80855   0.00000  Uiso   1.00
O636   O     0.57815   0.17403   0.69145   0.00000  Uiso   1.00
O637   O     0.52199   0.16874   0.81671   0.00000  Uiso   1.00
O638   O     0.47801   0.16460   0.68329   0.00000  Uiso   1.00
C639   C     0.84816   0.26637   0.75070   0.00000  Uiso   1.00
C640   C     0.87221   0.17124   0.66688   0.00000  Uiso   1.00
C641   C     0.77074   0.15597   0.88074   0.00000  Uiso   1.00
C642   C     0.89639   0.18106   0.61972   0.00000  Uiso   1.00
C643   C     0.69562   0.11290   0.94385   0.00000  Uiso   1.00
C644   C     0.97103   0.22988   0.55914   0.00000  Uiso   1.00
C645   C     0.71334   0.12217   0.89893   0.00000  Uiso   1.00
C646   C     0.95335   0.21637   0.60326   0.00000  Uiso   1.00
C647   C     0.81015   0.17975   0.90758   0.00000  Uiso   1.00
C648   C     0.85712   0.16041   0.59200   0.00000  Uiso   1.00
C649   C     0.79832   0.16492   0.95155   0.00000  Uiso   1.00
C650   C     0.81851   0.06696   0.74930   0.00000  Uiso   1.00
C651   C     0.86873   0.18005   0.54959   0.00000  Uiso   1.00
C652   C     0.73760   0.13380   0.97012   0.00000  Uiso   1.00
C653   C     0.92911   0.21189   0.53229   0.00000  Uiso   1.00
C654   C     0.84357   0.18018   0.97774   0.00000  Uiso   1.00
C655   C     0.82323   0.16788   0.52368   0.00000  Uiso   1.00
C656   C     0.75769   0.14550   0.54235   0.00000  Uiso   1.00
C657   C     0.90859   0.20573   0.96022   0.00000  Uiso   1.00
C658   C     0.71769   0.12567   0.51502   0.00000  Uiso   1.00
C659   C     0.94826   0.22394   0.98811   0.00000  Uiso   1.00
C660   C     0.85835   0.32128   0.74560   0.00000  Uiso   1.00
C661   C     0.80832   0.01205   0.75440   0.00000  Uiso   1.00
C662   C     0.79453   0.16260   0.83314   0.00000  Uiso   1.00
Cu663  Cu    0.77404   0.16108   0.74517   0.00000  Uiso   1.00
Cu664  Cu    0.89263   0.17225   0.75483   0.00000  Uiso   1.00
H665   H     0.66915   0.10578   0.52932   0.00000  Uiso   1.00
H666   H     0.73433   0.18502   0.59944   0.00000  Uiso   1.00
H667   H     0.97570   0.19330   0.90553   0.00000  Uiso   1.00
H668   H     0.95450   0.25131   0.90770   0.00000  Uiso   1.00
H669   H     0.94024   0.03785   0.75218   0.00000  Uiso   1.00
H670   H     0.92723   0.03525   0.70027   0.00000  Uiso   1.00
H671   H     0.72643   0.29548   0.74781   0.00000  Uiso   1.00
H672   H     0.73943   0.29808   0.79973   0.00000  Uiso   1.00
H673   H     0.66745   0.20406   0.78497   0.00000  Uiso   1.00
H674   H     0.99922   0.12928   0.71502   0.00000  Uiso   1.00
H675   H     0.99625   0.24536   0.97428   0.00000  Uiso   1.00
H676   H     0.81814   0.12852   0.60441   0.00000  Uiso   1.00
H677   H     0.84835   0.21086   0.89301   0.00000  Uiso   1.00
H678   H     0.98387   0.23353   0.62447   0.00000  Uiso   1.00
H679   H     0.68219   0.10342   0.87859   0.00000  Uiso   1.00
H680   H     0.98292   0.08849   0.95794   0.00000  Uiso   1.00
H681   H     0.68343   0.25534   0.54626   0.00000  Uiso   1.00
H682   H     0.68162   0.12894   0.59694   0.00000  Uiso   1.00
N683   N     0.98173   0.18068   0.76212   0.00000  Uiso   1.00
N684   N     0.68494   0.15265   0.73788   0.00000  Uiso   1.00
N685   N     0.73008   0.14610   0.58901   0.00000  Uiso   1.00
N686   N     0.93711   0.21159   0.91408   0.00000  Uiso   1.00
N687   N     0.92342   0.01403   0.72799   0.00000  Uiso   1.00
N688   N     0.74324   0.31930   0.77201   0.00000  Uiso   1.00
O689   O     0.79482   0.23809   0.74686   0.00000  Uiso   1.00
O690   O     0.87185   0.09524   0.75314   0.00000  Uiso   1.00
O691   O     0.89496   0.24753   0.75502   0.00000  Uiso   1.00
O692   O     0.77171   0.08580   0.74498   0.00000  Uiso   1.00
O693   O     0.75518   0.15930   0.80855   0.00000  Uiso   1.00
O694   O     0.91149   0.17403   0.69145   0.00000  Uiso   1.00
O695   O     0.85532   0.16874   0.81671   0.00000  Uiso   1.00
O696   O     0.81134   0.16460   0.68329   0.00000  Uiso   1.00
C697   C     0.18149   0.59970   0.75070   0.00000  Uiso   1.00
C698   C     0.20554   0.50457   0.66688   0.00000  Uiso   1.00
C699   C     0.10408   0.48931   0.88074   0.00000  Uiso   1.00
C700   C     0.22972   0.51439   0.61972   0.00000  Uiso   1.00
C701   C     0.02895   0.44624   0.94385   0.00000  Uiso   1.00
C702   C     0.30436   0.56321   0.55914   0.00000  Uiso   1.00
C703   C     0.04668   0.45551   0.89893   0.00000  Uiso   1.00
C704   C     0.28669   0.54970   0.60326   0.00000  Uiso   1.00
C705   C     0.14348   0.51309   0.90758   0.00000  Uiso   1.00
C706   C     0.19045   0.49375   0.59200   0.00000  Uiso   1.00
C707   C     0.13165   0.49825   0.95155   0.00000  Uiso   1.00
C708   C     0.15184   0.40030   0.74930   0.00000  Uiso   1.00
C709   C     0.20206   0.51338   0.54959   0.00000  Uiso   1.00
C710   C     0.07093   0.46713   0.97012   0.00000  Uiso   1.00
C711   C     0.26245   0.54523   0.53229   0.00000  Uiso   1.00
C712   C     0.17690   0.51351   0.97774   0.00000  Uiso   1.00
C713   C     0.15657   0.50121   0.52368   0.00000  Uiso   1.00
C714   C     0.09102   0.47884   0.54235   0.00000  Uiso   1.00
C715   C     0.24192   0.53906   0.96022   0.00000  Uiso   1.00
C716   C     0.05102   0.45901   0.51502   0.00000  Uiso   1.00
C717   C     0.28159   0.55727   0.98811   0.00000  Uiso   1.00
C718   C     0.19168   0.65461   0.74560   0.00000  Uiso   1.00
C719   C     0.14165   0.34538   0.75440   0.00000  Uiso   1.00
C720   C     0.12786   0.49593   0.83314   0.00000  Uiso   1.00
Cu721  Cu    0.10737   0.49441   0.74517   0.00000  Uiso   1.00
Cu722  Cu    0.22596   0.50559   0.75483   0.00000  Uiso   1.00
H723   H     0.00248   0.43912   0.52932   0.00000  Uiso   1.00
H724   H     0.06767   0.51836   0.59944   0.00000  Uiso   1.00
H725   H     0.30904   0.52663   0.90553   0.00000  Uiso   1.00
H726   H     0.28783   0.58464   0.90770   0.00000  Uiso   1.00
H727   H     0.27357   0.37118   0.75218   0.00000  Uiso   1.00
H728   H     0.26056   0.36858   0.70027   0.00000  Uiso   1.00
H729   H     0.05976   0.62881   0.74781   0.00000  Uiso   1.00
H730   H     0.07277   0.63141   0.79973   0.00000  Uiso   1.00
H731   H     0.00079   0.53740   0.78497   0.00000  Uiso   1.00
H732   H     0.33255   0.46261   0.71502   0.00000  Uiso   1.00
H733   H     0.32958   0.57869   0.97428   0.00000  Uiso   1.00
H734   H     0.15147   0.46186   0.60441   0.00000  Uiso   1.00
H735   H     0.18168   0.54420   0.89301   0.00000  Uiso   1.00
H736   H     0.31720   0.56687   0.62447   0.00000  Uiso   1.00
H737   H     0.01552   0.43675   0.87859   0.00000  Uiso   1.00
H738   H     0.31625   0.42183   0.95794   0.00000  Uiso   1.00
H739   H     0.01676   0.58867   0.54626   0.00000  Uiso   1.00
H740   H     0.01496   0.46227   0.59694   0.00000  Uiso   1.00
N741   N     0.31506   0.51401   0.76212   0.00000  Uiso   1.00
N742   N     0.01827   0.48599   0.73788   0.00000  Uiso   1.00
N743   N     0.06342   0.47943   0.58901   0.00000  Uiso   1.00
N744   N     0.27045   0.54492   0.91408   0.00000  Uiso   1.00
N745   N     0.25676   0.34736   0.72799   0.00000  Uiso   1.00
N746   N     0.07658   0.65263   0.77201   0.00000  Uiso   1.00
O747   O     0.12815   0.57142   0.74686   0.00000  Uiso   1.00
O748   O     0.20518   0.42858   0.75314   0.00000  Uiso   1.00
O749   O     0.22829   0.58086   0.75502   0.00000  Uiso   1.00
O750   O     0.10504   0.41914   0.74498   0.00000  Uiso   1.00
O751   O     0.08851   0.49263   0.80855   0.00000  Uiso   1.00
O752   O     0.24482   0.50737   0.69145   0.00000  Uiso   1.00
O753   O     0.18866   0.50207   0.81671   0.00000  Uiso   1.00
O754   O     0.14468   0.49793   0.68329   0.00000  Uiso   1.00
C755   C     0.51482   0.59970   0.75070   0.00000  Uiso   1.00
C756   C     0.53887   0.50457   0.66688   0.00000  Uiso   1.00
C757   C     0.43741   0.48931   0.88074   0.00000  Uiso   1.00
C758   C     0.56306   0.51439   0.61972   0.00000  Uiso   1.00
C759   C     0.36228   0.44624   0.94385   0.00000  Uiso   1.00
C760   C     0.63769   0.56321   0.55914   0.00000  Uiso   1.00
C761   C     0.38001   0.45551   0.89893   0.00000  Uiso   1.00
C762   C     0.62002   0.54970   0.60326   0.00000  Uiso   1.00
C763   C     0.47682   0.51309   0.90758   0.00000  Uiso   1.00
C764   C     0.52379   0.49375   0.59200   0.00000  Uiso   1.00
C765   C     0.46499   0.49825   0.95155   0.00000  Uiso   1.00
C766   C     0.48518   0.40030   0.74930   0.00000  Uiso   1.00
C767   C     0.53539   0.51338   0.54959   0.00000  Uiso   1.00
C768   C     0.40427   0.46713   0.97012   0.00000  Uiso   1.00
C769   C     0.59578   0.54523   0.53229   0.00000  Uiso   1.00
C770   C     0.51023   0.51351   0.97774   0.00000  Uiso   1.00
C771   C     0.48990   0.50121   0.52368   0.00000  Uiso   1.00
C772   C     0.42436   0.47884   0.54235   0.00000  Uiso   1.00
C773   C     0.57525   0.53906   0.96022   0.00000  Uiso   1.00
C774   C     0.38435   0.45901   0.51502   0.00000  Uiso   1.00
C775   C     0.61492   0.55727   0.98811   0.00000  Uiso   1.00
C776   C     0.52501   0.65461   0.74560   0.00000  Uiso   1.00
C777   C     0.47499   0.34538   0.75440   0.00000  Uiso   1.00
C778   C     0.46120   0.49593   0.83314   0.00000  Uiso   1.00
Cu779  Cu    0.44071   0.49441   0.74517   0.00000  Uiso   1.00
Cu780  Cu    0.55929   0.50559   0.75483   0.00000  Uiso   1.00
H781   H     0.33582   0.43912   0.52932   0.00000  Uiso   1.00
H782   H     0.40100   0.51836   0.59944   0.00000  Uiso   1.00
H783   H     0.64237   0.52663   0.90553   0.00000  Uiso   1.00
H784   H     0.62117   0.58464   0.90770   0.00000  Uiso   1.00
H785   H     0.60690   0.37118   0.75218   0.00000  Uiso   1.00
H786   H     0.59389   0.36858   0.70027   0.00000  Uiso   1.00
H787   H     0.39310   0.62881   0.74781   0.00000  Uiso   1.00
H788   H     0.40610   0.63141   0.79973   0.00000  Uiso   1.00
H789   H     0.33412   0.53740   0.78497   0.00000  Uiso   1.00
H790   H     0.66589   0.46261   0.71502   0.00000  Uiso   1.00
H791   H     0.66291   0.57869   0.97428   0.00000  Uiso   1.00
H792   H     0.48480   0.46186   0.60441   0.00000  Uiso   1.00
H793   H     0.51502   0.54420   0.89301   0.00000  Uiso   1.00
H794   H     0.65054   0.56687   0.62447   0.00000  Uiso   1.00
H795   H     0.34886   0.43675   0.87859   0.00000  Uiso   1.00
H796   H     0.64959   0.42183   0.95794   0.00000  Uiso   1.00
H797   H     0.35010   0.58867   0.54626   0.00000  Uiso   1.00
H798   H     0.34829   0.46227   0.59694   0.00000  Uiso   1.00
N799   N     0.64839   0.51401   0.76212   0.00000  Uiso   1.00
N800   N     0.35161   0.48599   0.73788   0.00000  Uiso   1.00
N801   N     0.39675   0.47943   0.58901   0.00000  Uiso   1.00
N802   N     0.60378   0.54492   0.91408   0.00000  Uiso   1.00
N803   N     0.59009   0.34736   0.72799   0.00000  Uiso   1.00
N804   N     0.40991   0.65263   0.77201   0.00000  Uiso   1.00
O805   O     0.46148   0.57142   0.74686   0.00000  Uiso   1.00
O806   O     0.53852   0.42858   0.75314   0.00000  Uiso   1.00
O807   O     0.56163   0.58086   0.75502   0.00000  Uiso   1.00
O808   O     0.43837   0.41914   0.74498   0.00000  Uiso   1.00
O809   O     0.42185   0.49263   0.80855   0.00000  Uiso   1.00
O810   O     0.57815   0.50737   0.69145   0.00000  Uiso   1.00
O811   O     0.52199   0.50207   0.81671   0.00000  Uiso   1.00
O812   O     0.47801   0.49793   0.68329   0.00000  Uiso   1.00
C813   C     0.84816   0.59970   0.75070   0.00000  Uiso   1.00
C814   C     0.87221   0.50457   0.66688   0.00000  Uiso   1.00
C815   C     0.77074   0.48931   0.88074   0.00000  Uiso   1.00
C816   C     0.89639   0.51439   0.61972   0.00000  Uiso   1.00
C817   C     0.69562   0.44624   0.94385   0.00000  Uiso   1.00
C818   C     0.97103   0.56321   0.55914   0.00000  Uiso   1.00
C819   C     0.71334   0.45551   0.89893   0.00000  Uiso   1.00
C820   C     0.95335   0.54970   0.60326   0.00000  Uiso   1.00
C821   C     0.81015   0.51309   0.90758   0.00000  Uiso   1.00
C822   C     0.85712   0.49375   0.59200   0.00000  Uiso   1.00
C823   C     0.79832   0.49825   0.95155   0.00000  Uiso   1.00
C824   C     0.81851   0.40030   0.74930   0.00000  Uiso   1.00
C825   C     0.86873   0.51338   0.54959   0.00000  Uiso   1.00
C826   C     0.73760   0.46713   0.97012   0.00000  Uiso   1.00
C827   C     0.92911   0.54523   0.53229   0.00000  Uiso   1.00
C828   C     0.84357   0.51351   0.97774   0.00000  Uiso   1.00
C829   C     0.82323   0.50121   0.52368   0.00000  Uiso   1.00
C830   C     0.75769   0.47884   0.54235   0.00000  Uiso   1.00
C831   C     0.90859   0.53906   0.96022   0.00000  Uiso   1.00
C832   C     0.71769   0.45901   0.51502   0.00000  Uiso   1.00
C833   C     0.94826   0.55727   0.98811   0.00000  Uiso   1.00
C834   C     0.85835   0.65461   0.74560   0.00000  Uiso   1.00
C835   C     0.80832   0.34538   0.75440   0.00000  Uiso   1.00
C836   C     0.79453   0.49593   0.83314   0.00000  Uiso   1.00
Cu837  Cu    0.77404   0.49441   0.74517   0.00000  Uiso   1.00
Cu838  Cu    0.89263   0.50559   0.75483   0.00000  Uiso   1.00
H839   H     0.66915   0.43912   0.52932   0.00000  Uiso   1.00
H840   H     0.73433   0.51836   0.59944   0.00000  Uiso   1.00
H841   H     0.97570   0.52663   0.90553   0.00000  Uiso   1.00
H842   H     0.95450   0.58464   0.90770   0.00000  Uiso   1.00
H843   H     0.94024   0.37118   0.75218   0.00000  Uiso   1.00
H844   H     0.92723   0.36858   0.70027   0.00000  Uiso   1.00
H845   H     0.72643   0.62881   0.74781   0.00000  Uiso   1.00
H846   H     0.73943   0.63141   0.79973   0.00000  Uiso   1.00
H847   H     0.66745   0.53740   0.78497   0.00000  Uiso   1.00
H848   H     0.99922   0.46261   0.71502   0.00000  Uiso   1.00
H849   H     0.99625   0.57869   0.97428   0.00000  Uiso   1.00
H850   H     0.81814   0.46186   0.60441   0.00000  Uiso   1.00
H851   H     0.84835   0.54420   0.89301   0.00000  Uiso   1.00
H852   H     0.98387   0.56687   0.62447   0.00000  Uiso   1.00
H853   H     0.68219   0.43675   0.87859   0.00000  Uiso   1.00
H854   H     0.98292   0.42183   0.95794   0.00000  Uiso   1.00
H855   H     0.68343   0.58867   0.54626   0.00000  Uiso   1.00
H856   H     0.68162   0.46227   0.59694   0.00000  Uiso   1.00
N857   N     0.98173   0.51401   0.76212   0.00000  Uiso   1.00
N858   N     0.68494   0.48599   0.73788   0.00000  Uiso   1.00
N859   N     0.73008   0.47943   0.58901   0.00000  Uiso   1.00
N860   N     0.93711   0.54492   0.91408   0.00000  Uiso   1.00
N861   N     0.92342   0.34736   0.72799   0.00000  Uiso   1.00
N862   N     0.74324   0.65263   0.77201   0.00000  Uiso   1.00
O863   O     0.79482   0.57142   0.74686   0.00000  Uiso   1.00
O864   O     0.87185   0.42858   0.75314   0.00000  Uiso   1.00
O865   O     0.89496   0.58086   0.75502   0.00000  Uiso   1.00
O866   O     0.77171   0.41914   0.74498   0.00000  Uiso   1.00
O867   O     0.75518   0.49263   0.80855   0.00000  Uiso   1.00
O868   O     0.91149   0.50737   0.69145   0.00000  Uiso   1.00
O869   O     0.85532   0.50207   0.81671   0.00000  Uiso   1.00
O870   O     0.81134   0.49793   0.68329   0.00000  Uiso   1.00
C871   C     0.18149   0.93304   0.75070   0.00000  Uiso   1.00
C872   C     0.20554   0.83790   0.66688   0.00000  Uiso   1.00
C873   C     0.10408   0.82264   0.88074   0.00000  Uiso   1.00
C874   C     0.22972   0.84772   0.61972   0.00000  Uiso   1.00
C875   C     0.02895   0.77957   0.94385   0.00000  Uiso   1.00
C876   C     0.30436   0.89654   0.55914   0.00000  Uiso   1.00
C877   C     0.04668   0.78884   0.89893   0.00000  Uiso   1.00
C878   C     0.28669   0.88304   0.60326   0.00000  Uiso   1.00
C879   C     0.14348   0.84642   0.90758   0.00000  Uiso   1.00
C880   C     0.19045   0.82708   0.59200   0.00000  Uiso   1.00
C881   C     0.13165   0.83158   0.95155   0.00000  Uiso   1.00
C882   C     0.15184   0.73363   0.74930   0.00000  Uiso   1.00
C883   C     0.20206   0.84671   0.54959   0.00000  Uiso   1.00
C884   C     0.07093   0.80046   0.97012   0.00000  Uiso   1.00
C885   C     0.26245   0.87856   0.53229   0.00000  Uiso   1.00
C886   C     0.17690   0.84684   0.97774   0.00000  Uiso   1.00
C887   C     0.15657   0.83454   0.52368   0.00000  Uiso   1.00
C888   C     0.09102   0.81217   0.54235   0.00000  Uiso   1.00
C889   C     0.24192   0.87239   0.96022   0.00000  Uiso   1.00
C890   C     0.05102   0.79234   0.51502   0.00000  Uiso   1.00
C891   C     0.28159   0.89061   0.98811   0.00000  Uiso   1.00
C892   C     0.19168   0.98795   0.74560   0.00000  Uiso   1.00
C893   C     0.14165   0.67872   0.75440   0.00000  Uiso   1.00
C894   C     0.12786   0.82926   0.83314   0.00000  Uiso   1.00
Cu895  Cu    0.10737   0.82775   0.74517   0.00000  Uiso   1.00
Cu896  Cu    0.22596   0.83892   0.75483   0.00000  Uiso   1.00
H897   H     0.00248   0.77245   0.52932   0.00000  Uiso   1.00
H898   H     0.06767   0.85169   0.59944   0.00000  Uiso   1.00
H899   H     0.30904   0.85996   0.90553   0.00000  Uiso   1.00
H900   H     0.28783   0.91797   0.90770   0.00000  Uiso   1.00
H901   H     0.27357   0.70452   0.75218   0.00000  Uiso   1.00
H902   H     0.26056   0.70192   0.70027   0.00000  Uiso   1.00
H903   H     0.05976   0.96215   0.74781   0.00000  Uiso   1.00
H904   H     0.07277   0.96474   0.79973   0.00000  Uiso   1.00
H905   H     0.00079   0.87073   0.78497   0.00000  Uiso   1.00
H906   H     0.33255   0.79595   0.71502   0.00000  Uiso   1.00
H907   H     0.32958   0.91202   0.97428   0.00000  Uiso   1.00
H908   H     0.15147   0.79519   0.60441   0.00000  Uiso   1.00
H909   H     0.18168   0.87753   0.89301   0.00000  Uiso   1.00
H910   H     0.31720   0.90020   0.62447   0.00000  Uiso   1.00
H911   H     0.01552   0.77009   0.87859   0.00000  Uiso   1.00
H912   H     0.31625   0.75516   0.95794   0.00000  Uiso   1.00
H913   H     0.01676   0.92200   0.54626   0.00000  Uiso   1.00
H914   H     0.01496   0.79560   0.59694   0.00000  Uiso   1.00
N915   N     0.31506   0.84735   0.76212   0.00000  Uiso   1.00
N916   N     0.01827   0.81932   0.73788   0.00000  Uiso   1.00
N917   N     0.06342   0.81276   0.58901   0.00000  Uiso   1.00
N918   N     0.27045   0.87826   0.91408   0.00000  Uiso   1.00
N919   N     0.25676   0.68070   0.72799   0.00000  Uiso   1.00
N920   N     0.07658   0.98597   0.77201   0.00000  Uiso   1.00
O921   O     0.12815   0.90476   0.74686   0.00000  Uiso   1.00
O922   O     0.20518   0.76191   0.75314   0.00000  Uiso   1.00
O923   O     0.22829   0.91420   0.75502   0.00000  Uiso   1.00
O924   O     0.10504   0.75247   0.74498   0.00000  Uiso   1.00
O925   O     0.08851   0.82597   0.80855   0.00000  Uiso   1.00
O926   O     0.24482   0.84070   0.69145   0.00000  Uiso   1.00
O927   O     0.18866   0.83540   0.81671   0.00000  Uiso   1.00
O928   O     0.14468   0.83126   0.68329   0.00000  Uiso   1.00
C929   C     0.51482   0.93304   0.75070   0.00000  Uiso   1.00
C930   C     0.53887   0.83790   0.66688   0.00000  Uiso   1.00
C931   C     0.43741   0.82264   0.88074   0.00000  Uiso   1.00
C932   C     0.56306   0.84772   0.61972   0.00000  Uiso   1.00
C933   C     0.36228   0.77957   0.94385   0.00000  Uiso   1.00
C934   C     0.63769   0.89654   0.55914   0.00000  Uiso   1.00
C935   C     0.38001   0.78884   0.89893   0.00000  Uiso   1.00
C936   C     0.62002   0.88304   0.60326   0.00000  Uiso   1.00
C937   C     0.47682   0.84642   0.90758   0.00000  Uiso   1.00
C938   C     0.52379   0.82708   0.59200   0.00000  Uiso   1.00
C939   C     0.46499   0.83158   0.95155   0.00000  Uiso   1.00
C940   C     0.48518   0.73363   0.74930   0.00000  Uiso   1.00
C941   C     0.53539   0.84671   0.54959   0.00000  Uiso   1.00
C942   C     0.40427   0.80046   0.97012   0.00000  Uiso   1.00
C943   C     0.59578   0.87856   0.53229   0.00000  Uiso   1.00
C944   C     0.51023   0.84684   0.97774   0.00000  Uiso   1.00
C945   C     0.48990   0.83454   0.52368   0.00000  Uiso   1.00
C946   C     0.42436   0.81217   0.54235   0.00000  Uiso   1.00
C947   C     0.57525   0.87239   0.96022   0.00000  Uiso   1.00
C948   C     0.38435   0.79234   0.51502   0.00000  Uiso   1.00
C949   C     0.61492   0.89061   0.98811   0.00000  Uiso   1.00
C950   C     0.52501   0.98795   0.74560   0.00000  Uiso   1.00
C951   C     0.47499   0.67872   0.75440   0.00000  Uiso   1.00
C952   C     0.46120   0.82926   0.83314   0.00000  Uiso   1.00
Cu953  Cu    0.44071   0.82775   0.74517   0.00000  Uiso   1.00
Cu954  Cu    0.55929   0.83892   0.75483   0.00000  Uiso   1.00
H955   H     0.33582   0.77245   0.52932   0.00000  Uiso   1.00
H956   H     0.40100   0.85169   0.59944   0.00000  Uiso   1.00
H957   H     0.64237   0.85996   0.90553   0.00000  Uiso   1.00
H958   H     0.62117   0.91797   0.90770   0.00000  Uiso   1.00
H959   H     0.60690   0.70452   0.75218   0.00000  Uiso   1.00
H960   H     0.59389   0.70192   0.70027   0.00000  Uiso   1.00
H961   H     0.39310   0.96215   0.74781   0.00000  Uiso   1.00
H962   H     0.40610   0.96474   0.79973   0.00000  Uiso   1.00
H963   H     0.33412   0.87073   0.78497   0.00000  Uiso   1.00
H964   H     0.66589   0.79595   0.71502   0.00000  Uiso   1.00
H965   H     0.66291   0.91202   0.97428   0.00000  Uiso   1.00
H966   H     0.48480   0.79519   0.60441   0.00000  Uiso   1.00
H967   H     0.51502   0.87753   0.89301   0.00000  Uiso   1.00
H968   H     0.65054   0.90020   0.62447   0.00000  Uiso   1.00
H969   H     0.34886   0.77009   0.87859   0.00000  Uiso   1.00
H970   H     0.64959   0.75516   0.95794   0.00000  Uiso   1.00
H971   H     0.35010   0.92200   0.54626   0.00000  Uiso   1.00
H972   H     0.34829   0.79560   0.59694   0.00000  Uiso   1.00
N973   N     0.64839   0.84735   0.76212   0.00000  Uiso   1.00
N974   N     0.35161   0.81932   0.73788   0.00000  Uiso   1.00
N975   N     0.39675   0.81276   0.58901   0.00000  Uiso   1.00
N976   N     0.60378   0.87826   0.91408   0.00000  Uiso   1.00
N977   N     0.59009   0.68070   0.72799   0.00000  Uiso   1.00
N978   N     0.40991   0.98597   0.77201   0.00000  Uiso   1.00
O979   O     0.46148   0.90476   0.74686   0.00000  Uiso   1.00
O980   O     0.53852   0.76191   0.75314   0.00000  Uiso   1.00
O981   O     0.56163   0.91420   0.75502   0.00000  Uiso   1.00
O982   O     0.43837   0.75247   0.74498   0.00000  Uiso   1.00
O983   O     0.42185   0.82597   0.80855   0.00000  Uiso   1.00
O984   O     0.57815   0.84070   0.69145   0.00000  Uiso   1.00
O985   O     0.52199   0.83540   0.81671   0.00000  Uiso   1.00
O986   O     0.47801   0.83126   0.68329   0.00000  Uiso   1.00
C987   C     0.84816   0.93304   0.75070   0.00000  Uiso   1.00
C988   C     0.87221   0.83790   0.66688   0.00000  Uiso   1.00
C989   C     0.77074   0.82264   0.88074   0.00000  Uiso   1.00
C990   C     0.89639   0.84772   0.61972   0.00000  Uiso   1.00
C991   C     0.69562   0.77957   0.94385   0.00000  Uiso   1.00
C992   C     0.97103   0.89654   0.55914   0.00000  Uiso   1.00
C993   C     0.71334   0.78884   0.89893   0.00000  Uiso   1.00
C994   C     0.95335   0.88304   0.60326   0.00000  Uiso   1.00
C995   C     0.81015   0.84642   0.90758   0.00000  Uiso   1.00
C996   C     0.85712   0.82708   0.59200   0.00000  Uiso   1.00
C997   C     0.79832   0.83158   0.95155   0.00000  Uiso   1.00
C998   C     0.81851   0.73363   0.74930   0.00000  Uiso   1.00
C999   C     0.86873   0.84671   0.54959   0.00000  Uiso   1.00
C1000  C     0.73760   0.80046   0.97012   0.00000  Uiso   1.00
C1001  C     0.92911   0.87856   0.53229   0.00000  Uiso   1.00
C1002  C     0.84357   0.84684   0.97774   0.00000  Uiso   1.00
C1003  C     0.82323   0.83454   0.52368   0.00000  Uiso   1.00
C1004  C     0.75769   0.81217   0.54235   0.00000  Uiso   1.00
C1005  C     0.90859   0.87239   0.96022   0.00000  Uiso   1.00
C1006  C     0.71769   0.79234   0.51502   0.00000  Uiso   1.00
C1007  C     0.94826   0.89061   0.98811   0.00000  Uiso   1.00
C1008  C     0.85835   0.98795   0.74560   0.00000  Uiso   1.00
C1009  C     0.80832   0.67872   0.75440   0.00000  Uiso   1.00
C1010  C     0.79453   0.82926   0.83314   0.00000  Uiso   1.00
Cu1011 Cu    0.77404   0.82775   0.74517   0.00000  Uiso   1.00
Cu1012 Cu    0.89263   0.83892   0.75483   0.00000  Uiso   1.00
H1013  H     0.66915   0.77245   0.52932   0.00000  Uiso   1.00
H1014  H     0.73433   0.85169   0.59944   0.00000  Uiso   1.00
H1015  H     0.97570   0.85996   0.90553   0.00000  Uiso   1.00
H1016  H     0.95450   0.91797   0.90770   0.00000  Uiso   1.00
H1017  H     0.94024   0.70452   0.75218   0.00000  Uiso   1.00
H1018  H     0.92723   0.70192   0.70027   0.00000  Uiso   1.00
H1019  H     0.72643   0.96215   0.74781   0.00000  Uiso   1.00
H1020  H     0.73943   0.96474   0.79973   0.00000  Uiso   1.00
H1021  H     0.66745   0.87073   0.78497   0.00000  Uiso   1.00
H1022  H     0.99922   0.79595   0.71502   0.00000  Uiso   1.00
H1023  H     0.99625   0.91202   0.97428   0.00000  Uiso   1.00
H1024  H     0.81814   0.79519   0.60441   0.00000  Uiso   1.00
H1025  H     0.84835   0.87753   0.89301   0.00000  Uiso   1.00
H1026  H     0.98387   0.90020   0.62447   0.00000  Uiso   1.00
H1027  H     0.68219   0.77009   0.87859   0.00000  Uiso   1.00
H1028  H     0.98292   0.75516   0.95794   0.00000  Uiso   1.00
H1029  H     0.68343   0.92200   0.54626   0.00000  Uiso   1.00
H1030  H     0.68162   0.79560   0.59694   0.00000  Uiso   1.00
N1031  N     0.98173   0.84735   0.76212   0.00000  Uiso   1.00
N1032  N     0.68494   0.81932   0.73788   0.00000  Uiso   1.00
N1033  N     0.73008   0.81276   0.58901   0.00000  Uiso   1.00
N1034  N     0.93711   0.87826   0.91408   0.00000  Uiso   1.00
N1035  N     0.92342   0.68070   0.72799   0.00000  Uiso   1.00
N1036  N     0.74324   0.98597   0.77201   0.00000  Uiso   1.00
O1037  O     0.79482   0.90476   0.74686   0.00000  Uiso   1.00
O1038  O     0.87185   0.76191   0.75314   0.00000  Uiso   1.00
O1039  O     0.89496   0.91420   0.75502   0.00000  Uiso   1.00
O1040  O     0.77171   0.75247   0.74498   0.00000  Uiso   1.00
O1041  O     0.75518   0.82597   0.80855   0.00000  Uiso   1.00
O1042  O     0.91149   0.84070   0.69145   0.00000  Uiso   1.00
O1043  O     0.85532   0.83540   0.81671   0.00000  Uiso   1.00
O1044  O     0.81134   0.83126   0.68329   0.00000  Uiso   1.00
loop_
_geom_bond_atom_site_label_1
_geom_bond_atom_site_label_2
_geom_bond_distance
_geom_bond_site_symmetry_2
_ccdc_geom_bond_type
C1     C22     1.427   .     S
C1     O51     1.286   .     A
C1     O53     1.291   .     A
C2     C4      1.464   .     S
C2     O56     1.300   .     A
C2     O58     1.296   .     A
C3     C9      1.396   .     A
C3     C7      1.395   .     A
C3     C24     1.464   .     S
C4     C8      1.396   .     A
C4     C10     1.395   .     A
C5     C14     1.406   .     A
C5     C7      1.391   .     A
C5     H158    1.084   1_455 S
C6     C15     1.405   .     A
C6     C8      1.393   .     A
C6     H101    1.084   .     S
C7     H41     1.083   .     S
C8     H40     1.083   .     S
C9     C11     1.409   .     A
C9     H39     1.072   .     S
C10    H38     1.077   .     S
C10    C13     1.408   .     A
C11    C16     1.439   .     A
C11    C14     1.418   .     A
C12    C23     1.427   .     S
C12    O52     1.286   .     A
C12    O54     1.291   .     A
C13    C17     1.432   .     A
C13    C15     1.413   .     A
C14    C542    1.385   .     S
C15    C543    1.384   1_554 S
C16    C19     1.436   .     A
C16    C539    1.438   .     S
C17    C18     1.431   .     A
C17    C538    1.438   1_554 S
C18    N47     1.439   .     S
C18    C20     1.394   .     A
C19    C21     1.394   .     A
C19    N48     1.431   .     S
C20    H27     1.085   .     S
C20    C536    1.385   1_554 S
C21    H37     1.085   .     S
C21    C537    1.384   .     S
C22    C197    1.360   .     S
C22    N223    1.442   .     S
C23    C370    1.360   1_545 S
C23    N398    1.442   1_545 S
C24    O55     1.301   .     A
C24    O57     1.296   .     A
Cu25   O51     1.977   .     S
Cu25   O58     1.910   .     S
Cu25   O54     1.970   .     S
Cu25   Cu26    2.690   .     S
Cu25   N46     2.021   .     S
Cu25   O55     1.933   .     S
Cu26   O52     1.977   .     S
Cu26   O57     1.910   .     S
Cu26   O53     1.970   .     S
Cu26   N45     2.021   .     S
Cu26   O56     1.933   .     S
H28    N47     1.045   .     S
H29    N48     1.043   .     S
H30    N48     1.046   .     S
H31    N49     1.045   .     S
H32    N49     1.046   .     S
H33    N50     1.045   .     S
H34    N50     1.046   .     S
H35    N161    1.029   1_455 S
H36    N104    1.029   .     S
H42    C63     1.084   .     S
H43    C122    1.084   1_455 S
H44    N47     1.046   .     S
N45    H93     1.029   .     S
N45    N104    1.284   .     S
N46    H152    1.029   1_455 S
N46    N161    1.284   1_455 S
N49    C370    1.442   1_545 S
N50    C197    1.442   .     S
C59    C80     1.427   .     S
C59    O109    1.286   .     A
C59    O111    1.291   .     A
C60    C62     1.464   .     S
C60    O114    1.300   .     A
C60    O116    1.296   .     A
C61    C67     1.396   .     A
C61    C65     1.395   .     A
C61    C82     1.464   .     S
C62    C66     1.396   .     A
C62    C68     1.395   .     A
C63    C72     1.406   .     A
C63    C65     1.391   .     A
C64    C73     1.405   .     A
C64    C66     1.393   .     A
C64    H159    1.084   .     S
C65    H99     1.083   .     S
C66    H98     1.083   .     S
C67    C69     1.409   .     A
C67    H97     1.072   .     S
C68    H96     1.077   .     S
C68    C71     1.408   .     A
C69    C74     1.439   .     A
C69    C72     1.418   .     A
C70    C81     1.427   .     S
C70    O110    1.286   .     A
C70    O112    1.291   .     A
C71    C75     1.432   .     A
C71    C73     1.413   .     A
C72    C600    1.385   .     S
C73    C601    1.384   1_554 S
C74    C77     1.436   .     A
C74    C597    1.438   .     S
C75    C76     1.431   .     A
C75    C596    1.438   1_554 S
C76    N105    1.439   .     S
C76    C78     1.394   .     A
C77    C79     1.394   .     A
C77    N106    1.431   .     S
C78    H85     1.085   .     S
C78    C594    1.385   1_554 S
C79    H95     1.085   .     S
C79    C595    1.384   .     S
C80    C255    1.360   .     S
C80    N281    1.442   .     S
C81    C428    1.360   1_545 S
C81    N456    1.442   1_545 S
C82    O113    1.301   .     A
C82    O115    1.296   .     A
Cu83   O109    1.977   .     S
Cu83   O116    1.910   .     S
Cu83   O112    1.970   .     S
Cu83   Cu84    2.690   .     S
Cu83   N104    2.021   .     S
Cu83   O113    1.933   .     S
Cu84   O110    1.977   .     S
Cu84   O115    1.910   .     S
Cu84   O111    1.970   .     S
Cu84   N103    2.021   .     S
Cu84   O114    1.933   .     S
H86    N105    1.045   .     S
H87    N106    1.043   .     S
H88    N106    1.046   .     S
H89    N107    1.045   .     S
H90    N107    1.046   .     S
H91    N108    1.045   .     S
H92    N108    1.046   .     S
H94    N162    1.029   .     S
H100   C121    1.084   .     S
H102   N105    1.046   .     S
N103   H151    1.029   .     S
N103   N162    1.284   .     S
N107   C428    1.442   1_545 S
N108   C255    1.442   .     S
C117   C138    1.427   .     S
C117   O167    1.286   .     A
C117   O169    1.291   .     A
C118   C120    1.464   .     S
C118   O172    1.300   .     A
C118   O174    1.296   .     A
C119   C125    1.396   .     A
C119   C123    1.395   .     A
C119   C140    1.464   .     S
C120   C124    1.396   .     A
C120   C126    1.395   .     A
C121   C130    1.406   .     A
C121   C123    1.391   .     A
C122   C131    1.405   .     A
C122   C124    1.393   .     A
C122   H43     1.084   1_655 S
C123   H157    1.083   .     S
C124   H156    1.083   .     S
C125   C127    1.409   .     A
C125   H155    1.072   .     S
C126   H154    1.077   .     S
C126   C129    1.408   .     A
C127   C132    1.439   .     A
C127   C130    1.418   .     A
C128   C139    1.427   .     S
C128   O168    1.286   .     A
C128   O170    1.291   .     A
C129   C133    1.432   .     A
C129   C131    1.413   .     A
C130   C658    1.385   .     S
C131   C659    1.384   1_554 S
C132   C135    1.436   .     A
C132   C655    1.438   .     S
C133   C134    1.431   .     A
C133   C654    1.438   1_554 S
C134   N163    1.439   .     S
C134   C136    1.394   .     A
C135   C137    1.394   .     A
C135   N164    1.431   .     S
C136   H143    1.085   .     S
C136   C652    1.385   1_554 S
C137   H153    1.085   .     S
C137   C653    1.384   .     S
C138   C313    1.360   .     S
C138   N339    1.442   .     S
C139   C486    1.360   1_545 S
C139   N514    1.442   1_545 S
C140   O171    1.301   .     A
C140   O173    1.296   .     A
Cu141  O167    1.977   .     S
Cu141  O174    1.910   .     S
Cu141  O170    1.970   .     S
Cu141  Cu142   2.690   .     S
Cu141  N162    2.021   .     S
Cu141  O171    1.933   .     S
Cu142  O168    1.977   .     S
Cu142  O173    1.910   .     S
Cu142  O169    1.970   .     S
Cu142  N161    2.021   .     S
Cu142  O172    1.933   .     S
H144   N163    1.045   .     S
H145   N164    1.043   .     S
H146   N164    1.046   .     S
H147   N165    1.045   .     S
H148   N165    1.046   .     S
H149   N166    1.045   .     S
H150   N166    1.046   .     S
H152   N46     1.029   1_655 S
H158   C5      1.084   1_655 S
H160   N163    1.046   .     S
N161   H35     1.029   1_655 S
N161   N46     1.284   1_655 S
N165   C486    1.442   1_545 S
N166   C313    1.442   .     S
C175   C196    1.427   .     S
C175   O225    1.286   .     A
C175   O227    1.291   .     A
C176   C178    1.464   .     S
C176   O230    1.300   .     A
C176   O232    1.296   .     A
C177   C183    1.396   .     A
C177   C181    1.395   .     A
C177   C198    1.464   .     S
C178   C182    1.396   .     A
C178   C184    1.395   .     A
C179   C188    1.406   .     A
C179   C181    1.391   .     A
C179   H332    1.084   1_455 S
C180   C189    1.405   .     A
C180   C182    1.393   .     A
C180   H275    1.084   .     S
C181   H215    1.083   .     S
C182   H214    1.083   .     S
C183   C185    1.409   .     A
C183   H213    1.072   .     S
C184   H212    1.077   .     S
C184   C187    1.408   .     A
C185   C190    1.439   .     A
C185   C188    1.418   .     A
C186   C197    1.427   .     S
C186   O226    1.286   .     A
C186   O228    1.291   .     A
C187   C191    1.432   .     A
C187   C189    1.413   .     A
C188   C716    1.385   .     S
C189   C717    1.384   1_554 S
C190   C193    1.436   .     A
C190   C713    1.438   .     S
C191   C192    1.431   .     A
C191   C712    1.438   1_554 S
C192   N221    1.439   .     S
C192   C194    1.394   .     A
C193   C195    1.394   .     A
C193   N222    1.431   .     S
C194   H201    1.085   .     S
C194   C710    1.385   1_554 S
C195   H211    1.085   .     S
C195   C711    1.384   .     S
C196   C371    1.360   .     S
C196   N397    1.442   .     S
C198   O229    1.301   .     A
C198   O231    1.296   .     A
Cu199  O225    1.977   .     S
Cu199  O232    1.910   .     S
Cu199  O228    1.970   .     S
Cu199  Cu200   2.690   .     S
Cu199  N220    2.021   .     S
Cu199  O229    1.933   .     S
Cu200  O226    1.977   .     S
Cu200  O231    1.910   .     S
Cu200  O227    1.970   .     S
Cu200  N219    2.021   .     S
Cu200  O230    1.933   .     S
H202   N221    1.045   .     S
H203   N222    1.043   .     S
H204   N222    1.046   .     S
H205   N223    1.045   .     S
H206   N223    1.046   .     S
H207   N224    1.045   .     S
H208   N224    1.046   .     S
H209   N335    1.029   1_455 S
H210   N278    1.029   .     S
H216   C237    1.084   .     S
H217   C296    1.084   1_455 S
H218   N221    1.046   .     S
N219   H267    1.029   .     S
N219   N278    1.284   .     S
N220   H326    1.029   1_455 S
N220   N335    1.284   1_455 S
N224   C371    1.442   .     S
C233   C254    1.427   .     S
C233   O283    1.286   .     A
C233   O285    1.291   .     A
C234   C236    1.464   .     S
C234   O288    1.300   .     A
C234   O290    1.296   .     A
C235   C241    1.396   .     A
C235   C239    1.395   .     A
C235   C256    1.464   .     S
C236   C240    1.396   .     A
C236   C242    1.395   .     A
C237   C246    1.406   .     A
C237   C239    1.391   .     A
C238   C247    1.405   .     A
C238   C240    1.393   .     A
C238   H333    1.084   .     S
C239   H273    1.083   .     S
C240   H272    1.083   .     S
C241   C243    1.409   .     A
C241   H271    1.072   .     S
C242   H270    1.077   .     S
C242   C245    1.408   .     A
C243   C248    1.439   .     A
C243   C246    1.418   .     A
C244   C255    1.427   .     S
C244   O284    1.286   .     A
C244   O286    1.291   .     A
C245   C249    1.432   .     A
C245   C247    1.413   .     A
C246   C774    1.385   .     S
C247   C775    1.384   1_554 S
C248   C251    1.436   .     A
C248   C771    1.438   .     S
C249   C250    1.431   .     A
C249   C770    1.438   1_554 S
C250   N279    1.439   .     S
C250   C252    1.394   .     A
C251   C253    1.394   .     A
C251   N280    1.431   .     S
C252   H259    1.085   .     S
C252   C768    1.385   1_554 S
C253   H269    1.085   .     S
C253   C769    1.384   .     S
C254   C429    1.360   .     S
C254   N455    1.442   .     S
C256   O287    1.301   .     A
C256   O289    1.296   .     A
Cu257  O283    1.977   .     S
Cu257  O290    1.910   .     S
Cu257  O286    1.970   .     S
Cu257  Cu258   2.690   .     S
Cu257  N278    2.021   .     S
Cu257  O287    1.933   .     S
Cu258  O284    1.977   .     S
Cu258  O289    1.910   .     S
Cu258  O285    1.970   .     S
Cu258  N277    2.021   .     S
Cu258  O288    1.933   .     S
H260   N279    1.045   .     S
H261   N280    1.043   .     S
H262   N280    1.046   .     S
H263   N281    1.045   .     S
H264   N281    1.046   .     S
H265   N282    1.045   .     S
H266   N282    1.046   .     S
H268   N336    1.029   .     S
H274   C295    1.084   .     S
H276   N279    1.046   .     S
N277   H325    1.029   .     S
N277   N336    1.284   .     S
N282   C429    1.442   .     S
C291   C312    1.427   .     S
C291   O341    1.286   .     A
C291   O343    1.291   .     A
C292   C294    1.464   .     S
C292   O346    1.300   .     A
C292   O348    1.296   .     A
C293   C299    1.396   .     A
C293   C297    1.395   .     A
C293   C314    1.464   .     S
C294   C298    1.396   .     A
C294   C300    1.395   .     A
C295   C304    1.406   .     A
C295   C297    1.391   .     A
C296   C305    1.405   .     A
C296   C298    1.393   .     A
C296   H217    1.084   1_655 S
C297   H331    1.083   .     S
C298   H330    1.083   .     S
C299   C301    1.409   .     A
C299   H329    1.072   .     S
C300   H328    1.077   .     S
C300   C303    1.408   .     A
C301   C306    1.439   .     A
C301   C304    1.418   .     A
C302   C313    1.427   .     S
C302   O342    1.286   .     A
C302   O344    1.291   .     A
C303   C307    1.432   .     A
C303   C305    1.413   .     A
C304   C832    1.385   .     S
C305   C833    1.384   1_554 S
C306   C309    1.436   .     A
C306   C829    1.438   .     S
C307   C308    1.431   .     A
C307   C828    1.438   1_554 S
C308   N337    1.439   .     S
C308   C310    1.394   .     A
C309   C311    1.394   .     A
C309   N338    1.431   .     S
C310   H317    1.085   .     S
C310   C826    1.385   1_554 S
C311   H327    1.085   .     S
C311   C827    1.384   .     S
C312   C487    1.360   .     S
C312   N513    1.442   .     S
C314   O345    1.301   .     A
C314   O347    1.296   .     A
Cu315  O341    1.977   .     S
Cu315  O348    1.910   .     S
Cu315  O344    1.970   .     S
Cu315  Cu316   2.690   .     S
Cu315  N336    2.021   .     S
Cu315  O345    1.933   .     S
Cu316  O342    1.977   .     S
Cu316  O347    1.910   .     S
Cu316  O343    1.970   .     S
Cu316  N335    2.021   .     S
Cu316  O346    1.933   .     S
H318   N337    1.045   .     S
H319   N338    1.043   .     S
H320   N338    1.046   .     S
H321   N339    1.045   .     S
H322   N339    1.046   .     S
H323   N340    1.045   .     S
H324   N340    1.046   .     S
H326   N220    1.029   1_655 S
H332   C179    1.084   1_655 S
H334   N337    1.046   .     S
N335   H209    1.029   1_655 S
N335   N220    1.284   1_655 S
N340   C487    1.442   .     S
C349   C370    1.427   .     S
C349   O399    1.286   .     A
C349   O401    1.291   .     A
C350   C352    1.464   .     S
C350   O404    1.300   .     A
C350   O406    1.296   .     A
C351   C357    1.396   .     A
C351   C355    1.395   .     A
C351   C372    1.464   .     S
C352   C356    1.396   .     A
C352   C358    1.395   .     A
C353   C362    1.406   .     A
C353   C355    1.391   .     A
C353   H506    1.084   1_455 S
C354   C363    1.405   .     A
C354   C356    1.393   .     A
C354   H449    1.084   .     S
C355   H389    1.083   .     S
C356   H388    1.083   .     S
C357   C359    1.409   .     A
C357   H387    1.072   .     S
C358   H386    1.077   .     S
C358   C361    1.408   .     A
C359   C364    1.439   .     A
C359   C362    1.418   .     A
C360   C371    1.427   .     S
C360   O400    1.286   .     A
C360   O402    1.291   .     A
C361   C365    1.432   .     A
C361   C363    1.413   .     A
C362   C890    1.385   .     S
C363   C891    1.384   1_554 S
C364   C367    1.436   .     A
C364   C887    1.438   .     S
C365   C366    1.431   .     A
C365   C886    1.438   1_554 S
C366   N395    1.439   .     S
C366   C368    1.394   .     A
C367   C369    1.394   .     A
C367   N396    1.431   .     S
C368   H375    1.085   .     S
C368   C884    1.385   1_554 S
C369   H385    1.085   .     S
C369   C885    1.384   .     S
C370   C23     1.360   1_565 S
C370   N49     1.442   1_565 S
C372   O403    1.301   .     A
C372   O405    1.296   .     A
Cu373  O399    1.977   .     S
Cu373  O406    1.910   .     S
Cu373  O402    1.970   .     S
Cu373  Cu374   2.690   .     S
Cu373  N394    2.021   .     S
Cu373  O403    1.933   .     S
Cu374  O400    1.977   .     S
Cu374  O405    1.910   .     S
Cu374  O401    1.970   .     S
Cu374  N393    2.021   .     S
Cu374  O404    1.933   .     S
H376   N395    1.045   .     S
H377   N396    1.043   .     S
H378   N396    1.046   .     S
H379   N397    1.045   .     S
H380   N397    1.046   .     S
H381   N398    1.045   .     S
H382   N398    1.046   .     S
H383   N509    1.029   1_455 S
H384   N452    1.029   .     S
H390   C411    1.084   .     S
H391   C470    1.084   1_455 S
H392   N395    1.046   .     S
N393   H441    1.029   .     S
N393   N452    1.284   .     S
N394   H500    1.029   1_455 S
N394   N509    1.284   1_455 S
N398   C23     1.442   1_565 S
C407   C428    1.427   .     S
C407   O457    1.286   .     A
C407   O459    1.291   .     A
C408   C410    1.464   .     S
C408   O462    1.300   .     A
C408   O464    1.296   .     A
C409   C415    1.396   .     A
C409   C413    1.395   .     A
C409   C430    1.464   .     S
C410   C414    1.396   .     A
C410   C416    1.395   .     A
C411   C420    1.406   .     A
C411   C413    1.391   .     A
C412   C421    1.405   .     A
C412   C414    1.393   .     A
C412   H507    1.084   .     S
C413   H447    1.083   .     S
C414   H446    1.083   .     S
C415   C417    1.409   .     A
C415   H445    1.072   .     S
C416   H444    1.077   .     S
C416   C419    1.408   .     A
C417   C422    1.439   .     A
C417   C420    1.418   .     A
C418   C429    1.427   .     S
C418   O458    1.286   .     A
C418   O460    1.291   .     A
C419   C423    1.432   .     A
C419   C421    1.413   .     A
C420   C948    1.385   .     S
C421   C949    1.384   1_554 S
C422   C425    1.436   .     A
C422   C945    1.438   .     S
C423   C424    1.431   .     A
C423   C944    1.438   1_554 S
C424   N453    1.439   .     S
C424   C426    1.394   .     A
C425   C427    1.394   .     A
C425   N454    1.431   .     S
C426   H433    1.085   .     S
C426   C942    1.385   1_554 S
C427   H443    1.085   .     S
C427   C943    1.384   .     S
C428   C81     1.360   1_565 S
C428   N107    1.442   1_565 S
C430   O461    1.301   .     A
C430   O463    1.296   .     A
Cu431  O457    1.977   .     S
Cu431  O464    1.910   .     S
Cu431  O460    1.970   .     S
Cu431  Cu432   2.690   .     S
Cu431  N452    2.021   .     S
Cu431  O461    1.933   .     S
Cu432  O458    1.977   .     S
Cu432  O463    1.910   .     S
Cu432  O459    1.970   .     S
Cu432  N451    2.021   .     S
Cu432  O462    1.933   .     S
H434   N453    1.045   .     S
H435   N454    1.043   .     S
H436   N454    1.046   .     S
H437   N455    1.045   .     S
H438   N455    1.046   .     S
H439   N456    1.045   .     S
H440   N456    1.046   .     S
H442   N510    1.029   .     S
H448   C469    1.084   .     S
H450   N453    1.046   .     S
N451   H499    1.029   .     S
N451   N510    1.284   .     S
N456   C81     1.442   1_565 S
C465   C486    1.427   .     S
C465   O515    1.286   .     A
C465   O517    1.291   .     A
C466   C468    1.464   .     S
C466   O520    1.300   .     A
C466   O522    1.296   .     A
C467   C473    1.396   .     A
C467   C471    1.395   .     A
C467   C488    1.464   .     S
C468   C472    1.396   .     A
C468   C474    1.395   .     A
C469   C478    1.406   .     A
C469   C471    1.391   .     A
C470   C479    1.405   .     A
C470   C472    1.393   .     A
C470   H391    1.084   1_655 S
C471   H505    1.083   .     S
C472   H504    1.083   .     S
C473   C475    1.409   .     A
C473   H503    1.072   .     S
C474   H502    1.077   .     S
C474   C477    1.408   .     A
C475   C480    1.439   .     A
C475   C478    1.418   .     A
C476   C487    1.427   .     S
C476   O516    1.286   .     A
C476   O518    1.291   .     A
C477   C481    1.432   .     A
C477   C479    1.413   .     A
C478   C1006   1.385   .     S
C479   C1007   1.384   1_554 S
C480   C483    1.436   .     A
C480   C1003   1.438   .     S
C481   C482    1.431   .     A
C481   C1002   1.438   1_554 S
C482   N511    1.439   .     S
C482   C484    1.394   .     A
C483   C485    1.394   .     A
C483   N512    1.431   .     S
C484   H491    1.085   .     S
C484   C1000   1.385   1_554 S
C485   H501    1.085   .     S
C485   C1001   1.384   .     S
C486   C139    1.360   1_565 S
C486   N165    1.442   1_565 S
C488   O519    1.301   .     A
C488   O521    1.296   .     A
Cu489  O515    1.977   .     S
Cu489  O522    1.910   .     S
Cu489  O518    1.970   .     S
Cu489  Cu490   2.690   .     S
Cu489  N510    2.021   .     S
Cu489  O519    1.933   .     S
Cu490  O516    1.977   .     S
Cu490  O521    1.910   .     S
Cu490  O517    1.970   .     S
Cu490  N509    2.021   .     S
Cu490  O520    1.933   .     S
H492   N511    1.045   .     S
H493   N512    1.043   .     S
H494   N512    1.046   .     S
H495   N513    1.045   .     S
H496   N513    1.046   .     S
H497   N514    1.045   .     S
H498   N514    1.046   .     S
H500   N394    1.029   1_655 S
H506   C353    1.084   1_655 S
H508   N511    1.046   .     S
N509   H383    1.029   1_655 S
N509   N394    1.284   1_655 S
N514   C139    1.442   1_565 S
C523   C544    1.427   .     S
C523   O573    1.286   .     A
C523   O575    1.291   .     A
C524   C526    1.464   .     S
C524   O578    1.300   .     A
C524   O580    1.296   .     A
C525   C531    1.396   .     A
C525   C529    1.395   .     A
C525   C546    1.464   .     S
C526   C530    1.396   .     A
C526   C532    1.395   .     A
C527   C536    1.406   .     A
C527   C529    1.391   .     A
C527   H680    1.084   1_455 S
C528   C537    1.405   .     A
C528   C530    1.393   .     A
C528   H623    1.084   .     S
C529   H563    1.083   .     S
C530   H562    1.083   .     S
C531   C533    1.409   .     A
C531   H561    1.072   .     S
C532   H560    1.077   .     S
C532   C535    1.408   .     A
C533   C538    1.439   .     A
C533   C536    1.418   .     A
C534   C545    1.427   .     S
C534   O574    1.286   .     A
C534   O576    1.291   .     A
C535   C539    1.432   .     A
C535   C537    1.413   .     A
C536   C20     1.385   1_556 S
C538   C541    1.436   .     A
C538   C17     1.438   1_556 S
C539   C540    1.431   .     A
C540   N569    1.439   .     S
C540   C542    1.394   .     A
C541   C543    1.394   .     A
C541   N570    1.431   .     S
C542   H549    1.085   .     S
C543   H559    1.085   .     S
C543   C15     1.384   1_556 S
C544   C719    1.360   .     S
C544   N745    1.442   .     S
C545   C892    1.360   1_545 S
C545   N920    1.442   1_545 S
C546   O577    1.301   .     A
C546   O579    1.296   .     A
Cu547  O573    1.977   .     S
Cu547  O580    1.910   .     S
Cu547  O576    1.970   .     S
Cu547  Cu548   2.690   .     S
Cu547  N568    2.021   .     S
Cu547  O577    1.933   .     S
Cu548  O574    1.977   .     S
Cu548  O579    1.910   .     S
Cu548  O575    1.970   .     S
Cu548  N567    2.021   .     S
Cu548  O578    1.933   .     S
H550   N569    1.045   .     S
H551   N570    1.043   .     S
H552   N570    1.046   .     S
H553   N571    1.045   .     S
H554   N571    1.046   .     S
H555   N572    1.045   .     S
H556   N572    1.046   .     S
H557   N683    1.029   1_455 S
H558   N626    1.029   .     S
H564   C585    1.084   .     S
H565   C644    1.084   1_455 S
H566   N569    1.046   .     S
N567   H615    1.029   .     S
N567   N626    1.284   .     S
N568   H674    1.029   1_455 S
N568   N683    1.284   1_455 S
N571   C892    1.442   1_545 S
N572   C719    1.442   .     S
C581   C602    1.427   .     S
C581   O631    1.286   .     A
C581   O633    1.291   .     A
C582   C584    1.464   .     S
C582   O636    1.300   .     A
C582   O638    1.296   .     A
C583   C589    1.396   .     A
C583   C587    1.395   .     A
C583   C604    1.464   .     S
C584   C588    1.396   .     A
C584   C590    1.395   .     A
C585   C594    1.406   .     A
C585   C587    1.391   .     A
C586   C595    1.405   .     A
C586   C588    1.393   .     A
C586   H681    1.084   .     S
C587   H621    1.083   .     S
C588   H620    1.083   .     S
C589   C591    1.409   .     A
C589   H619    1.072   .     S
C590   H618    1.077   .     S
C590   C593    1.408   .     A
C591   C596    1.439   .     A
C591   C594    1.418   .     A
C592   C603    1.427   .     S
C592   O632    1.286   .     A
C592   O634    1.291   .     A
C593   C597    1.432   .     A
C593   C595    1.413   .     A
C594   C78     1.385   1_556 S
C596   C599    1.436   .     A
C596   C75     1.438   1_556 S
C597   C598    1.431   .     A
C598   N627    1.439   .     S
C598   C600    1.394   .     A
C599   C601    1.394   .     A
C599   N628    1.431   .     S
C600   H607    1.085   .     S
C601   H617    1.085   .     S
C601   C73     1.384   1_556 S
C602   C777    1.360   .     S
C602   N803    1.442   .     S
C603   C950    1.360   1_545 S
C603   N978    1.442   1_545 S
C604   O635    1.301   .     A
C604   O637    1.296   .     A
Cu605  O631    1.977   .     S
Cu605  O638    1.910   .     S
Cu605  O634    1.970   .     S
Cu605  Cu606   2.690   .     S
Cu605  N626    2.021   .     S
Cu605  O635    1.933   .     S
Cu606  O632    1.977   .     S
Cu606  O637    1.910   .     S
Cu606  O633    1.970   .     S
Cu606  N625    2.021   .     S
Cu606  O636    1.933   .     S
H608   N627    1.045   .     S
H609   N628    1.043   .     S
H610   N628    1.046   .     S
H611   N629    1.045   .     S
H612   N629    1.046   .     S
H613   N630    1.045   .     S
H614   N630    1.046   .     S
H616   N684    1.029   .     S
H622   C643    1.084   .     S
H624   N627    1.046   .     S
N625   H673    1.029   .     S
N625   N684    1.284   .     S
N629   C950    1.442   1_545 S
N630   C777    1.442   .     S
C639   C660    1.427   .     S
C639   O689    1.286   .     A
C639   O691    1.291   .     A
C640   C642    1.464   .     S
C640   O694    1.300   .     A
C640   O696    1.296   .     A
C641   C647    1.396   .     A
C641   C645    1.395   .     A
C641   C662    1.464   .     S
C642   C646    1.396   .     A
C642   C648    1.395   .     A
C643   C652    1.406   .     A
C643   C645    1.391   .     A
C644   C653    1.405   .     A
C644   C646    1.393   .     A
C644   H565    1.084   1_655 S
C645   H679    1.083   .     S
C646   H678    1.083   .     S
C647   C649    1.409   .     A
C647   H677    1.072   .     S
C648   H676    1.077   .     S
C648   C651    1.408   .     A
C649   C654    1.439   .     A
C649   C652    1.418   .     A
C650   C661    1.427   .     S
C650   O690    1.286   .     A
C650   O692    1.291   .     A
C651   C655    1.432   .     A
C651   C653    1.413   .     A
C652   C136    1.385   1_556 S
C654   C657    1.436   .     A
C654   C133    1.438   1_556 S
C655   C656    1.431   .     A
C656   N685    1.439   .     S
C656   C658    1.394   .     A
C657   C659    1.394   .     A
C657   N686    1.431   .     S
C658   H665    1.085   .     S
C659   H675    1.085   .     S
C659   C131    1.384   1_556 S
C660   C835    1.360   .     S
C660   N861    1.442   .     S
C661   C1008   1.360   1_545 S
C661   N1036   1.442   1_545 S
C662   O693    1.301   .     A
C662   O695    1.296   .     A
Cu663  O689    1.977   .     S
Cu663  O696    1.910   .     S
Cu663  O692    1.970   .     S
Cu663  Cu664   2.690   .     S
Cu663  N684    2.021   .     S
Cu663  O693    1.933   .     S
Cu664  O690    1.977   .     S
Cu664  O695    1.910   .     S
Cu664  O691    1.970   .     S
Cu664  N683    2.021   .     S
Cu664  O694    1.933   .     S
H666   N685    1.045   .     S
H667   N686    1.043   .     S
H668   N686    1.046   .     S
H669   N687    1.045   .     S
H670   N687    1.046   .     S
H671   N688    1.045   .     S
H672   N688    1.046   .     S
H674   N568    1.029   1_655 S
H680   C527    1.084   1_655 S
H682   N685    1.046   .     S
N683   H557    1.029   1_655 S
N683   N568    1.284   1_655 S
N687   C1008   1.442   1_545 S
N688   C835    1.442   .     S
C697   C718    1.427   .     S
C697   O747    1.286   .     A
C697   O749    1.291   .     A
C698   C700    1.464   .     S
C698   O752    1.300   .     A
C698   O754    1.296   .     A
C699   C705    1.396   .     A
C699   C703    1.395   .     A
C699   C720    1.464   .     S
C700   C704    1.396   .     A
C700   C706    1.395   .     A
C701   C710    1.406   .     A
C701   C703    1.391   .     A
C701   H854    1.084   1_455 S
C702   C711    1.405   .     A
C702   C704    1.393   .     A
C702   H797    1.084   .     S
C703   H737    1.083   .     S
C704   H736    1.083   .     S
C705   C707    1.409   .     A
C705   H735    1.072   .     S
C706   H734    1.077   .     S
C706   C709    1.408   .     A
C707   C712    1.439   .     A
C707   C710    1.418   .     A
C708   C719    1.427   .     S
C708   O748    1.286   .     A
C708   O750    1.291   .     A
C709   C713    1.432   .     A
C709   C711    1.413   .     A
C710   C194    1.385   1_556 S
C712   C715    1.436   .     A
C712   C191    1.438   1_556 S
C713   C714    1.431   .     A
C714   N743    1.439   .     S
C714   C716    1.394   .     A
C715   C717    1.394   .     A
C715   N744    1.431   .     S
C716   H723    1.085   .     S
C717   H733    1.085   .     S
C717   C189    1.384   1_556 S
C718   C893    1.360   .     S
C718   N919    1.442   .     S
C720   O751    1.301   .     A
C720   O753    1.296   .     A
Cu721  O747    1.977   .     S
Cu721  O754    1.910   .     S
Cu721  O750    1.970   .     S
Cu721  Cu722   2.690   .     S
Cu721  N742    2.021   .     S
Cu721  O751    1.933   .     S
Cu722  O748    1.977   .     S
Cu722  O753    1.910   .     S
Cu722  O749    1.970   .     S
Cu722  N741    2.021   .     S
Cu722  O752    1.933   .     S
H724   N743    1.045   .     S
H725   N744    1.043   .     S
H726   N744    1.046   .     S
H727   N745    1.045   .     S
H728   N745    1.046   .     S
H729   N746    1.045   .     S
H730   N746    1.046   .     S
H731   N857    1.029   1_455 S
H732   N800    1.029   .     S
H738   C759    1.084   .     S
H739   C818    1.084   1_455 S
H740   N743    1.046   .     S
N741   H789    1.029   .     S
N741   N800    1.284   .     S
N742   H848    1.029   1_455 S
N742   N857    1.284   1_455 S
N746   C893    1.442   .     S
C755   C776    1.427   .     S
C755   O805    1.286   .     A
C755   O807    1.291   .     A
C756   C758    1.464   .     S
C756   O810    1.300   .     A
C756   O812    1.296   .     A
C757   C763    1.396   .     A
C757   C761    1.395   .     A
C757   C778    1.464   .     S
C758   C762    1.396   .     A
C758   C764    1.395   .     A
C759   C768    1.406   .     A
C759   C761    1.391   .     A
C760   C769    1.405   .     A
C760   C762    1.393   .     A
C760   H855    1.084   .     S
C761   H795    1.083   .     S
C762   H794    1.083   .     S
C763   C765    1.409   .     A
C763   H793    1.072   .     S
C764   H792    1.077   .     S
C764   C767    1.408   .     A
C765   C770    1.439   .     A
C765   C768    1.418   .     A
C766   C777    1.427   .     S
C766   O806    1.286   .     A
C766   O808    1.291   .     A
C767   C771    1.432   .     A
C767   C769    1.413   .     A
C768   C252    1.385   1_556 S
C770   C773    1.436   .     A
C770   C249    1.438   1_556 S
C771   C772    1.431   .     A
C772   N801    1.439   .     S
C772   C774    1.394   .     A
C773   C775    1.394   .     A
C773   N802    1.431   .     S
C774   H781    1.085   .     S
C775   H791    1.085   .     S
C775   C247    1.384   1_556 S
C776   C951    1.360   .     S
C776   N977    1.442   .     S
C778   O809    1.301   .     A
C778   O811    1.296   .     A
Cu779  O805    1.977   .     S
Cu779  O812    1.910   .     S
Cu779  O808    1.970   .     S
Cu779  Cu780   2.690   .     S
Cu779  N800    2.021   .     S
Cu779  O809    1.933   .     S
Cu780  O806    1.977   .     S
Cu780  O811    1.910   .     S
Cu780  O807    1.970   .     S
Cu780  N799    2.021   .     S
Cu780  O810    1.933   .     S
H782   N801    1.045   .     S
H783   N802    1.043   .     S
H784   N802    1.046   .     S
H785   N803    1.045   .     S
H786   N803    1.046   .     S
H787   N804    1.045   .     S
H788   N804    1.046   .     S
H790   N858    1.029   .     S
H796   C817    1.084   .     S
H798   N801    1.046   .     S
N799   H847    1.029   .     S
N799   N858    1.284   .     S
N804   C951    1.442   .     S
C813   C834    1.427   .     S
C813   O863    1.286   .     A
C813   O865    1.291   .     A
C814   C816    1.464   .     S
C814   O868    1.300   .     A
C814   O870    1.296   .     A
C815   C821    1.396   .     A
C815   C819    1.395   .     A
C815   C836    1.464   .     S
C816   C820    1.396   .     A
C816   C822    1.395   .     A
C817   C826    1.406   .     A
C817   C819    1.391   .     A
C818   C827    1.405   .     A
C818   C820    1.393   .     A
C818   H739    1.084   1_655 S
C819   H853    1.083   .     S
C820   H852    1.083   .     S
C821   C823    1.409   .     A
C821   H851    1.072   .     S
C822   H850    1.077   .     S
C822   C825    1.408   .     A
C823   C828    1.439   .     A
C823   C826    1.418   .     A
C824   C835    1.427   .     S
C824   O864    1.286   .     A
C824   O866    1.291   .     A
C825   C829    1.432   .     A
C825   C827    1.413   .     A
C826   C310    1.385   1_556 S
C828   C831    1.436   .     A
C828   C307    1.438   1_556 S
C829   C830    1.431   .     A
C830   N859    1.439   .     S
C830   C832    1.394   .     A
C831   C833    1.394   .     A
C831   N860    1.431   .     S
C832   H839    1.085   .     S
C833   H849    1.085   .     S
C833   C305    1.384   1_556 S
C834   C1009   1.360   .     S
C834   N1035   1.442   .     S
C836   O867    1.301   .     A
C836   O869    1.296   .     A
Cu837  O863    1.977   .     S
Cu837  O870    1.910   .     S
Cu837  O866    1.970   .     S
Cu837  Cu838   2.690   .     S
Cu837  N858    2.021   .     S
Cu837  O867    1.933   .     S
Cu838  O864    1.977   .     S
Cu838  O869    1.910   .     S
Cu838  O865    1.970   .     S
Cu838  N857    2.021   .     S
Cu838  O868    1.933   .     S
H840   N859    1.045   .     S
H841   N860    1.043   .     S
H842   N860    1.046   .     S
H843   N861    1.045   .     S
H844   N861    1.046   .     S
H845   N862    1.045   .     S
H846   N862    1.046   .     S
H848   N742    1.029   1_655 S
H854   C701    1.084   1_655 S
H856   N859    1.046   .     S
N857   H731    1.029   1_655 S
N857   N742    1.284   1_655 S
N862   C1009   1.442   .     S
C871   C892    1.427   .     S
C871   O921    1.286   .     A
C871   O923    1.291   .     A
C872   C874    1.464   .     S
C872   O926    1.300   .     A
C872   O928    1.296   .     A
C873   C879    1.396   .     A
C873   C877    1.395   .     A
C873   C894    1.464   .     S
C874   C878    1.396   .     A
C874   C880    1.395   .     A
C875   C884    1.406   .     A
C875   C877    1.391   .     A
C875   H1028   1.084   1_455 S
C876   C885    1.405   .     A
C876   C878    1.393   .     A
C876   H971    1.084   .     S
C877   H911    1.083   .     S
C878   H910    1.083   .     S
C879   C881    1.409   .     A
C879   H909    1.072   .     S
C880   H908    1.077   .     S
C880   C883    1.408   .     A
C881   C886    1.439   .     A
C881   C884    1.418   .     A
C882   C893    1.427   .     S
C882   O922    1.286   .     A
C882   O924    1.291   .     A
C883   C887    1.432   .     A
C883   C885    1.413   .     A
C884   C368    1.385   1_556 S
C886   C889    1.436   .     A
C886   C365    1.438   1_556 S
C887   C888    1.431   .     A
C888   N917    1.439   .     S
C888   C890    1.394   .     A
C889   C891    1.394   .     A
C889   N918    1.431   .     S
C890   H897    1.085   .     S
C891   H907    1.085   .     S
C891   C363    1.384   1_556 S
C892   C545    1.360   1_565 S
C892   N571    1.442   1_565 S
C894   O925    1.301   .     A
C894   O927    1.296   .     A
Cu895  O921    1.977   .     S
Cu895  O928    1.910   .     S
Cu895  O924    1.970   .     S
Cu895  Cu896   2.690   .     S
Cu895  N916    2.021   .     S
Cu895  O925    1.933   .     S
Cu896  O922    1.977   .     S
Cu896  O927    1.910   .     S
Cu896  O923    1.970   .     S
Cu896  N915    2.021   .     S
Cu896  O926    1.933   .     S
H898   N917    1.045   .     S
H899   N918    1.043   .     S
H900   N918    1.046   .     S
H901   N919    1.045   .     S
H902   N919    1.046   .     S
H903   N920    1.045   .     S
H904   N920    1.046   .     S
H905   N1031   1.029   1_455 S
H906   N974    1.029   .     S
H912   C933    1.084   .     S
H913   C992    1.084   1_455 S
H914   N917    1.046   .     S
N915   H963    1.029   .     S
N915   N974    1.284   .     S
N916   H1022   1.029   1_455 S
N916   N1031   1.284   1_455 S
N920   C545    1.442   1_565 S
C929   C950    1.427   .     S
C929   O979    1.286   .     A
C929   O981    1.291   .     A
C930   C932    1.464   .     S
C930   O984    1.300   .     A
C930   O986    1.296   .     A
C931   C937    1.396   .     A
C931   C935    1.395   .     A
C931   C952    1.464   .     S
C932   C936    1.396   .     A
C932   C938    1.395   .     A
C933   C942    1.406   .     A
C933   C935    1.391   .     A
C934   C943    1.405   .     A
C934   C936    1.393   .     A
C934   H1029   1.084   .     S
C935   H969    1.083   .     S
C936   H968    1.083   .     S
C937   C939    1.409   .     A
C937   H967    1.072   .     S
C938   H966    1.077   .     S
C938   C941    1.408   .     A
C939   C944    1.439   .     A
C939   C942    1.418   .     A
C940   C951    1.427   .     S
C940   O980    1.286   .     A
C940   O982    1.291   .     A
C941   C945    1.432   .     A
C941   C943    1.413   .     A
C942   C426    1.385   1_556 S
C944   C947    1.436   .     A
C944   C423    1.438   1_556 S
C945   C946    1.431   .     A
C946   N975    1.439   .     S
C946   C948    1.394   .     A
C947   C949    1.394   .     A
C947   N976    1.431   .     S
C948   H955    1.085   .     S
C949   H965    1.085   .     S
C949   C421    1.384   1_556 S
C950   C603    1.360   1_565 S
C950   N629    1.442   1_565 S
C952   O983    1.301   .     A
C952   O985    1.296   .     A
Cu953  O979    1.977   .     S
Cu953  O986    1.910   .     S
Cu953  O982    1.970   .     S
Cu953  Cu954   2.690   .     S
Cu953  N974    2.021   .     S
Cu953  O983    1.933   .     S
Cu954  O980    1.977   .     S
Cu954  O985    1.910   .     S
Cu954  O981    1.970   .     S
Cu954  N973    2.021   .     S
Cu954  O984    1.933   .     S
H956   N975    1.045   .     S
H957   N976    1.043   .     S
H958   N976    1.046   .     S
H959   N977    1.045   .     S
H960   N977    1.046   .     S
H961   N978    1.045   .     S
H962   N978    1.046   .     S
H964   N1032   1.029   .     S
H970   C991    1.084   .     S
H972   N975    1.046   .     S
N973   H1021   1.029   .     S
N973   N1032   1.284   .     S
N978   C603    1.442   1_565 S
C987   C1008   1.427   .     S
C987   O1037   1.286   .     A
C987   O1039   1.291   .     A
C988   C990    1.464   .     S
C988   O1042   1.300   .     A
C988   O1044   1.296   .     A
C989   C995    1.396   .     A
C989   C993    1.395   .     A
C989   C1010   1.464   .     S
C990   C994    1.396   .     A
C990   C996    1.395   .     A
C991   C1000   1.406   .     A
C991   C993    1.391   .     A
C992   C1001   1.405   .     A
C992   C994    1.393   .     A
C992   H913    1.084   1_655 S
C993   H1027   1.083   .     S
C994   H1026   1.083   .     S
C995   C997    1.409   .     A
C995   H1025   1.072   .     S
C996   H1024   1.077   .     S
C996   C999    1.408   .     A
C997   C1002   1.439   .     A
C997   C1000   1.418   .     A
C998   C1009   1.427   .     S
C998   O1038   1.286   .     A
C998   O1040   1.291   .     A
C999   C1003   1.432   .     A
C999   C1001   1.413   .     A
C1000  C484    1.385   1_556 S
C1002  C1005   1.436   .     A
C1002  C481    1.438   1_556 S
C1003  C1004   1.431   .     A
C1004  N1033   1.439   .     S
C1004  C1006   1.394   .     A
C1005  C1007   1.394   .     A
C1005  N1034   1.431   .     S
C1006  H1013   1.085   .     S
C1007  H1023   1.085   .     S
C1007  C479    1.384   1_556 S
C1008  C661    1.360   1_565 S
C1008  N687    1.442   1_565 S
C1010  O1041   1.301   .     A
C1010  O1043   1.296   .     A
Cu1011 O1037   1.977   .     S
Cu1011 O1044   1.910   .     S
Cu1011 O1040   1.970   .     S
Cu1011 Cu1012  2.690   .     S
Cu1011 N1032   2.021   .     S
Cu1011 O1041   1.933   .     S
Cu1012 O1038   1.977   .     S
Cu1012 O1043   1.910   .     S
Cu1012 O1039   1.970   .     S
Cu1012 N1031   2.021   .     S
Cu1012 O1042   1.933   .     S
H1014  N1033   1.045   .     S
H1015  N1034   1.043   .     S
H1016  N1034   1.046   .     S
H1017  N1035   1.045   .     S
H1018  N1035   1.046   .     S
H1019  N1036   1.045   .     S
H1020  N1036   1.046   .     S
H1022  N916    1.029   1_655 S
H1028  C875    1.084   1_655 S
H1030  N1033   1.046   .     S
N1031  H905    1.029   1_655 S
N1031  N916    1.284   1_655 S
N1036  C661    1.442   1_565 S
