data_str_m2_o10_o17_pcu_sym.19
_audit_creation_date              2020-01-03
_audit_creation_method            'Materials Studio'
_symmetry_space_group_name_H-M    'P1'
_symmetry_Int_Tables_number       1
_symmetry_cell_setting            triclinic
loop_
_symmetry_equiv_pos_as_xyz
  x,y,z
_cell_length_a                    30.0003
_cell_length_b                    25.9813
_cell_length_c                    22.5473
_cell_angle_alpha                 102.7151
_cell_angle_beta                  95.1316
_cell_angle_gamma                 93.3040
loop_
_atom_site_label
_atom_site_type_symbol
_atom_site_fract_x
_atom_site_fract_y
_atom_site_fract_z
_atom_site_U_iso_or_equiv
_atom_site_adp_type
_atom_site_occupancy
C1     C     0.24854   0.06667   0.15115   0.00000  Uiso   1.00
C2     C     0.09030   0.11785   0.15512   0.00000  Uiso   1.00
C3     C     0.38340   0.16698   0.16565   0.00000  Uiso   1.00
C4     C     0.11660   0.16635   0.16768   0.00000  Uiso   1.00
C5     C     0.40294   0.11835   0.15310   0.00000  Uiso   1.00
C6     C     0.09706   0.21498   0.18023   0.00000  Uiso   1.00
C7     C     0.44966   0.11815   0.15341   0.00000  Uiso   1.00
C8     C     0.05034   0.21519   0.17992   0.00000  Uiso   1.00
C9     C     0.47648   0.16673   0.16633   0.00000  Uiso   1.00
C10    C     0.02352   0.16661   0.16700   0.00000  Uiso   1.00
C11    C     0.45642   0.21543   0.17865   0.00000  Uiso   1.00
C12    C     0.25146   0.26667   0.18218   0.00000  Uiso   1.00
C13    C     0.04358   0.11790   0.15468   0.00000  Uiso   1.00
C14    C     0.47014   0.07024   0.14121   0.00000  Uiso   1.00
C15    C     0.02986   0.26309   0.19212   0.00000  Uiso   1.00
C16    C     0.17663   0.09568   0.32282   0.00000  Uiso   1.00
C17    C     0.32337   0.23765   0.01051   0.00000  Uiso   1.00
C18    C     0.01644   0.07012   0.14185   0.00000  Uiso   1.00
C19    C     0.48356   0.26321   0.19148   0.00000  Uiso   1.00
C20    C     0.24784   0.01064   0.14250   0.00000  Uiso   1.00
C21    C     0.25216   0.32269   0.19083   0.00000  Uiso   1.00
C22    C     0.16471   0.16626   0.16695   0.00000  Uiso   1.00
C23    C     0.33529   0.16707   0.16638   0.00000  Uiso   1.00
C24    C     0.40970   0.21548   0.17821   0.00000  Uiso   1.00
Cu25   Cu    0.25501   0.17246   0.22813   0.00000  Uiso   1.00
Cu26   Cu    0.24500   0.16087   0.10521   0.00000  Uiso   1.00
H27    H     0.45050   0.03247   0.13099   0.00000  Uiso   1.00
H28    H     0.13418   0.06771   0.17979   0.00000  Uiso   1.00
H29    H     0.35764   0.06808   0.17809   0.00000  Uiso   1.00
H30    H     0.35269   0.06746   0.10233   0.00000  Uiso   1.00
H31    H     0.14236   0.26525   0.15524   0.00000  Uiso   1.00
H32    H     0.14731   0.26588   0.23101   0.00000  Uiso   1.00
H33    H     0.15690   0.13116   0.32825   0.00000  Uiso   1.00
H34    H     0.17763   0.07891   0.03052   0.00000  Uiso   1.00
H35    H     0.15881   0.06499   0.28465   0.00000  Uiso   1.00
H36    H     0.32237   0.25443   0.30281   0.00000  Uiso   1.00
H37    H     0.34310   0.20217   0.00509   0.00000  Uiso   1.00
H38    H     0.04950   0.30087   0.20234   0.00000  Uiso   1.00
H39    H     0.34119   0.26835   0.04868   0.00000  Uiso   1.00
H40    H     0.03079   0.03225   0.13203   0.00000  Uiso   1.00
H41    H     0.46921   0.30108   0.20131   0.00000  Uiso   1.00
H42    H     0.24375   0.32015   0.09593   0.00000  Uiso   1.00
H43    H     0.25625   0.01319   0.23740   0.00000  Uiso   1.00
H44    H     0.37219   0.26704   0.22934   0.00000  Uiso   1.00
H45    H     0.36582   0.26562   0.15354   0.00000  Uiso   1.00
H46    H     0.12781   0.06629   0.10400   0.00000  Uiso   1.00
N47    N     0.23745   0.15214   0.01284   0.00000  Uiso   1.00
N48    N     0.26256   0.18119   0.32049   0.00000  Uiso   1.00
N49    N     0.38918   0.26487   0.19053   0.00000  Uiso   1.00
N50    N     0.11082   0.06847   0.14280   0.00000  Uiso   1.00
N51    N     0.37558   0.06912   0.14063   0.00000  Uiso   1.00
N52    N     0.12442   0.26422   0.19271   0.00000  Uiso   1.00
O53    O     0.25326   0.09538   0.20659   0.00000  Uiso   1.00
O54    O     0.27986   0.22677   0.02515   0.00000  Uiso   1.00
O55    O     0.24675   0.23796   0.12674   0.00000  Uiso   1.00
O56    O     0.24480   0.08559   0.10279   0.00000  Uiso   1.00
O57    O     0.25520   0.24774   0.23055   0.00000  Uiso   1.00
O58    O     0.18936   0.17155   0.21857   0.00000  Uiso   1.00
O59    O     0.31065   0.16179   0.11476   0.00000  Uiso   1.00
O60    O     0.18090   0.16176   0.11477   0.00000  Uiso   1.00
O61    O     0.31910   0.17157   0.21857   0.00000  Uiso   1.00
O62    O     0.22014   0.10656   0.30818   0.00000  Uiso   1.00
C63    C     0.74854   0.06667   0.15115   0.00000  Uiso   1.00
C64    C     0.59030   0.11785   0.15512   0.00000  Uiso   1.00
C65    C     0.88340   0.16698   0.16565   0.00000  Uiso   1.00
C66    C     0.61660   0.16635   0.16768   0.00000  Uiso   1.00
C67    C     0.90294   0.11835   0.15310   0.00000  Uiso   1.00
C68    C     0.59706   0.21498   0.18023   0.00000  Uiso   1.00
C69    C     0.94966   0.11815   0.15341   0.00000  Uiso   1.00
C70    C     0.55034   0.21519   0.17992   0.00000  Uiso   1.00
C71    C     0.97648   0.16673   0.16633   0.00000  Uiso   1.00
C72    C     0.52352   0.16661   0.16700   0.00000  Uiso   1.00
C73    C     0.95642   0.21543   0.17865   0.00000  Uiso   1.00
C74    C     0.75146   0.26667   0.18218   0.00000  Uiso   1.00
C75    C     0.54358   0.11790   0.15468   0.00000  Uiso   1.00
C76    C     0.97014   0.07024   0.14121   0.00000  Uiso   1.00
C77    C     0.52986   0.26309   0.19212   0.00000  Uiso   1.00
C78    C     0.67663   0.09568   0.32282   0.00000  Uiso   1.00
C79    C     0.82337   0.23765   0.01051   0.00000  Uiso   1.00
C80    C     0.51644   0.07012   0.14185   0.00000  Uiso   1.00
C81    C     0.98356   0.26321   0.19148   0.00000  Uiso   1.00
C82    C     0.74784   0.01064   0.14250   0.00000  Uiso   1.00
C83    C     0.75216   0.32269   0.19083   0.00000  Uiso   1.00
C84    C     0.66471   0.16626   0.16695   0.00000  Uiso   1.00
C85    C     0.83529   0.16707   0.16638   0.00000  Uiso   1.00
C86    C     0.90970   0.21548   0.17821   0.00000  Uiso   1.00
Cu87   Cu    0.75501   0.17246   0.22813   0.00000  Uiso   1.00
Cu88   Cu    0.74500   0.16087   0.10521   0.00000  Uiso   1.00
H89    H     0.95050   0.03247   0.13099   0.00000  Uiso   1.00
H90    H     0.63418   0.06771   0.17979   0.00000  Uiso   1.00
H91    H     0.85764   0.06808   0.17809   0.00000  Uiso   1.00
H92    H     0.85269   0.06746   0.10233   0.00000  Uiso   1.00
H93    H     0.64236   0.26525   0.15524   0.00000  Uiso   1.00
H94    H     0.64731   0.26588   0.23101   0.00000  Uiso   1.00
H95    H     0.65690   0.13116   0.32825   0.00000  Uiso   1.00
H96    H     0.67763   0.07891   0.03052   0.00000  Uiso   1.00
H97    H     0.65881   0.06499   0.28465   0.00000  Uiso   1.00
H98    H     0.82237   0.25443   0.30281   0.00000  Uiso   1.00
H99    H     0.84310   0.20217   0.00509   0.00000  Uiso   1.00
H100   H     0.54950   0.30087   0.20234   0.00000  Uiso   1.00
H101   H     0.84119   0.26835   0.04868   0.00000  Uiso   1.00
H102   H     0.53079   0.03225   0.13203   0.00000  Uiso   1.00
H103   H     0.96921   0.30108   0.20131   0.00000  Uiso   1.00
H104   H     0.74375   0.32015   0.09593   0.00000  Uiso   1.00
H105   H     0.75625   0.01319   0.23740   0.00000  Uiso   1.00
H106   H     0.87219   0.26704   0.22934   0.00000  Uiso   1.00
H107   H     0.86582   0.26562   0.15354   0.00000  Uiso   1.00
H108   H     0.62781   0.06629   0.10400   0.00000  Uiso   1.00
N109   N     0.73745   0.15214   0.01284   0.00000  Uiso   1.00
N110   N     0.76256   0.18119   0.32049   0.00000  Uiso   1.00
N111   N     0.88918   0.26487   0.19053   0.00000  Uiso   1.00
N112   N     0.61082   0.06847   0.14280   0.00000  Uiso   1.00
N113   N     0.87558   0.06912   0.14063   0.00000  Uiso   1.00
N114   N     0.62442   0.26422   0.19271   0.00000  Uiso   1.00
O115   O     0.75326   0.09538   0.20659   0.00000  Uiso   1.00
O116   O     0.77986   0.22677   0.02515   0.00000  Uiso   1.00
O117   O     0.74675   0.23796   0.12674   0.00000  Uiso   1.00
O118   O     0.74480   0.08559   0.10279   0.00000  Uiso   1.00
O119   O     0.75520   0.24774   0.23055   0.00000  Uiso   1.00
O120   O     0.68936   0.17155   0.21857   0.00000  Uiso   1.00
O121   O     0.81065   0.16179   0.11476   0.00000  Uiso   1.00
O122   O     0.68090   0.16176   0.11477   0.00000  Uiso   1.00
O123   O     0.81910   0.17157   0.21857   0.00000  Uiso   1.00
O124   O     0.72014   0.10656   0.30818   0.00000  Uiso   1.00
C125   C     0.24854   0.40000   0.15115   0.00000  Uiso   1.00
C126   C     0.09030   0.45119   0.15512   0.00000  Uiso   1.00
C127   C     0.38340   0.50031   0.16565   0.00000  Uiso   1.00
C128   C     0.11660   0.49969   0.16768   0.00000  Uiso   1.00
C129   C     0.40294   0.45169   0.15310   0.00000  Uiso   1.00
C130   C     0.09706   0.54831   0.18023   0.00000  Uiso   1.00
C131   C     0.44966   0.45148   0.15341   0.00000  Uiso   1.00
C132   C     0.05034   0.54852   0.17992   0.00000  Uiso   1.00
C133   C     0.47648   0.50006   0.16633   0.00000  Uiso   1.00
C134   C     0.02352   0.49994   0.16700   0.00000  Uiso   1.00
C135   C     0.45642   0.54877   0.17865   0.00000  Uiso   1.00
C136   C     0.25146   0.60000   0.18218   0.00000  Uiso   1.00
C137   C     0.04358   0.45123   0.15468   0.00000  Uiso   1.00
C138   C     0.47014   0.40358   0.14121   0.00000  Uiso   1.00
C139   C     0.02986   0.59642   0.19212   0.00000  Uiso   1.00
C140   C     0.17663   0.42902   0.32282   0.00000  Uiso   1.00
C141   C     0.32337   0.57098   0.01051   0.00000  Uiso   1.00
C142   C     0.01644   0.40345   0.14185   0.00000  Uiso   1.00
C143   C     0.48356   0.59655   0.19148   0.00000  Uiso   1.00
C144   C     0.24784   0.34397   0.14250   0.00000  Uiso   1.00
C145   C     0.25216   0.65603   0.19083   0.00000  Uiso   1.00
C146   C     0.16471   0.49960   0.16695   0.00000  Uiso   1.00
C147   C     0.33529   0.50040   0.16638   0.00000  Uiso   1.00
C148   C     0.40970   0.54881   0.17821   0.00000  Uiso   1.00
Cu149  Cu    0.25501   0.50579   0.22813   0.00000  Uiso   1.00
Cu150  Cu    0.24500   0.49421   0.10521   0.00000  Uiso   1.00
H151   H     0.45050   0.36580   0.13099   0.00000  Uiso   1.00
H152   H     0.13418   0.40104   0.17979   0.00000  Uiso   1.00
H153   H     0.35764   0.40142   0.17809   0.00000  Uiso   1.00
H154   H     0.35269   0.40079   0.10233   0.00000  Uiso   1.00
H155   H     0.14236   0.59858   0.15524   0.00000  Uiso   1.00
H156   H     0.14731   0.59921   0.23101   0.00000  Uiso   1.00
H157   H     0.15690   0.46449   0.32825   0.00000  Uiso   1.00
H158   H     0.17763   0.41224   0.03052   0.00000  Uiso   1.00
H159   H     0.15881   0.39832   0.28465   0.00000  Uiso   1.00
H160   H     0.32237   0.58776   0.30281   0.00000  Uiso   1.00
H161   H     0.34310   0.53551   0.00509   0.00000  Uiso   1.00
H162   H     0.04950   0.63420   0.20234   0.00000  Uiso   1.00
H163   H     0.34119   0.60168   0.04868   0.00000  Uiso   1.00
H164   H     0.03079   0.36558   0.13203   0.00000  Uiso   1.00
H165   H     0.46921   0.63442   0.20131   0.00000  Uiso   1.00
H166   H     0.24375   0.65348   0.09593   0.00000  Uiso   1.00
H167   H     0.25625   0.34652   0.23740   0.00000  Uiso   1.00
H168   H     0.37219   0.60037   0.22934   0.00000  Uiso   1.00
H169   H     0.36582   0.59896   0.15354   0.00000  Uiso   1.00
H170   H     0.12781   0.39963   0.10400   0.00000  Uiso   1.00
N171   N     0.23745   0.48547   0.01284   0.00000  Uiso   1.00
N172   N     0.26256   0.51453   0.32049   0.00000  Uiso   1.00
N173   N     0.38918   0.59820   0.19053   0.00000  Uiso   1.00
N174   N     0.11082   0.40180   0.14280   0.00000  Uiso   1.00
N175   N     0.37558   0.40245   0.14063   0.00000  Uiso   1.00
N176   N     0.12442   0.59755   0.19271   0.00000  Uiso   1.00
O177   O     0.25326   0.42871   0.20659   0.00000  Uiso   1.00
O178   O     0.27986   0.56011   0.02515   0.00000  Uiso   1.00
O179   O     0.24675   0.57129   0.12674   0.00000  Uiso   1.00
O180   O     0.24480   0.41892   0.10279   0.00000  Uiso   1.00
O181   O     0.25520   0.58108   0.23055   0.00000  Uiso   1.00
O182   O     0.18936   0.50488   0.21857   0.00000  Uiso   1.00
O183   O     0.31065   0.49512   0.11476   0.00000  Uiso   1.00
O184   O     0.18090   0.49510   0.11477   0.00000  Uiso   1.00
O185   O     0.31910   0.50490   0.21857   0.00000  Uiso   1.00
O186   O     0.22014   0.43989   0.30818   0.00000  Uiso   1.00
C187   C     0.74854   0.40000   0.15115   0.00000  Uiso   1.00
C188   C     0.59030   0.45119   0.15512   0.00000  Uiso   1.00
C189   C     0.88340   0.50031   0.16565   0.00000  Uiso   1.00
C190   C     0.61660   0.49969   0.16768   0.00000  Uiso   1.00
C191   C     0.90294   0.45169   0.15310   0.00000  Uiso   1.00
C192   C     0.59706   0.54831   0.18023   0.00000  Uiso   1.00
C193   C     0.94966   0.45148   0.15341   0.00000  Uiso   1.00
C194   C     0.55034   0.54852   0.17992   0.00000  Uiso   1.00
C195   C     0.97648   0.50006   0.16633   0.00000  Uiso   1.00
C196   C     0.52352   0.49994   0.16700   0.00000  Uiso   1.00
C197   C     0.95642   0.54877   0.17865   0.00000  Uiso   1.00
C198   C     0.75146   0.60000   0.18218   0.00000  Uiso   1.00
C199   C     0.54358   0.45123   0.15468   0.00000  Uiso   1.00
C200   C     0.97014   0.40358   0.14121   0.00000  Uiso   1.00
C201   C     0.52986   0.59642   0.19212   0.00000  Uiso   1.00
C202   C     0.67663   0.42902   0.32282   0.00000  Uiso   1.00
C203   C     0.82337   0.57098   0.01051   0.00000  Uiso   1.00
C204   C     0.51644   0.40345   0.14185   0.00000  Uiso   1.00
C205   C     0.98356   0.59655   0.19148   0.00000  Uiso   1.00
C206   C     0.74784   0.34397   0.14250   0.00000  Uiso   1.00
C207   C     0.75216   0.65603   0.19083   0.00000  Uiso   1.00
C208   C     0.66471   0.49960   0.16695   0.00000  Uiso   1.00
C209   C     0.83529   0.50040   0.16638   0.00000  Uiso   1.00
C210   C     0.90970   0.54881   0.17821   0.00000  Uiso   1.00
Cu211  Cu    0.75501   0.50579   0.22813   0.00000  Uiso   1.00
Cu212  Cu    0.74500   0.49421   0.10521   0.00000  Uiso   1.00
H213   H     0.95050   0.36580   0.13099   0.00000  Uiso   1.00
H214   H     0.63418   0.40104   0.17979   0.00000  Uiso   1.00
H215   H     0.85764   0.40142   0.17809   0.00000  Uiso   1.00
H216   H     0.85269   0.40079   0.10233   0.00000  Uiso   1.00
H217   H     0.64236   0.59858   0.15524   0.00000  Uiso   1.00
H218   H     0.64731   0.59921   0.23101   0.00000  Uiso   1.00
H219   H     0.65690   0.46449   0.32825   0.00000  Uiso   1.00
H220   H     0.67763   0.41224   0.03052   0.00000  Uiso   1.00
H221   H     0.65881   0.39832   0.28465   0.00000  Uiso   1.00
H222   H     0.82237   0.58776   0.30281   0.00000  Uiso   1.00
H223   H     0.84310   0.53551   0.00509   0.00000  Uiso   1.00
H224   H     0.54950   0.63420   0.20234   0.00000  Uiso   1.00
H225   H     0.84119   0.60168   0.04868   0.00000  Uiso   1.00
H226   H     0.53079   0.36558   0.13203   0.00000  Uiso   1.00
H227   H     0.96921   0.63442   0.20131   0.00000  Uiso   1.00
H228   H     0.74375   0.65348   0.09593   0.00000  Uiso   1.00
H229   H     0.75625   0.34652   0.23740   0.00000  Uiso   1.00
H230   H     0.87219   0.60037   0.22934   0.00000  Uiso   1.00
H231   H     0.86582   0.59896   0.15354   0.00000  Uiso   1.00
H232   H     0.62781   0.39963   0.10400   0.00000  Uiso   1.00
N233   N     0.73745   0.48547   0.01284   0.00000  Uiso   1.00
N234   N     0.76256   0.51453   0.32049   0.00000  Uiso   1.00
N235   N     0.88918   0.59820   0.19053   0.00000  Uiso   1.00
N236   N     0.61082   0.40180   0.14280   0.00000  Uiso   1.00
N237   N     0.87558   0.40245   0.14063   0.00000  Uiso   1.00
N238   N     0.62442   0.59755   0.19271   0.00000  Uiso   1.00
O239   O     0.75326   0.42871   0.20659   0.00000  Uiso   1.00
O240   O     0.77986   0.56011   0.02515   0.00000  Uiso   1.00
O241   O     0.74675   0.57129   0.12674   0.00000  Uiso   1.00
O242   O     0.74480   0.41892   0.10279   0.00000  Uiso   1.00
O243   O     0.75520   0.58108   0.23055   0.00000  Uiso   1.00
O244   O     0.68936   0.50488   0.21857   0.00000  Uiso   1.00
O245   O     0.81065   0.49512   0.11476   0.00000  Uiso   1.00
O246   O     0.68090   0.49510   0.11477   0.00000  Uiso   1.00
O247   O     0.81910   0.50490   0.21857   0.00000  Uiso   1.00
O248   O     0.72014   0.43989   0.30818   0.00000  Uiso   1.00
C249   C     0.24854   0.73333   0.15115   0.00000  Uiso   1.00
C250   C     0.09030   0.78452   0.15512   0.00000  Uiso   1.00
C251   C     0.38340   0.83365   0.16565   0.00000  Uiso   1.00
C252   C     0.11660   0.83302   0.16768   0.00000  Uiso   1.00
C253   C     0.40294   0.78502   0.15310   0.00000  Uiso   1.00
C254   C     0.09706   0.88165   0.18023   0.00000  Uiso   1.00
C255   C     0.44966   0.78481   0.15341   0.00000  Uiso   1.00
C256   C     0.05034   0.88185   0.17992   0.00000  Uiso   1.00
C257   C     0.47648   0.83339   0.16633   0.00000  Uiso   1.00
C258   C     0.02352   0.83327   0.16700   0.00000  Uiso   1.00
C259   C     0.45642   0.88210   0.17865   0.00000  Uiso   1.00
C260   C     0.25146   0.93333   0.18218   0.00000  Uiso   1.00
C261   C     0.04358   0.78457   0.15468   0.00000  Uiso   1.00
C262   C     0.47014   0.73691   0.14121   0.00000  Uiso   1.00
C263   C     0.02986   0.92976   0.19212   0.00000  Uiso   1.00
C264   C     0.17663   0.76235   0.32282   0.00000  Uiso   1.00
C265   C     0.32337   0.90432   0.01051   0.00000  Uiso   1.00
C266   C     0.01644   0.73679   0.14185   0.00000  Uiso   1.00
C267   C     0.48356   0.92988   0.19148   0.00000  Uiso   1.00
C268   C     0.24784   0.67731   0.14250   0.00000  Uiso   1.00
C269   C     0.25216   0.98936   0.19083   0.00000  Uiso   1.00
C270   C     0.16471   0.83293   0.16695   0.00000  Uiso   1.00
C271   C     0.33529   0.83374   0.16638   0.00000  Uiso   1.00
C272   C     0.40970   0.88215   0.17821   0.00000  Uiso   1.00
Cu273  Cu    0.25501   0.83913   0.22813   0.00000  Uiso   1.00
Cu274  Cu    0.24500   0.82754   0.10521   0.00000  Uiso   1.00
H275   H     0.45050   0.69913   0.13099   0.00000  Uiso   1.00
H276   H     0.13418   0.73438   0.17979   0.00000  Uiso   1.00
H277   H     0.35764   0.73475   0.17809   0.00000  Uiso   1.00
H278   H     0.35269   0.73413   0.10233   0.00000  Uiso   1.00
H279   H     0.14236   0.93192   0.15524   0.00000  Uiso   1.00
H280   H     0.14731   0.93254   0.23101   0.00000  Uiso   1.00
H281   H     0.15690   0.79783   0.32825   0.00000  Uiso   1.00
H282   H     0.17763   0.74557   0.03052   0.00000  Uiso   1.00
H283   H     0.15881   0.73165   0.28465   0.00000  Uiso   1.00
H284   H     0.32237   0.92109   0.30281   0.00000  Uiso   1.00
H285   H     0.34310   0.86884   0.00509   0.00000  Uiso   1.00
H286   H     0.04950   0.96753   0.20234   0.00000  Uiso   1.00
H287   H     0.34119   0.93501   0.04868   0.00000  Uiso   1.00
H288   H     0.03079   0.69892   0.13203   0.00000  Uiso   1.00
H289   H     0.46921   0.96775   0.20131   0.00000  Uiso   1.00
H290   H     0.24375   0.98681   0.09593   0.00000  Uiso   1.00
H291   H     0.25625   0.67985   0.23740   0.00000  Uiso   1.00
H292   H     0.37219   0.93371   0.22934   0.00000  Uiso   1.00
H293   H     0.36582   0.93229   0.15354   0.00000  Uiso   1.00
H294   H     0.12781   0.73296   0.10400   0.00000  Uiso   1.00
N295   N     0.23745   0.81881   0.01284   0.00000  Uiso   1.00
N296   N     0.26256   0.84786   0.32049   0.00000  Uiso   1.00
N297   N     0.38918   0.93153   0.19053   0.00000  Uiso   1.00
N298   N     0.11082   0.73513   0.14280   0.00000  Uiso   1.00
N299   N     0.37558   0.73578   0.14063   0.00000  Uiso   1.00
N300   N     0.12442   0.93088   0.19271   0.00000  Uiso   1.00
O301   O     0.25326   0.76204   0.20659   0.00000  Uiso   1.00
O302   O     0.27986   0.89344   0.02515   0.00000  Uiso   1.00
O303   O     0.24675   0.90462   0.12674   0.00000  Uiso   1.00
O304   O     0.24480   0.75226   0.10279   0.00000  Uiso   1.00
O305   O     0.25520   0.91441   0.23055   0.00000  Uiso   1.00
O306   O     0.18936   0.83821   0.21857   0.00000  Uiso   1.00
O307   O     0.31065   0.82845   0.11476   0.00000  Uiso   1.00
O308   O     0.18090   0.82843   0.11477   0.00000  Uiso   1.00
O309   O     0.31910   0.83824   0.21857   0.00000  Uiso   1.00
O310   O     0.22014   0.77323   0.30818   0.00000  Uiso   1.00
C311   C     0.74854   0.73333   0.15115   0.00000  Uiso   1.00
C312   C     0.59030   0.78452   0.15512   0.00000  Uiso   1.00
C313   C     0.88340   0.83365   0.16565   0.00000  Uiso   1.00
C314   C     0.61660   0.83302   0.16768   0.00000  Uiso   1.00
C315   C     0.90294   0.78502   0.15310   0.00000  Uiso   1.00
C316   C     0.59706   0.88165   0.18023   0.00000  Uiso   1.00
C317   C     0.94966   0.78481   0.15341   0.00000  Uiso   1.00
C318   C     0.55034   0.88185   0.17992   0.00000  Uiso   1.00
C319   C     0.97648   0.83339   0.16633   0.00000  Uiso   1.00
C320   C     0.52352   0.83327   0.16700   0.00000  Uiso   1.00
C321   C     0.95642   0.88210   0.17865   0.00000  Uiso   1.00
C322   C     0.75146   0.93333   0.18218   0.00000  Uiso   1.00
C323   C     0.54358   0.78457   0.15468   0.00000  Uiso   1.00
C324   C     0.97014   0.73691   0.14121   0.00000  Uiso   1.00
C325   C     0.52986   0.92976   0.19212   0.00000  Uiso   1.00
C326   C     0.67663   0.76235   0.32282   0.00000  Uiso   1.00
C327   C     0.82337   0.90432   0.01051   0.00000  Uiso   1.00
C328   C     0.51644   0.73679   0.14185   0.00000  Uiso   1.00
C329   C     0.98356   0.92988   0.19148   0.00000  Uiso   1.00
C330   C     0.74784   0.67731   0.14250   0.00000  Uiso   1.00
C331   C     0.75216   0.98936   0.19083   0.00000  Uiso   1.00
C332   C     0.66471   0.83293   0.16695   0.00000  Uiso   1.00
C333   C     0.83529   0.83374   0.16638   0.00000  Uiso   1.00
C334   C     0.90970   0.88215   0.17821   0.00000  Uiso   1.00
Cu335  Cu    0.75501   0.83913   0.22813   0.00000  Uiso   1.00
Cu336  Cu    0.74500   0.82754   0.10521   0.00000  Uiso   1.00
H337   H     0.95050   0.69913   0.13099   0.00000  Uiso   1.00
H338   H     0.63418   0.73438   0.17979   0.00000  Uiso   1.00
H339   H     0.85764   0.73475   0.17809   0.00000  Uiso   1.00
H340   H     0.85269   0.73413   0.10233   0.00000  Uiso   1.00
H341   H     0.64236   0.93192   0.15524   0.00000  Uiso   1.00
H342   H     0.64731   0.93254   0.23101   0.00000  Uiso   1.00
H343   H     0.65690   0.79783   0.32825   0.00000  Uiso   1.00
H344   H     0.67763   0.74557   0.03052   0.00000  Uiso   1.00
H345   H     0.65881   0.73165   0.28465   0.00000  Uiso   1.00
H346   H     0.82237   0.92109   0.30281   0.00000  Uiso   1.00
H347   H     0.84310   0.86884   0.00509   0.00000  Uiso   1.00
H348   H     0.54950   0.96753   0.20234   0.00000  Uiso   1.00
H349   H     0.84119   0.93501   0.04868   0.00000  Uiso   1.00
H350   H     0.53079   0.69892   0.13203   0.00000  Uiso   1.00
H351   H     0.96921   0.96775   0.20131   0.00000  Uiso   1.00
H352   H     0.74375   0.98681   0.09593   0.00000  Uiso   1.00
H353   H     0.75625   0.67985   0.23740   0.00000  Uiso   1.00
H354   H     0.87219   0.93371   0.22934   0.00000  Uiso   1.00
H355   H     0.86582   0.93229   0.15354   0.00000  Uiso   1.00
H356   H     0.62781   0.73296   0.10400   0.00000  Uiso   1.00
N357   N     0.73745   0.81881   0.01284   0.00000  Uiso   1.00
N358   N     0.76256   0.84786   0.32049   0.00000  Uiso   1.00
N359   N     0.88918   0.93153   0.19053   0.00000  Uiso   1.00
N360   N     0.61082   0.73513   0.14280   0.00000  Uiso   1.00
N361   N     0.87558   0.73578   0.14063   0.00000  Uiso   1.00
N362   N     0.62442   0.93088   0.19271   0.00000  Uiso   1.00
O363   O     0.75326   0.76204   0.20659   0.00000  Uiso   1.00
O364   O     0.77986   0.89344   0.02515   0.00000  Uiso   1.00
O365   O     0.74675   0.90462   0.12674   0.00000  Uiso   1.00
O366   O     0.74480   0.75226   0.10279   0.00000  Uiso   1.00
O367   O     0.75520   0.91441   0.23055   0.00000  Uiso   1.00
O368   O     0.68936   0.83821   0.21857   0.00000  Uiso   1.00
O369   O     0.81065   0.82845   0.11476   0.00000  Uiso   1.00
O370   O     0.68090   0.82843   0.11477   0.00000  Uiso   1.00
O371   O     0.81910   0.83824   0.21857   0.00000  Uiso   1.00
O372   O     0.72014   0.77323   0.30818   0.00000  Uiso   1.00
C373   C     0.24854   0.06667   0.48449   0.00000  Uiso   1.00
C374   C     0.09030   0.11785   0.48846   0.00000  Uiso   1.00
C375   C     0.38340   0.16698   0.49898   0.00000  Uiso   1.00
C376   C     0.11660   0.16635   0.50102   0.00000  Uiso   1.00
C377   C     0.40294   0.11835   0.48644   0.00000  Uiso   1.00
C378   C     0.09706   0.21498   0.51356   0.00000  Uiso   1.00
C379   C     0.44966   0.11815   0.48675   0.00000  Uiso   1.00
C380   C     0.05034   0.21519   0.51325   0.00000  Uiso   1.00
C381   C     0.47648   0.16673   0.49967   0.00000  Uiso   1.00
C382   C     0.02352   0.16661   0.50033   0.00000  Uiso   1.00
C383   C     0.45642   0.21543   0.51198   0.00000  Uiso   1.00
C384   C     0.25146   0.26667   0.51551   0.00000  Uiso   1.00
C385   C     0.04358   0.11790   0.48802   0.00000  Uiso   1.00
C386   C     0.47014   0.07024   0.47455   0.00000  Uiso   1.00
C387   C     0.02986   0.26309   0.52545   0.00000  Uiso   1.00
C388   C     0.17663   0.09568   0.65616   0.00000  Uiso   1.00
C389   C     0.32337   0.23765   0.34384   0.00000  Uiso   1.00
C390   C     0.01644   0.07012   0.47519   0.00000  Uiso   1.00
C391   C     0.48356   0.26321   0.52481   0.00000  Uiso   1.00
C392   C     0.24784   0.01064   0.47583   0.00000  Uiso   1.00
C393   C     0.25216   0.32269   0.52417   0.00000  Uiso   1.00
C394   C     0.16471   0.16626   0.50028   0.00000  Uiso   1.00
C395   C     0.33529   0.16707   0.49972   0.00000  Uiso   1.00
C396   C     0.40970   0.21548   0.51154   0.00000  Uiso   1.00
Cu397  Cu    0.25501   0.17246   0.56146   0.00000  Uiso   1.00
Cu398  Cu    0.24500   0.16087   0.43854   0.00000  Uiso   1.00
H399   H     0.45050   0.03247   0.46433   0.00000  Uiso   1.00
H400   H     0.13418   0.06771   0.51312   0.00000  Uiso   1.00
H401   H     0.35764   0.06808   0.51142   0.00000  Uiso   1.00
H402   H     0.35269   0.06746   0.43566   0.00000  Uiso   1.00
H403   H     0.14236   0.26525   0.48858   0.00000  Uiso   1.00
H404   H     0.14731   0.26588   0.56434   0.00000  Uiso   1.00
H405   H     0.15690   0.13116   0.66158   0.00000  Uiso   1.00
H406   H     0.17763   0.07891   0.36385   0.00000  Uiso   1.00
H407   H     0.15881   0.06499   0.61799   0.00000  Uiso   1.00
H408   H     0.32237   0.25443   0.63614   0.00000  Uiso   1.00
H409   H     0.34310   0.20217   0.33842   0.00000  Uiso   1.00
H410   H     0.04950   0.30087   0.53567   0.00000  Uiso   1.00
H411   H     0.34119   0.26835   0.38201   0.00000  Uiso   1.00
H412   H     0.03079   0.03225   0.46536   0.00000  Uiso   1.00
H413   H     0.46921   0.30108   0.53464   0.00000  Uiso   1.00
H414   H     0.24375   0.32015   0.42927   0.00000  Uiso   1.00
H415   H     0.25625   0.01319   0.57073   0.00000  Uiso   1.00
H416   H     0.37219   0.26704   0.56267   0.00000  Uiso   1.00
H417   H     0.36582   0.26562   0.48688   0.00000  Uiso   1.00
H418   H     0.12781   0.06629   0.43733   0.00000  Uiso   1.00
N419   N     0.23745   0.15214   0.34617   0.00000  Uiso   1.00
N420   N     0.26256   0.18119   0.65383   0.00000  Uiso   1.00
N421   N     0.38918   0.26487   0.52386   0.00000  Uiso   1.00
N422   N     0.11082   0.06847   0.47614   0.00000  Uiso   1.00
N423   N     0.37558   0.06912   0.47396   0.00000  Uiso   1.00
N424   N     0.12442   0.26422   0.52604   0.00000  Uiso   1.00
O425   O     0.25326   0.09538   0.53992   0.00000  Uiso   1.00
O426   O     0.27986   0.22677   0.35848   0.00000  Uiso   1.00
O427   O     0.24675   0.23796   0.46008   0.00000  Uiso   1.00
O428   O     0.24480   0.08559   0.43612   0.00000  Uiso   1.00
O429   O     0.25520   0.24774   0.56388   0.00000  Uiso   1.00
O430   O     0.18936   0.17155   0.55191   0.00000  Uiso   1.00
O431   O     0.31065   0.16179   0.44809   0.00000  Uiso   1.00
O432   O     0.18090   0.16176   0.44810   0.00000  Uiso   1.00
O433   O     0.31910   0.17157   0.55190   0.00000  Uiso   1.00
O434   O     0.22014   0.10656   0.64151   0.00000  Uiso   1.00
C435   C     0.74854   0.06667   0.48449   0.00000  Uiso   1.00
C436   C     0.59030   0.11785   0.48846   0.00000  Uiso   1.00
C437   C     0.88340   0.16698   0.49898   0.00000  Uiso   1.00
C438   C     0.61660   0.16635   0.50102   0.00000  Uiso   1.00
C439   C     0.90294   0.11835   0.48644   0.00000  Uiso   1.00
C440   C     0.59706   0.21498   0.51356   0.00000  Uiso   1.00
C441   C     0.94966   0.11815   0.48675   0.00000  Uiso   1.00
C442   C     0.55034   0.21519   0.51325   0.00000  Uiso   1.00
C443   C     0.97648   0.16673   0.49967   0.00000  Uiso   1.00
C444   C     0.52352   0.16661   0.50033   0.00000  Uiso   1.00
C445   C     0.95642   0.21543   0.51198   0.00000  Uiso   1.00
C446   C     0.75146   0.26667   0.51551   0.00000  Uiso   1.00
C447   C     0.54358   0.11790   0.48802   0.00000  Uiso   1.00
C448   C     0.97014   0.07024   0.47455   0.00000  Uiso   1.00
C449   C     0.52986   0.26309   0.52545   0.00000  Uiso   1.00
C450   C     0.67663   0.09568   0.65616   0.00000  Uiso   1.00
C451   C     0.82337   0.23765   0.34384   0.00000  Uiso   1.00
C452   C     0.51644   0.07012   0.47519   0.00000  Uiso   1.00
C453   C     0.98356   0.26321   0.52481   0.00000  Uiso   1.00
C454   C     0.74784   0.01064   0.47583   0.00000  Uiso   1.00
C455   C     0.75216   0.32269   0.52417   0.00000  Uiso   1.00
C456   C     0.66471   0.16626   0.50028   0.00000  Uiso   1.00
C457   C     0.83529   0.16707   0.49972   0.00000  Uiso   1.00
C458   C     0.90970   0.21548   0.51154   0.00000  Uiso   1.00
Cu459  Cu    0.75501   0.17246   0.56146   0.00000  Uiso   1.00
Cu460  Cu    0.74500   0.16087   0.43854   0.00000  Uiso   1.00
H461   H     0.95050   0.03247   0.46433   0.00000  Uiso   1.00
H462   H     0.63418   0.06771   0.51312   0.00000  Uiso   1.00
H463   H     0.85764   0.06808   0.51142   0.00000  Uiso   1.00
H464   H     0.85269   0.06746   0.43566   0.00000  Uiso   1.00
H465   H     0.64236   0.26525   0.48858   0.00000  Uiso   1.00
H466   H     0.64731   0.26588   0.56434   0.00000  Uiso   1.00
H467   H     0.65690   0.13116   0.66158   0.00000  Uiso   1.00
H468   H     0.67763   0.07891   0.36385   0.00000  Uiso   1.00
H469   H     0.65881   0.06499   0.61799   0.00000  Uiso   1.00
H470   H     0.82237   0.25443   0.63614   0.00000  Uiso   1.00
H471   H     0.84310   0.20217   0.33842   0.00000  Uiso   1.00
H472   H     0.54950   0.30087   0.53567   0.00000  Uiso   1.00
H473   H     0.84119   0.26835   0.38201   0.00000  Uiso   1.00
H474   H     0.53079   0.03225   0.46536   0.00000  Uiso   1.00
H475   H     0.96921   0.30108   0.53464   0.00000  Uiso   1.00
H476   H     0.74375   0.32015   0.42927   0.00000  Uiso   1.00
H477   H     0.75625   0.01319   0.57073   0.00000  Uiso   1.00
H478   H     0.87219   0.26704   0.56267   0.00000  Uiso   1.00
H479   H     0.86582   0.26562   0.48688   0.00000  Uiso   1.00
H480   H     0.62781   0.06629   0.43733   0.00000  Uiso   1.00
N481   N     0.73745   0.15214   0.34617   0.00000  Uiso   1.00
N482   N     0.76256   0.18119   0.65383   0.00000  Uiso   1.00
N483   N     0.88918   0.26487   0.52386   0.00000  Uiso   1.00
N484   N     0.61082   0.06847   0.47614   0.00000  Uiso   1.00
N485   N     0.87558   0.06912   0.47396   0.00000  Uiso   1.00
N486   N     0.62442   0.26422   0.52604   0.00000  Uiso   1.00
O487   O     0.75326   0.09538   0.53992   0.00000  Uiso   1.00
O488   O     0.77986   0.22677   0.35848   0.00000  Uiso   1.00
O489   O     0.74675   0.23796   0.46008   0.00000  Uiso   1.00
O490   O     0.74480   0.08559   0.43612   0.00000  Uiso   1.00
O491   O     0.75520   0.24774   0.56388   0.00000  Uiso   1.00
O492   O     0.68936   0.17155   0.55191   0.00000  Uiso   1.00
O493   O     0.81065   0.16179   0.44809   0.00000  Uiso   1.00
O494   O     0.68090   0.16176   0.44810   0.00000  Uiso   1.00
O495   O     0.81910   0.17157   0.55190   0.00000  Uiso   1.00
O496   O     0.72014   0.10656   0.64151   0.00000  Uiso   1.00
C497   C     0.24854   0.40000   0.48449   0.00000  Uiso   1.00
C498   C     0.09030   0.45119   0.48846   0.00000  Uiso   1.00
C499   C     0.38340   0.50031   0.49898   0.00000  Uiso   1.00
C500   C     0.11660   0.49969   0.50102   0.00000  Uiso   1.00
C501   C     0.40294   0.45169   0.48644   0.00000  Uiso   1.00
C502   C     0.09706   0.54831   0.51356   0.00000  Uiso   1.00
C503   C     0.44966   0.45148   0.48675   0.00000  Uiso   1.00
C504   C     0.05034   0.54852   0.51325   0.00000  Uiso   1.00
C505   C     0.47648   0.50006   0.49967   0.00000  Uiso   1.00
C506   C     0.02352   0.49994   0.50033   0.00000  Uiso   1.00
C507   C     0.45642   0.54877   0.51198   0.00000  Uiso   1.00
C508   C     0.25146   0.60000   0.51551   0.00000  Uiso   1.00
C509   C     0.04358   0.45123   0.48802   0.00000  Uiso   1.00
C510   C     0.47014   0.40358   0.47455   0.00000  Uiso   1.00
C511   C     0.02986   0.59642   0.52545   0.00000  Uiso   1.00
C512   C     0.17663   0.42902   0.65616   0.00000  Uiso   1.00
C513   C     0.32337   0.57098   0.34384   0.00000  Uiso   1.00
C514   C     0.01644   0.40345   0.47519   0.00000  Uiso   1.00
C515   C     0.48356   0.59655   0.52481   0.00000  Uiso   1.00
C516   C     0.24784   0.34397   0.47583   0.00000  Uiso   1.00
C517   C     0.25216   0.65603   0.52417   0.00000  Uiso   1.00
C518   C     0.16471   0.49960   0.50028   0.00000  Uiso   1.00
C519   C     0.33529   0.50040   0.49972   0.00000  Uiso   1.00
C520   C     0.40970   0.54881   0.51154   0.00000  Uiso   1.00
Cu521  Cu    0.25501   0.50579   0.56146   0.00000  Uiso   1.00
Cu522  Cu    0.24500   0.49421   0.43854   0.00000  Uiso   1.00
H523   H     0.45050   0.36580   0.46433   0.00000  Uiso   1.00
H524   H     0.13418   0.40104   0.51312   0.00000  Uiso   1.00
H525   H     0.35764   0.40142   0.51142   0.00000  Uiso   1.00
H526   H     0.35269   0.40079   0.43566   0.00000  Uiso   1.00
H527   H     0.14236   0.59858   0.48858   0.00000  Uiso   1.00
H528   H     0.14731   0.59921   0.56434   0.00000  Uiso   1.00
H529   H     0.15690   0.46449   0.66158   0.00000  Uiso   1.00
H530   H     0.17763   0.41224   0.36385   0.00000  Uiso   1.00
H531   H     0.15881   0.39832   0.61799   0.00000  Uiso   1.00
H532   H     0.32237   0.58776   0.63614   0.00000  Uiso   1.00
H533   H     0.34310   0.53551   0.33842   0.00000  Uiso   1.00
H534   H     0.04950   0.63420   0.53567   0.00000  Uiso   1.00
H535   H     0.34119   0.60168   0.38201   0.00000  Uiso   1.00
H536   H     0.03079   0.36558   0.46536   0.00000  Uiso   1.00
H537   H     0.46921   0.63442   0.53464   0.00000  Uiso   1.00
H538   H     0.24375   0.65348   0.42927   0.00000  Uiso   1.00
H539   H     0.25625   0.34652   0.57073   0.00000  Uiso   1.00
H540   H     0.37219   0.60037   0.56267   0.00000  Uiso   1.00
H541   H     0.36582   0.59896   0.48688   0.00000  Uiso   1.00
H542   H     0.12781   0.39963   0.43733   0.00000  Uiso   1.00
N543   N     0.23745   0.48547   0.34617   0.00000  Uiso   1.00
N544   N     0.26256   0.51453   0.65383   0.00000  Uiso   1.00
N545   N     0.38918   0.59820   0.52386   0.00000  Uiso   1.00
N546   N     0.11082   0.40180   0.47614   0.00000  Uiso   1.00
N547   N     0.37558   0.40245   0.47396   0.00000  Uiso   1.00
N548   N     0.12442   0.59755   0.52604   0.00000  Uiso   1.00
O549   O     0.25326   0.42871   0.53992   0.00000  Uiso   1.00
O550   O     0.27986   0.56011   0.35848   0.00000  Uiso   1.00
O551   O     0.24675   0.57129   0.46008   0.00000  Uiso   1.00
O552   O     0.24480   0.41892   0.43612   0.00000  Uiso   1.00
O553   O     0.25520   0.58108   0.56388   0.00000  Uiso   1.00
O554   O     0.18936   0.50488   0.55191   0.00000  Uiso   1.00
O555   O     0.31065   0.49512   0.44809   0.00000  Uiso   1.00
O556   O     0.18090   0.49510   0.44810   0.00000  Uiso   1.00
O557   O     0.31910   0.50490   0.55190   0.00000  Uiso   1.00
O558   O     0.22014   0.43989   0.64151   0.00000  Uiso   1.00
C559   C     0.74854   0.40000   0.48449   0.00000  Uiso   1.00
C560   C     0.59030   0.45119   0.48846   0.00000  Uiso   1.00
C561   C     0.88340   0.50031   0.49898   0.00000  Uiso   1.00
C562   C     0.61660   0.49969   0.50102   0.00000  Uiso   1.00
C563   C     0.90294   0.45169   0.48644   0.00000  Uiso   1.00
C564   C     0.59706   0.54831   0.51356   0.00000  Uiso   1.00
C565   C     0.94966   0.45148   0.48675   0.00000  Uiso   1.00
C566   C     0.55034   0.54852   0.51325   0.00000  Uiso   1.00
C567   C     0.97648   0.50006   0.49967   0.00000  Uiso   1.00
C568   C     0.52352   0.49994   0.50033   0.00000  Uiso   1.00
C569   C     0.95642   0.54877   0.51198   0.00000  Uiso   1.00
C570   C     0.75146   0.60000   0.51551   0.00000  Uiso   1.00
C571   C     0.54358   0.45123   0.48802   0.00000  Uiso   1.00
C572   C     0.97014   0.40358   0.47455   0.00000  Uiso   1.00
C573   C     0.52986   0.59642   0.52545   0.00000  Uiso   1.00
C574   C     0.67663   0.42902   0.65616   0.00000  Uiso   1.00
C575   C     0.82337   0.57098   0.34384   0.00000  Uiso   1.00
C576   C     0.51644   0.40345   0.47519   0.00000  Uiso   1.00
C577   C     0.98356   0.59655   0.52481   0.00000  Uiso   1.00
C578   C     0.74784   0.34397   0.47583   0.00000  Uiso   1.00
C579   C     0.75216   0.65603   0.52417   0.00000  Uiso   1.00
C580   C     0.66471   0.49960   0.50028   0.00000  Uiso   1.00
C581   C     0.83529   0.50040   0.49972   0.00000  Uiso   1.00
C582   C     0.90970   0.54881   0.51154   0.00000  Uiso   1.00
Cu583  Cu    0.75501   0.50579   0.56146   0.00000  Uiso   1.00
Cu584  Cu    0.74500   0.49421   0.43854   0.00000  Uiso   1.00
H585   H     0.95050   0.36580   0.46433   0.00000  Uiso   1.00
H586   H     0.63418   0.40104   0.51312   0.00000  Uiso   1.00
H587   H     0.85764   0.40142   0.51142   0.00000  Uiso   1.00
H588   H     0.85269   0.40079   0.43566   0.00000  Uiso   1.00
H589   H     0.64236   0.59858   0.48858   0.00000  Uiso   1.00
H590   H     0.64731   0.59921   0.56434   0.00000  Uiso   1.00
H591   H     0.65690   0.46449   0.66158   0.00000  Uiso   1.00
H592   H     0.67763   0.41224   0.36385   0.00000  Uiso   1.00
H593   H     0.65881   0.39832   0.61799   0.00000  Uiso   1.00
H594   H     0.82237   0.58776   0.63614   0.00000  Uiso   1.00
H595   H     0.84310   0.53551   0.33842   0.00000  Uiso   1.00
H596   H     0.54950   0.63420   0.53567   0.00000  Uiso   1.00
H597   H     0.84119   0.60168   0.38201   0.00000  Uiso   1.00
H598   H     0.53079   0.36558   0.46536   0.00000  Uiso   1.00
H599   H     0.96921   0.63442   0.53464   0.00000  Uiso   1.00
H600   H     0.74375   0.65348   0.42927   0.00000  Uiso   1.00
H601   H     0.75625   0.34652   0.57073   0.00000  Uiso   1.00
H602   H     0.87219   0.60037   0.56267   0.00000  Uiso   1.00
H603   H     0.86582   0.59896   0.48688   0.00000  Uiso   1.00
H604   H     0.62781   0.39963   0.43733   0.00000  Uiso   1.00
N605   N     0.73745   0.48547   0.34617   0.00000  Uiso   1.00
N606   N     0.76256   0.51453   0.65383   0.00000  Uiso   1.00
N607   N     0.88918   0.59820   0.52386   0.00000  Uiso   1.00
N608   N     0.61082   0.40180   0.47614   0.00000  Uiso   1.00
N609   N     0.87558   0.40245   0.47396   0.00000  Uiso   1.00
N610   N     0.62442   0.59755   0.52604   0.00000  Uiso   1.00
O611   O     0.75326   0.42871   0.53992   0.00000  Uiso   1.00
O612   O     0.77986   0.56011   0.35848   0.00000  Uiso   1.00
O613   O     0.74675   0.57129   0.46008   0.00000  Uiso   1.00
O614   O     0.74480   0.41892   0.43612   0.00000  Uiso   1.00
O615   O     0.75520   0.58108   0.56388   0.00000  Uiso   1.00
O616   O     0.68936   0.50488   0.55191   0.00000  Uiso   1.00
O617   O     0.81065   0.49512   0.44809   0.00000  Uiso   1.00
O618   O     0.68090   0.49510   0.44810   0.00000  Uiso   1.00
O619   O     0.81910   0.50490   0.55190   0.00000  Uiso   1.00
O620   O     0.72014   0.43989   0.64151   0.00000  Uiso   1.00
C621   C     0.24854   0.73333   0.48449   0.00000  Uiso   1.00
C622   C     0.09030   0.78452   0.48846   0.00000  Uiso   1.00
C623   C     0.38340   0.83365   0.49898   0.00000  Uiso   1.00
C624   C     0.11660   0.83302   0.50102   0.00000  Uiso   1.00
C625   C     0.40294   0.78502   0.48644   0.00000  Uiso   1.00
C626   C     0.09706   0.88165   0.51356   0.00000  Uiso   1.00
C627   C     0.44966   0.78481   0.48675   0.00000  Uiso   1.00
C628   C     0.05034   0.88185   0.51325   0.00000  Uiso   1.00
C629   C     0.47648   0.83339   0.49967   0.00000  Uiso   1.00
C630   C     0.02352   0.83327   0.50033   0.00000  Uiso   1.00
C631   C     0.45642   0.88210   0.51198   0.00000  Uiso   1.00
C632   C     0.25146   0.93333   0.51551   0.00000  Uiso   1.00
C633   C     0.04358   0.78457   0.48802   0.00000  Uiso   1.00
C634   C     0.47014   0.73691   0.47455   0.00000  Uiso   1.00
C635   C     0.02986   0.92976   0.52545   0.00000  Uiso   1.00
C636   C     0.17663   0.76235   0.65616   0.00000  Uiso   1.00
C637   C     0.32337   0.90432   0.34384   0.00000  Uiso   1.00
C638   C     0.01644   0.73679   0.47519   0.00000  Uiso   1.00
C639   C     0.48356   0.92988   0.52481   0.00000  Uiso   1.00
C640   C     0.24784   0.67731   0.47583   0.00000  Uiso   1.00
C641   C     0.25216   0.98936   0.52417   0.00000  Uiso   1.00
C642   C     0.16471   0.83293   0.50028   0.00000  Uiso   1.00
C643   C     0.33529   0.83374   0.49972   0.00000  Uiso   1.00
C644   C     0.40970   0.88215   0.51154   0.00000  Uiso   1.00
Cu645  Cu    0.25501   0.83913   0.56146   0.00000  Uiso   1.00
Cu646  Cu    0.24500   0.82754   0.43854   0.00000  Uiso   1.00
H647   H     0.45050   0.69913   0.46433   0.00000  Uiso   1.00
H648   H     0.13418   0.73438   0.51312   0.00000  Uiso   1.00
H649   H     0.35764   0.73475   0.51142   0.00000  Uiso   1.00
H650   H     0.35269   0.73413   0.43566   0.00000  Uiso   1.00
H651   H     0.14236   0.93192   0.48858   0.00000  Uiso   1.00
H652   H     0.14731   0.93254   0.56434   0.00000  Uiso   1.00
H653   H     0.15690   0.79783   0.66158   0.00000  Uiso   1.00
H654   H     0.17763   0.74557   0.36385   0.00000  Uiso   1.00
H655   H     0.15881   0.73165   0.61799   0.00000  Uiso   1.00
H656   H     0.32237   0.92109   0.63614   0.00000  Uiso   1.00
H657   H     0.34310   0.86884   0.33842   0.00000  Uiso   1.00
H658   H     0.04950   0.96753   0.53567   0.00000  Uiso   1.00
H659   H     0.34119   0.93501   0.38201   0.00000  Uiso   1.00
H660   H     0.03079   0.69892   0.46536   0.00000  Uiso   1.00
H661   H     0.46921   0.96775   0.53464   0.00000  Uiso   1.00
H662   H     0.24375   0.98681   0.42927   0.00000  Uiso   1.00
H663   H     0.25625   0.67985   0.57073   0.00000  Uiso   1.00
H664   H     0.37219   0.93371   0.56267   0.00000  Uiso   1.00
H665   H     0.36582   0.93229   0.48688   0.00000  Uiso   1.00
H666   H     0.12781   0.73296   0.43733   0.00000  Uiso   1.00
N667   N     0.23745   0.81881   0.34617   0.00000  Uiso   1.00
N668   N     0.26256   0.84786   0.65383   0.00000  Uiso   1.00
N669   N     0.38918   0.93153   0.52386   0.00000  Uiso   1.00
N670   N     0.11082   0.73513   0.47614   0.00000  Uiso   1.00
N671   N     0.37558   0.73578   0.47396   0.00000  Uiso   1.00
N672   N     0.12442   0.93088   0.52604   0.00000  Uiso   1.00
O673   O     0.25326   0.76204   0.53992   0.00000  Uiso   1.00
O674   O     0.27986   0.89344   0.35848   0.00000  Uiso   1.00
O675   O     0.24675   0.90462   0.46008   0.00000  Uiso   1.00
O676   O     0.24480   0.75226   0.43612   0.00000  Uiso   1.00
O677   O     0.25520   0.91441   0.56388   0.00000  Uiso   1.00
O678   O     0.18936   0.83821   0.55191   0.00000  Uiso   1.00
O679   O     0.31065   0.82845   0.44809   0.00000  Uiso   1.00
O680   O     0.18090   0.82843   0.44810   0.00000  Uiso   1.00
O681   O     0.31910   0.83824   0.55190   0.00000  Uiso   1.00
O682   O     0.22014   0.77323   0.64151   0.00000  Uiso   1.00
C683   C     0.74854   0.73333   0.48449   0.00000  Uiso   1.00
C684   C     0.59030   0.78452   0.48846   0.00000  Uiso   1.00
C685   C     0.88340   0.83365   0.49898   0.00000  Uiso   1.00
C686   C     0.61660   0.83302   0.50102   0.00000  Uiso   1.00
C687   C     0.90294   0.78502   0.48644   0.00000  Uiso   1.00
C688   C     0.59706   0.88165   0.51356   0.00000  Uiso   1.00
C689   C     0.94966   0.78481   0.48675   0.00000  Uiso   1.00
C690   C     0.55034   0.88185   0.51325   0.00000  Uiso   1.00
C691   C     0.97648   0.83339   0.49967   0.00000  Uiso   1.00
C692   C     0.52352   0.83327   0.50033   0.00000  Uiso   1.00
C693   C     0.95642   0.88210   0.51198   0.00000  Uiso   1.00
C694   C     0.75146   0.93333   0.51551   0.00000  Uiso   1.00
C695   C     0.54358   0.78457   0.48802   0.00000  Uiso   1.00
C696   C     0.97014   0.73691   0.47455   0.00000  Uiso   1.00
C697   C     0.52986   0.92976   0.52545   0.00000  Uiso   1.00
C698   C     0.67663   0.76235   0.65616   0.00000  Uiso   1.00
C699   C     0.82337   0.90432   0.34384   0.00000  Uiso   1.00
C700   C     0.51644   0.73679   0.47519   0.00000  Uiso   1.00
C701   C     0.98356   0.92988   0.52481   0.00000  Uiso   1.00
C702   C     0.74784   0.67731   0.47583   0.00000  Uiso   1.00
C703   C     0.75216   0.98936   0.52417   0.00000  Uiso   1.00
C704   C     0.66471   0.83293   0.50028   0.00000  Uiso   1.00
C705   C     0.83529   0.83374   0.49972   0.00000  Uiso   1.00
C706   C     0.90970   0.88215   0.51154   0.00000  Uiso   1.00
Cu707  Cu    0.75501   0.83913   0.56146   0.00000  Uiso   1.00
Cu708  Cu    0.74500   0.82754   0.43854   0.00000  Uiso   1.00
H709   H     0.95050   0.69913   0.46433   0.00000  Uiso   1.00
H710   H     0.63418   0.73438   0.51312   0.00000  Uiso   1.00
H711   H     0.85764   0.73475   0.51142   0.00000  Uiso   1.00
H712   H     0.85269   0.73413   0.43566   0.00000  Uiso   1.00
H713   H     0.64236   0.93192   0.48858   0.00000  Uiso   1.00
H714   H     0.64731   0.93254   0.56434   0.00000  Uiso   1.00
H715   H     0.65690   0.79783   0.66158   0.00000  Uiso   1.00
H716   H     0.67763   0.74557   0.36385   0.00000  Uiso   1.00
H717   H     0.65881   0.73165   0.61799   0.00000  Uiso   1.00
H718   H     0.82237   0.92109   0.63614   0.00000  Uiso   1.00
H719   H     0.84310   0.86884   0.33842   0.00000  Uiso   1.00
H720   H     0.54950   0.96753   0.53567   0.00000  Uiso   1.00
H721   H     0.84119   0.93501   0.38201   0.00000  Uiso   1.00
H722   H     0.53079   0.69892   0.46536   0.00000  Uiso   1.00
H723   H     0.96921   0.96775   0.53464   0.00000  Uiso   1.00
H724   H     0.74375   0.98681   0.42927   0.00000  Uiso   1.00
H725   H     0.75625   0.67985   0.57073   0.00000  Uiso   1.00
H726   H     0.87219   0.93371   0.56267   0.00000  Uiso   1.00
H727   H     0.86582   0.93229   0.48688   0.00000  Uiso   1.00
H728   H     0.62781   0.73296   0.43733   0.00000  Uiso   1.00
N729   N     0.73745   0.81881   0.34617   0.00000  Uiso   1.00
N730   N     0.76256   0.84786   0.65383   0.00000  Uiso   1.00
N731   N     0.88918   0.93153   0.52386   0.00000  Uiso   1.00
N732   N     0.61082   0.73513   0.47614   0.00000  Uiso   1.00
N733   N     0.87558   0.73578   0.47396   0.00000  Uiso   1.00
N734   N     0.62442   0.93088   0.52604   0.00000  Uiso   1.00
O735   O     0.75326   0.76204   0.53992   0.00000  Uiso   1.00
O736   O     0.77986   0.89344   0.35848   0.00000  Uiso   1.00
O737   O     0.74675   0.90462   0.46008   0.00000  Uiso   1.00
O738   O     0.74480   0.75226   0.43612   0.00000  Uiso   1.00
O739   O     0.75520   0.91441   0.56388   0.00000  Uiso   1.00
O740   O     0.68936   0.83821   0.55191   0.00000  Uiso   1.00
O741   O     0.81065   0.82845   0.44809   0.00000  Uiso   1.00
O742   O     0.68090   0.82843   0.44810   0.00000  Uiso   1.00
O743   O     0.81910   0.83824   0.55190   0.00000  Uiso   1.00
O744   O     0.72014   0.77323   0.64151   0.00000  Uiso   1.00
C745   C     0.24854   0.06667   0.81782   0.00000  Uiso   1.00
C746   C     0.09030   0.11785   0.82179   0.00000  Uiso   1.00
C747   C     0.38340   0.16698   0.83232   0.00000  Uiso   1.00
C748   C     0.11660   0.16635   0.83435   0.00000  Uiso   1.00
C749   C     0.40294   0.11835   0.81977   0.00000  Uiso   1.00
C750   C     0.09706   0.21498   0.84690   0.00000  Uiso   1.00
C751   C     0.44966   0.11815   0.82008   0.00000  Uiso   1.00
C752   C     0.05034   0.21519   0.84659   0.00000  Uiso   1.00
C753   C     0.47648   0.16673   0.83300   0.00000  Uiso   1.00
C754   C     0.02352   0.16661   0.83367   0.00000  Uiso   1.00
C755   C     0.45642   0.21543   0.84532   0.00000  Uiso   1.00
C756   C     0.25146   0.26667   0.84885   0.00000  Uiso   1.00
C757   C     0.04358   0.11790   0.82135   0.00000  Uiso   1.00
C758   C     0.47014   0.07024   0.80788   0.00000  Uiso   1.00
C759   C     0.02986   0.26309   0.85879   0.00000  Uiso   1.00
C760   C     0.17663   0.09568   0.98949   0.00000  Uiso   1.00
C761   C     0.32337   0.23765   0.67718   0.00000  Uiso   1.00
C762   C     0.01644   0.07012   0.80852   0.00000  Uiso   1.00
C763   C     0.48356   0.26321   0.85815   0.00000  Uiso   1.00
C764   C     0.24784   0.01064   0.80917   0.00000  Uiso   1.00
C765   C     0.25216   0.32269   0.85750   0.00000  Uiso   1.00
C766   C     0.16471   0.16626   0.83361   0.00000  Uiso   1.00
C767   C     0.33529   0.16707   0.83305   0.00000  Uiso   1.00
C768   C     0.40970   0.21548   0.84488   0.00000  Uiso   1.00
Cu769  Cu    0.25501   0.17246   0.89479   0.00000  Uiso   1.00
Cu770  Cu    0.24500   0.16087   0.77187   0.00000  Uiso   1.00
H771   H     0.45050   0.03247   0.79766   0.00000  Uiso   1.00
H772   H     0.13418   0.06771   0.84646   0.00000  Uiso   1.00
H773   H     0.35764   0.06808   0.84476   0.00000  Uiso   1.00
H774   H     0.35269   0.06746   0.76899   0.00000  Uiso   1.00
H775   H     0.14236   0.26525   0.82191   0.00000  Uiso   1.00
H776   H     0.14731   0.26588   0.89767   0.00000  Uiso   1.00
H777   H     0.15690   0.13116   0.99491   0.00000  Uiso   1.00
H778   H     0.17763   0.07891   0.69719   0.00000  Uiso   1.00
H779   H     0.15881   0.06499   0.95132   0.00000  Uiso   1.00
H780   H     0.32237   0.25443   0.96948   0.00000  Uiso   1.00
H781   H     0.34310   0.20217   0.67175   0.00000  Uiso   1.00
H782   H     0.04950   0.30087   0.86901   0.00000  Uiso   1.00
H783   H     0.34119   0.26835   0.71535   0.00000  Uiso   1.00
H784   H     0.03079   0.03225   0.79869   0.00000  Uiso   1.00
H785   H     0.46921   0.30108   0.86797   0.00000  Uiso   1.00
H786   H     0.24375   0.32015   0.76260   0.00000  Uiso   1.00
H787   H     0.25625   0.01319   0.90407   0.00000  Uiso   1.00
H788   H     0.37219   0.26704   0.89600   0.00000  Uiso   1.00
H789   H     0.36582   0.26562   0.82021   0.00000  Uiso   1.00
H790   H     0.12781   0.06629   0.77066   0.00000  Uiso   1.00
N791   N     0.23745   0.15214   0.67951   0.00000  Uiso   1.00
N792   N     0.26256   0.18119   0.98716   0.00000  Uiso   1.00
N793   N     0.38918   0.26487   0.85720   0.00000  Uiso   1.00
N794   N     0.11082   0.06847   0.80947   0.00000  Uiso   1.00
N795   N     0.37558   0.06912   0.80729   0.00000  Uiso   1.00
N796   N     0.12442   0.26422   0.85937   0.00000  Uiso   1.00
O797   O     0.25326   0.09538   0.87326   0.00000  Uiso   1.00
O798   O     0.27986   0.22677   0.69182   0.00000  Uiso   1.00
O799   O     0.24675   0.23796   0.79341   0.00000  Uiso   1.00
O800   O     0.24480   0.08559   0.76945   0.00000  Uiso   1.00
O801   O     0.25520   0.24774   0.89721   0.00000  Uiso   1.00
O802   O     0.18936   0.17155   0.88524   0.00000  Uiso   1.00
O803   O     0.31065   0.16179   0.78143   0.00000  Uiso   1.00
O804   O     0.18090   0.16176   0.78143   0.00000  Uiso   1.00
O805   O     0.31910   0.17157   0.88523   0.00000  Uiso   1.00
O806   O     0.22014   0.10656   0.97485   0.00000  Uiso   1.00
C807   C     0.74854   0.06667   0.81782   0.00000  Uiso   1.00
C808   C     0.59030   0.11785   0.82179   0.00000  Uiso   1.00
C809   C     0.88340   0.16698   0.83232   0.00000  Uiso   1.00
C810   C     0.61660   0.16635   0.83435   0.00000  Uiso   1.00
C811   C     0.90294   0.11835   0.81977   0.00000  Uiso   1.00
C812   C     0.59706   0.21498   0.84690   0.00000  Uiso   1.00
C813   C     0.94966   0.11815   0.82008   0.00000  Uiso   1.00
C814   C     0.55034   0.21519   0.84659   0.00000  Uiso   1.00
C815   C     0.97648   0.16673   0.83300   0.00000  Uiso   1.00
C816   C     0.52352   0.16661   0.83367   0.00000  Uiso   1.00
C817   C     0.95642   0.21543   0.84532   0.00000  Uiso   1.00
C818   C     0.75146   0.26667   0.84885   0.00000  Uiso   1.00
C819   C     0.54358   0.11790   0.82135   0.00000  Uiso   1.00
C820   C     0.97014   0.07024   0.80788   0.00000  Uiso   1.00
C821   C     0.52986   0.26309   0.85879   0.00000  Uiso   1.00
C822   C     0.67663   0.09568   0.98949   0.00000  Uiso   1.00
C823   C     0.82337   0.23765   0.67718   0.00000  Uiso   1.00
C824   C     0.51644   0.07012   0.80852   0.00000  Uiso   1.00
C825   C     0.98356   0.26321   0.85815   0.00000  Uiso   1.00
C826   C     0.74784   0.01064   0.80917   0.00000  Uiso   1.00
C827   C     0.75216   0.32269   0.85750   0.00000  Uiso   1.00
C828   C     0.66471   0.16626   0.83361   0.00000  Uiso   1.00
C829   C     0.83529   0.16707   0.83305   0.00000  Uiso   1.00
C830   C     0.90970   0.21548   0.84488   0.00000  Uiso   1.00
Cu831  Cu    0.75501   0.17246   0.89479   0.00000  Uiso   1.00
Cu832  Cu    0.74500   0.16087   0.77187   0.00000  Uiso   1.00
H833   H     0.95050   0.03247   0.79766   0.00000  Uiso   1.00
H834   H     0.63418   0.06771   0.84646   0.00000  Uiso   1.00
H835   H     0.85764   0.06808   0.84476   0.00000  Uiso   1.00
H836   H     0.85269   0.06746   0.76899   0.00000  Uiso   1.00
H837   H     0.64236   0.26525   0.82191   0.00000  Uiso   1.00
H838   H     0.64731   0.26588   0.89767   0.00000  Uiso   1.00
H839   H     0.65690   0.13116   0.99491   0.00000  Uiso   1.00
H840   H     0.67763   0.07891   0.69719   0.00000  Uiso   1.00
H841   H     0.65881   0.06499   0.95132   0.00000  Uiso   1.00
H842   H     0.82237   0.25443   0.96948   0.00000  Uiso   1.00
H843   H     0.84310   0.20217   0.67175   0.00000  Uiso   1.00
H844   H     0.54950   0.30087   0.86901   0.00000  Uiso   1.00
H845   H     0.84119   0.26835   0.71535   0.00000  Uiso   1.00
H846   H     0.53079   0.03225   0.79869   0.00000  Uiso   1.00
H847   H     0.96921   0.30108   0.86797   0.00000  Uiso   1.00
H848   H     0.74375   0.32015   0.76260   0.00000  Uiso   1.00
H849   H     0.75625   0.01319   0.90407   0.00000  Uiso   1.00
H850   H     0.87219   0.26704   0.89600   0.00000  Uiso   1.00
H851   H     0.86582   0.26562   0.82021   0.00000  Uiso   1.00
H852   H     0.62781   0.06629   0.77066   0.00000  Uiso   1.00
N853   N     0.73745   0.15214   0.67951   0.00000  Uiso   1.00
N854   N     0.76256   0.18119   0.98716   0.00000  Uiso   1.00
N855   N     0.88918   0.26487   0.85720   0.00000  Uiso   1.00
N856   N     0.61082   0.06847   0.80947   0.00000  Uiso   1.00
N857   N     0.87558   0.06912   0.80729   0.00000  Uiso   1.00
N858   N     0.62442   0.26422   0.85937   0.00000  Uiso   1.00
O859   O     0.75326   0.09538   0.87326   0.00000  Uiso   1.00
O860   O     0.77986   0.22677   0.69182   0.00000  Uiso   1.00
O861   O     0.74675   0.23796   0.79341   0.00000  Uiso   1.00
O862   O     0.74480   0.08559   0.76945   0.00000  Uiso   1.00
O863   O     0.75520   0.24774   0.89721   0.00000  Uiso   1.00
O864   O     0.68936   0.17155   0.88524   0.00000  Uiso   1.00
O865   O     0.81065   0.16179   0.78143   0.00000  Uiso   1.00
O866   O     0.68090   0.16176   0.78143   0.00000  Uiso   1.00
O867   O     0.81910   0.17157   0.88523   0.00000  Uiso   1.00
O868   O     0.72014   0.10656   0.97485   0.00000  Uiso   1.00
C869   C     0.24854   0.40000   0.81782   0.00000  Uiso   1.00
C870   C     0.09030   0.45119   0.82179   0.00000  Uiso   1.00
C871   C     0.38340   0.50031   0.83232   0.00000  Uiso   1.00
C872   C     0.11660   0.49969   0.83435   0.00000  Uiso   1.00
C873   C     0.40294   0.45169   0.81977   0.00000  Uiso   1.00
C874   C     0.09706   0.54831   0.84690   0.00000  Uiso   1.00
C875   C     0.44966   0.45148   0.82008   0.00000  Uiso   1.00
C876   C     0.05034   0.54852   0.84659   0.00000  Uiso   1.00
C877   C     0.47648   0.50006   0.83300   0.00000  Uiso   1.00
C878   C     0.02352   0.49994   0.83367   0.00000  Uiso   1.00
C879   C     0.45642   0.54877   0.84532   0.00000  Uiso   1.00
C880   C     0.25146   0.60000   0.84885   0.00000  Uiso   1.00
C881   C     0.04358   0.45123   0.82135   0.00000  Uiso   1.00
C882   C     0.47014   0.40358   0.80788   0.00000  Uiso   1.00
C883   C     0.02986   0.59642   0.85879   0.00000  Uiso   1.00
C884   C     0.17663   0.42902   0.98949   0.00000  Uiso   1.00
C885   C     0.32337   0.57098   0.67718   0.00000  Uiso   1.00
C886   C     0.01644   0.40345   0.80852   0.00000  Uiso   1.00
C887   C     0.48356   0.59655   0.85815   0.00000  Uiso   1.00
C888   C     0.24784   0.34397   0.80917   0.00000  Uiso   1.00
C889   C     0.25216   0.65603   0.85750   0.00000  Uiso   1.00
C890   C     0.16471   0.49960   0.83361   0.00000  Uiso   1.00
C891   C     0.33529   0.50040   0.83305   0.00000  Uiso   1.00
C892   C     0.40970   0.54881   0.84488   0.00000  Uiso   1.00
Cu893  Cu    0.25501   0.50579   0.89479   0.00000  Uiso   1.00
Cu894  Cu    0.24500   0.49421   0.77187   0.00000  Uiso   1.00
H895   H     0.45050   0.36580   0.79766   0.00000  Uiso   1.00
H896   H     0.13418   0.40104   0.84646   0.00000  Uiso   1.00
H897   H     0.35764   0.40142   0.84476   0.00000  Uiso   1.00
H898   H     0.35269   0.40079   0.76899   0.00000  Uiso   1.00
H899   H     0.14236   0.59858   0.82191   0.00000  Uiso   1.00
H900   H     0.14731   0.59921   0.89767   0.00000  Uiso   1.00
H901   H     0.15690   0.46449   0.99491   0.00000  Uiso   1.00
H902   H     0.17763   0.41224   0.69719   0.00000  Uiso   1.00
H903   H     0.15881   0.39832   0.95132   0.00000  Uiso   1.00
H904   H     0.32237   0.58776   0.96948   0.00000  Uiso   1.00
H905   H     0.34310   0.53551   0.67175   0.00000  Uiso   1.00
H906   H     0.04950   0.63420   0.86901   0.00000  Uiso   1.00
H907   H     0.34119   0.60168   0.71535   0.00000  Uiso   1.00
H908   H     0.03079   0.36558   0.79869   0.00000  Uiso   1.00
H909   H     0.46921   0.63442   0.86797   0.00000  Uiso   1.00
H910   H     0.24375   0.65348   0.76260   0.00000  Uiso   1.00
H911   H     0.25625   0.34652   0.90407   0.00000  Uiso   1.00
H912   H     0.37219   0.60037   0.89600   0.00000  Uiso   1.00
H913   H     0.36582   0.59896   0.82021   0.00000  Uiso   1.00
H914   H     0.12781   0.39963   0.77066   0.00000  Uiso   1.00
N915   N     0.23745   0.48547   0.67951   0.00000  Uiso   1.00
N916   N     0.26256   0.51453   0.98716   0.00000  Uiso   1.00
N917   N     0.38918   0.59820   0.85720   0.00000  Uiso   1.00
N918   N     0.11082   0.40180   0.80947   0.00000  Uiso   1.00
N919   N     0.37558   0.40245   0.80729   0.00000  Uiso   1.00
N920   N     0.12442   0.59755   0.85937   0.00000  Uiso   1.00
O921   O     0.25326   0.42871   0.87326   0.00000  Uiso   1.00
O922   O     0.27986   0.56011   0.69182   0.00000  Uiso   1.00
O923   O     0.24675   0.57129   0.79341   0.00000  Uiso   1.00
O924   O     0.24480   0.41892   0.76945   0.00000  Uiso   1.00
O925   O     0.25520   0.58108   0.89721   0.00000  Uiso   1.00
O926   O     0.18936   0.50488   0.88524   0.00000  Uiso   1.00
O927   O     0.31065   0.49512   0.78143   0.00000  Uiso   1.00
O928   O     0.18090   0.49510   0.78143   0.00000  Uiso   1.00
O929   O     0.31910   0.50490   0.88523   0.00000  Uiso   1.00
O930   O     0.22014   0.43989   0.97485   0.00000  Uiso   1.00
C931   C     0.74854   0.40000   0.81782   0.00000  Uiso   1.00
C932   C     0.59030   0.45119   0.82179   0.00000  Uiso   1.00
C933   C     0.88340   0.50031   0.83232   0.00000  Uiso   1.00
C934   C     0.61660   0.49969   0.83435   0.00000  Uiso   1.00
C935   C     0.90294   0.45169   0.81977   0.00000  Uiso   1.00
C936   C     0.59706   0.54831   0.84690   0.00000  Uiso   1.00
C937   C     0.94966   0.45148   0.82008   0.00000  Uiso   1.00
C938   C     0.55034   0.54852   0.84659   0.00000  Uiso   1.00
C939   C     0.97648   0.50006   0.83300   0.00000  Uiso   1.00
C940   C     0.52352   0.49994   0.83367   0.00000  Uiso   1.00
C941   C     0.95642   0.54877   0.84532   0.00000  Uiso   1.00
C942   C     0.75146   0.60000   0.84885   0.00000  Uiso   1.00
C943   C     0.54358   0.45123   0.82135   0.00000  Uiso   1.00
C944   C     0.97014   0.40358   0.80788   0.00000  Uiso   1.00
C945   C     0.52986   0.59642   0.85879   0.00000  Uiso   1.00
C946   C     0.67663   0.42902   0.98949   0.00000  Uiso   1.00
C947   C     0.82337   0.57098   0.67718   0.00000  Uiso   1.00
C948   C     0.51644   0.40345   0.80852   0.00000  Uiso   1.00
C949   C     0.98356   0.59655   0.85815   0.00000  Uiso   1.00
C950   C     0.74784   0.34397   0.80917   0.00000  Uiso   1.00
C951   C     0.75216   0.65603   0.85750   0.00000  Uiso   1.00
C952   C     0.66471   0.49960   0.83361   0.00000  Uiso   1.00
C953   C     0.83529   0.50040   0.83305   0.00000  Uiso   1.00
C954   C     0.90970   0.54881   0.84488   0.00000  Uiso   1.00
Cu955  Cu    0.75501   0.50579   0.89479   0.00000  Uiso   1.00
Cu956  Cu    0.74500   0.49421   0.77187   0.00000  Uiso   1.00
H957   H     0.95050   0.36580   0.79766   0.00000  Uiso   1.00
H958   H     0.63418   0.40104   0.84646   0.00000  Uiso   1.00
H959   H     0.85764   0.40142   0.84476   0.00000  Uiso   1.00
H960   H     0.85269   0.40079   0.76899   0.00000  Uiso   1.00
H961   H     0.64236   0.59858   0.82191   0.00000  Uiso   1.00
H962   H     0.64731   0.59921   0.89767   0.00000  Uiso   1.00
H963   H     0.65690   0.46449   0.99491   0.00000  Uiso   1.00
H964   H     0.67763   0.41224   0.69719   0.00000  Uiso   1.00
H965   H     0.65881   0.39832   0.95132   0.00000  Uiso   1.00
H966   H     0.82237   0.58776   0.96948   0.00000  Uiso   1.00
H967   H     0.84310   0.53551   0.67175   0.00000  Uiso   1.00
H968   H     0.54950   0.63420   0.86901   0.00000  Uiso   1.00
H969   H     0.84119   0.60168   0.71535   0.00000  Uiso   1.00
H970   H     0.53079   0.36558   0.79869   0.00000  Uiso   1.00
H971   H     0.96921   0.63442   0.86797   0.00000  Uiso   1.00
H972   H     0.74375   0.65348   0.76260   0.00000  Uiso   1.00
H973   H     0.75625   0.34652   0.90407   0.00000  Uiso   1.00
H974   H     0.87219   0.60037   0.89600   0.00000  Uiso   1.00
H975   H     0.86582   0.59896   0.82021   0.00000  Uiso   1.00
H976   H     0.62781   0.39963   0.77066   0.00000  Uiso   1.00
N977   N     0.73745   0.48547   0.67951   0.00000  Uiso   1.00
N978   N     0.76256   0.51453   0.98716   0.00000  Uiso   1.00
N979   N     0.88918   0.59820   0.85720   0.00000  Uiso   1.00
N980   N     0.61082   0.40180   0.80947   0.00000  Uiso   1.00
N981   N     0.87558   0.40245   0.80729   0.00000  Uiso   1.00
N982   N     0.62442   0.59755   0.85937   0.00000  Uiso   1.00
O983   O     0.75326   0.42871   0.87326   0.00000  Uiso   1.00
O984   O     0.77986   0.56011   0.69182   0.00000  Uiso   1.00
O985   O     0.74675   0.57129   0.79341   0.00000  Uiso   1.00
O986   O     0.74480   0.41892   0.76945   0.00000  Uiso   1.00
O987   O     0.75520   0.58108   0.89721   0.00000  Uiso   1.00
O988   O     0.68936   0.50488   0.88524   0.00000  Uiso   1.00
O989   O     0.81065   0.49512   0.78143   0.00000  Uiso   1.00
O990   O     0.68090   0.49510   0.78143   0.00000  Uiso   1.00
O991   O     0.81910   0.50490   0.88523   0.00000  Uiso   1.00
O992   O     0.72014   0.43989   0.97485   0.00000  Uiso   1.00
C993   C     0.24854   0.73333   0.81782   0.00000  Uiso   1.00
C994   C     0.09030   0.78452   0.82179   0.00000  Uiso   1.00
C995   C     0.38340   0.83365   0.83232   0.00000  Uiso   1.00
C996   C     0.11660   0.83302   0.83435   0.00000  Uiso   1.00
C997   C     0.40294   0.78502   0.81977   0.00000  Uiso   1.00
C998   C     0.09706   0.88165   0.84690   0.00000  Uiso   1.00
C999   C     0.44966   0.78481   0.82008   0.00000  Uiso   1.00
C1000  C     0.05034   0.88185   0.84659   0.00000  Uiso   1.00
C1001  C     0.47648   0.83339   0.83300   0.00000  Uiso   1.00
C1002  C     0.02352   0.83327   0.83367   0.00000  Uiso   1.00
C1003  C     0.45642   0.88210   0.84532   0.00000  Uiso   1.00
C1004  C     0.25146   0.93333   0.84885   0.00000  Uiso   1.00
C1005  C     0.04358   0.78457   0.82135   0.00000  Uiso   1.00
C1006  C     0.47014   0.73691   0.80788   0.00000  Uiso   1.00
C1007  C     0.02986   0.92976   0.85879   0.00000  Uiso   1.00
C1008  C     0.17663   0.76235   0.98949   0.00000  Uiso   1.00
C1009  C     0.32337   0.90432   0.67718   0.00000  Uiso   1.00
C1010  C     0.01644   0.73679   0.80852   0.00000  Uiso   1.00
C1011  C     0.48356   0.92988   0.85815   0.00000  Uiso   1.00
C1012  C     0.24784   0.67731   0.80917   0.00000  Uiso   1.00
C1013  C     0.25216   0.98936   0.85750   0.00000  Uiso   1.00
C1014  C     0.16471   0.83293   0.83361   0.00000  Uiso   1.00
C1015  C     0.33529   0.83374   0.83305   0.00000  Uiso   1.00
C1016  C     0.40970   0.88215   0.84488   0.00000  Uiso   1.00
Cu1017 Cu    0.25501   0.83913   0.89479   0.00000  Uiso   1.00
Cu1018 Cu    0.24500   0.82754   0.77187   0.00000  Uiso   1.00
H1019  H     0.45050   0.69913   0.79766   0.00000  Uiso   1.00
H1020  H     0.13418   0.73438   0.84646   0.00000  Uiso   1.00
H1021  H     0.35764   0.73475   0.84476   0.00000  Uiso   1.00
H1022  H     0.35269   0.73413   0.76899   0.00000  Uiso   1.00
H1023  H     0.14236   0.93192   0.82191   0.00000  Uiso   1.00
H1024  H     0.14731   0.93254   0.89767   0.00000  Uiso   1.00
H1025  H     0.15690   0.79783   0.99491   0.00000  Uiso   1.00
H1026  H     0.17763   0.74557   0.69719   0.00000  Uiso   1.00
H1027  H     0.15881   0.73165   0.95132   0.00000  Uiso   1.00
H1028  H     0.32237   0.92109   0.96948   0.00000  Uiso   1.00
H1029  H     0.34310   0.86884   0.67175   0.00000  Uiso   1.00
H1030  H     0.04950   0.96753   0.86901   0.00000  Uiso   1.00
H1031  H     0.34119   0.93501   0.71535   0.00000  Uiso   1.00
H1032  H     0.03079   0.69892   0.79869   0.00000  Uiso   1.00
H1033  H     0.46921   0.96775   0.86797   0.00000  Uiso   1.00
H1034  H     0.24375   0.98681   0.76260   0.00000  Uiso   1.00
H1035  H     0.25625   0.67985   0.90407   0.00000  Uiso   1.00
H1036  H     0.37219   0.93371   0.89600   0.00000  Uiso   1.00
H1037  H     0.36582   0.93229   0.82021   0.00000  Uiso   1.00
H1038  H     0.12781   0.73296   0.77066   0.00000  Uiso   1.00
N1039  N     0.23745   0.81881   0.67951   0.00000  Uiso   1.00
N1040  N     0.26256   0.84786   0.98716   0.00000  Uiso   1.00
N1041  N     0.38918   0.93153   0.85720   0.00000  Uiso   1.00
N1042  N     0.11082   0.73513   0.80947   0.00000  Uiso   1.00
N1043  N     0.37558   0.73578   0.80729   0.00000  Uiso   1.00
N1044  N     0.12442   0.93088   0.85937   0.00000  Uiso   1.00
O1045  O     0.25326   0.76204   0.87326   0.00000  Uiso   1.00
O1046  O     0.27986   0.89344   0.69182   0.00000  Uiso   1.00
O1047  O     0.24675   0.90462   0.79341   0.00000  Uiso   1.00
O1048  O     0.24480   0.75226   0.76945   0.00000  Uiso   1.00
O1049  O     0.25520   0.91441   0.89721   0.00000  Uiso   1.00
O1050  O     0.18936   0.83821   0.88524   0.00000  Uiso   1.00
O1051  O     0.31065   0.82845   0.78143   0.00000  Uiso   1.00
O1052  O     0.18090   0.82843   0.78143   0.00000  Uiso   1.00
O1053  O     0.31910   0.83824   0.88523   0.00000  Uiso   1.00
O1054  O     0.22014   0.77323   0.97485   0.00000  Uiso   1.00
C1055  C     0.74854   0.73333   0.81782   0.00000  Uiso   1.00
C1056  C     0.59030   0.78452   0.82179   0.00000  Uiso   1.00
C1057  C     0.88340   0.83365   0.83232   0.00000  Uiso   1.00
C1058  C     0.61660   0.83302   0.83435   0.00000  Uiso   1.00
C1059  C     0.90294   0.78502   0.81977   0.00000  Uiso   1.00
C1060  C     0.59706   0.88165   0.84690   0.00000  Uiso   1.00
C1061  C     0.94966   0.78481   0.82008   0.00000  Uiso   1.00
C1062  C     0.55034   0.88185   0.84659   0.00000  Uiso   1.00
C1063  C     0.97648   0.83339   0.83300   0.00000  Uiso   1.00
C1064  C     0.52352   0.83327   0.83367   0.00000  Uiso   1.00
C1065  C     0.95642   0.88210   0.84532   0.00000  Uiso   1.00
C1066  C     0.75146   0.93333   0.84885   0.00000  Uiso   1.00
C1067  C     0.54358   0.78457   0.82135   0.00000  Uiso   1.00
C1068  C     0.97014   0.73691   0.80788   0.00000  Uiso   1.00
C1069  C     0.52986   0.92976   0.85879   0.00000  Uiso   1.00
C1070  C     0.67663   0.76235   0.98949   0.00000  Uiso   1.00
C1071  C     0.82337   0.90432   0.67718   0.00000  Uiso   1.00
C1072  C     0.51644   0.73679   0.80852   0.00000  Uiso   1.00
C1073  C     0.98356   0.92988   0.85815   0.00000  Uiso   1.00
C1074  C     0.74784   0.67731   0.80917   0.00000  Uiso   1.00
C1075  C     0.75216   0.98936   0.85750   0.00000  Uiso   1.00
C1076  C     0.66471   0.83293   0.83361   0.00000  Uiso   1.00
C1077  C     0.83529   0.83374   0.83305   0.00000  Uiso   1.00
C1078  C     0.90970   0.88215   0.84488   0.00000  Uiso   1.00
Cu1079 Cu    0.75501   0.83913   0.89479   0.00000  Uiso   1.00
Cu1080 Cu    0.74500   0.82754   0.77187   0.00000  Uiso   1.00
H1081  H     0.95050   0.69913   0.79766   0.00000  Uiso   1.00
H1082  H     0.63418   0.73438   0.84646   0.00000  Uiso   1.00
H1083  H     0.85764   0.73475   0.84476   0.00000  Uiso   1.00
H1084  H     0.85269   0.73413   0.76899   0.00000  Uiso   1.00
H1085  H     0.64236   0.93192   0.82191   0.00000  Uiso   1.00
H1086  H     0.64731   0.93254   0.89767   0.00000  Uiso   1.00
H1087  H     0.65690   0.79783   0.99491   0.00000  Uiso   1.00
H1088  H     0.67763   0.74557   0.69719   0.00000  Uiso   1.00
H1089  H     0.65881   0.73165   0.95132   0.00000  Uiso   1.00
H1090  H     0.82237   0.92109   0.96948   0.00000  Uiso   1.00
H1091  H     0.84310   0.86884   0.67175   0.00000  Uiso   1.00
H1092  H     0.54950   0.96753   0.86901   0.00000  Uiso   1.00
H1093  H     0.84119   0.93501   0.71535   0.00000  Uiso   1.00
H1094  H     0.53079   0.69892   0.79869   0.00000  Uiso   1.00
H1095  H     0.96921   0.96775   0.86797   0.00000  Uiso   1.00
H1096  H     0.74375   0.98681   0.76260   0.00000  Uiso   1.00
H1097  H     0.75625   0.67985   0.90407   0.00000  Uiso   1.00
H1098  H     0.87219   0.93371   0.89600   0.00000  Uiso   1.00
H1099  H     0.86582   0.93229   0.82021   0.00000  Uiso   1.00
H1100  H     0.62781   0.73296   0.77066   0.00000  Uiso   1.00
N1101  N     0.73745   0.81881   0.67951   0.00000  Uiso   1.00
N1102  N     0.76256   0.84786   0.98716   0.00000  Uiso   1.00
N1103  N     0.88918   0.93153   0.85720   0.00000  Uiso   1.00
N1104  N     0.61082   0.73513   0.80947   0.00000  Uiso   1.00
N1105  N     0.87558   0.73578   0.80729   0.00000  Uiso   1.00
N1106  N     0.62442   0.93088   0.85937   0.00000  Uiso   1.00
O1107  O     0.75326   0.76204   0.87326   0.00000  Uiso   1.00
O1108  O     0.77986   0.89344   0.69182   0.00000  Uiso   1.00
O1109  O     0.74675   0.90462   0.79341   0.00000  Uiso   1.00
O1110  O     0.74480   0.75226   0.76945   0.00000  Uiso   1.00
O1111  O     0.75520   0.91441   0.89721   0.00000  Uiso   1.00
O1112  O     0.68936   0.83821   0.88524   0.00000  Uiso   1.00
O1113  O     0.81065   0.82845   0.78143   0.00000  Uiso   1.00
O1114  O     0.68090   0.82843   0.78143   0.00000  Uiso   1.00
O1115  O     0.81910   0.83824   0.88523   0.00000  Uiso   1.00
O1116  O     0.72014   0.77323   0.97485   0.00000  Uiso   1.00
loop_
_geom_bond_atom_site_label_1
_geom_bond_atom_site_label_2
_geom_bond_distance
_geom_bond_site_symmetry_2
_ccdc_geom_bond_type
C1     O56     1.290   .     A
C1     O53     1.298   .     A
C1     C20     1.424   .     S
C2     C4      1.407   .     A
C2     C13     1.401   .     A
C2     N50     1.438   .     S
C3     C23     1.445   .     S
C3     C24     1.407   .     A
C3     C5      1.406   .     A
C4     C22     1.445   .     S
C4     C6      1.406   .     A
C5     C7      1.401   .     A
C5     N51     1.438   .     S
C6     C8      1.401   .     A
C6     N52     1.438   .     S
C7     C9      1.416   .     A
C7     C14     1.403   .     A
C8     C10     1.416   .     A
C8     C15     1.403   .     A
C9     C11     1.415   .     A
C9     C72     1.410   .     S
C10    C13     1.415   .     A
C10    C71     1.410   1_455 S
C11    C19     1.404   .     A
C11    C24     1.401   .     A
C12    O57     1.290   .     A
C12    O55     1.298   .     A
C12    C21     1.424   .     S
C13    C18     1.404   .     A
C14    H27     1.083   .     S
C14    C80     1.388   .     S
C15    H38     1.083   .     S
C15    C81     1.388   1_455 S
C16    H33     1.114   .     S
C16    O62     1.403   .     S
C16    H35     1.108   .     S
C16    H406    1.105   .     S
C17    O54     1.403   .     S
C17    H39     1.108   .     S
C17    H37     1.114   .     S
C17    H780    1.105   1_554 S
C18    H40     1.083   .     S
C18    C76     1.388   1_455 S
C19    H41     1.083   .     S
C19    C77     1.388   .     S
C20    C269    1.326   1_545 S
C20    H290    1.088   1_545 S
C21    C144    1.326   .     S
C21    H167    1.088   .     S
C22    O58     1.298   .     A
C22    O60     1.297   .     A
C23    O59     1.298   .     A
C23    O61     1.297   .     A
C24    N49     1.438   .     S
Cu25   O61     1.955   .     S
Cu25   N48     2.035   .     S
Cu25   O53     1.951   .     S
Cu25   O58     1.960   .     S
Cu25   O57     1.944   .     S
Cu25   Cu26    2.708   .     S
Cu26   O59     1.960   .     S
Cu26   O55     1.951   .     S
Cu26   O60     1.955   .     S
Cu26   N47     2.035   .     S
Cu26   O56     1.944   .     S
H28    N50     1.045   .     S
H29    N51     1.046   .     S
H30    N51     1.045   .     S
H31    N52     1.046   .     S
H32    N52     1.045   .     S
H34    C760    1.105   1_554 S
H36    C389    1.105   .     S
H42    C144    1.088   .     S
H43    C269    1.088   1_545 S
H44    N49     1.044   .     S
H45    N49     1.045   .     S
H46    N50     1.044   .     S
N47    N792    1.295   1_554 S
N47    O806    1.345   1_554 S
N48    N419    1.295   .     S
N48    O426    1.345   .     S
O54    N792    1.345   1_554 S
O62    N419    1.345   .     S
C63    O118    1.290   .     A
C63    O115    1.298   .     A
C63    C82     1.424   .     S
C64    C66     1.407   .     A
C64    C75     1.401   .     A
C64    N112    1.438   .     S
C65    C85     1.445   .     S
C65    C86     1.407   .     A
C65    C67     1.406   .     A
C66    C84     1.445   .     S
C66    C68     1.406   .     A
C67    C69     1.401   .     A
C67    N113    1.438   .     S
C68    C70     1.401   .     A
C68    N114    1.438   .     S
C69    C71     1.416   .     A
C69    C76     1.403   .     A
C70    C72     1.416   .     A
C70    C77     1.403   .     A
C71    C73     1.415   .     A
C71    C10     1.410   1_655 S
C72    C75     1.415   .     A
C73    C81     1.404   .     A
C73    C86     1.401   .     A
C74    O119    1.290   .     A
C74    O117    1.298   .     A
C74    C83     1.424   .     S
C75    C80     1.404   .     A
C76    H89     1.083   .     S
C76    C18     1.388   1_655 S
C77    H100    1.083   .     S
C78    H95     1.114   .     S
C78    O124    1.403   .     S
C78    H97     1.108   .     S
C78    H468    1.105   .     S
C79    O116    1.403   .     S
C79    H101    1.108   .     S
C79    H99     1.114   .     S
C79    H842    1.105   1_554 S
C80    H102    1.083   .     S
C81    H103    1.083   .     S
C81    C15     1.388   1_655 S
C82    C331    1.326   1_545 S
C82    H352    1.088   1_545 S
C83    C206    1.326   .     S
C83    H229    1.088   .     S
C84    O120    1.298   .     A
C84    O122    1.297   .     A
C85    O121    1.298   .     A
C85    O123    1.297   .     A
C86    N111    1.438   .     S
Cu87   O123    1.955   .     S
Cu87   N110    2.035   .     S
Cu87   O115    1.951   .     S
Cu87   O120    1.960   .     S
Cu87   O119    1.944   .     S
Cu87   Cu88    2.708   .     S
Cu88   O121    1.960   .     S
Cu88   O117    1.951   .     S
Cu88   O122    1.955   .     S
Cu88   N109    2.035   .     S
Cu88   O118    1.944   .     S
H90    N112    1.045   .     S
H91    N113    1.046   .     S
H92    N113    1.045   .     S
H93    N114    1.046   .     S
H94    N114    1.045   .     S
H96    C822    1.105   1_554 S
H98    C451    1.105   .     S
H104   C206    1.088   .     S
H105   C331    1.088   1_545 S
H106   N111    1.044   .     S
H107   N111    1.045   .     S
H108   N112    1.044   .     S
N109   N854    1.295   1_554 S
N109   O868    1.345   1_554 S
N110   N481    1.295   .     S
N110   O488    1.345   .     S
O116   N854    1.345   1_554 S
O124   N481    1.345   .     S
C125   O180    1.290   .     A
C125   O177    1.298   .     A
C125   C144    1.424   .     S
C126   C128    1.407   .     A
C126   C137    1.401   .     A
C126   N174    1.438   .     S
C127   C147    1.445   .     S
C127   C148    1.407   .     A
C127   C129    1.406   .     A
C128   C146    1.445   .     S
C128   C130    1.406   .     A
C129   C131    1.401   .     A
C129   N175    1.438   .     S
C130   C132    1.401   .     A
C130   N176    1.438   .     S
C131   C133    1.416   .     A
C131   C138    1.403   .     A
C132   C134    1.416   .     A
C132   C139    1.403   .     A
C133   C135    1.415   .     A
C133   C196    1.410   .     S
C134   C137    1.415   .     A
C134   C195    1.410   1_455 S
C135   C143    1.404   .     A
C135   C148    1.401   .     A
C136   O181    1.290   .     A
C136   O179    1.298   .     A
C136   C145    1.424   .     S
C137   C142    1.404   .     A
C138   H151    1.083   .     S
C138   C204    1.388   .     S
C139   H162    1.083   .     S
C139   C205    1.388   1_455 S
C140   H157    1.114   .     S
C140   O186    1.403   .     S
C140   H159    1.108   .     S
C140   H530    1.105   .     S
C141   O178    1.403   .     S
C141   H163    1.108   .     S
C141   H161    1.114   .     S
C141   H904    1.105   1_554 S
C142   H164    1.083   .     S
C142   C200    1.388   1_455 S
C143   H165    1.083   .     S
C143   C201    1.388   .     S
C145   C268    1.326   .     S
C145   H291    1.088   .     S
C146   O182    1.298   .     A
C146   O184    1.297   .     A
C147   O183    1.298   .     A
C147   O185    1.297   .     A
C148   N173    1.438   .     S
Cu149  O185    1.955   .     S
Cu149  N172    2.035   .     S
Cu149  O177    1.951   .     S
Cu149  O182    1.960   .     S
Cu149  O181    1.944   .     S
Cu149  Cu150   2.708   .     S
Cu150  O183    1.960   .     S
Cu150  O179    1.951   .     S
Cu150  O184    1.955   .     S
Cu150  N171    2.035   .     S
Cu150  O180    1.944   .     S
H152   N174    1.045   .     S
H153   N175    1.046   .     S
H154   N175    1.045   .     S
H155   N176    1.046   .     S
H156   N176    1.045   .     S
H158   C884    1.105   1_554 S
H160   C513    1.105   .     S
H166   C268    1.088   .     S
H168   N173    1.044   .     S
H169   N173    1.045   .     S
H170   N174    1.044   .     S
N171   N916    1.295   1_554 S
N171   O930    1.345   1_554 S
N172   N543    1.295   .     S
N172   O550    1.345   .     S
O178   N916    1.345   1_554 S
O186   N543    1.345   .     S
C187   O242    1.290   .     A
C187   O239    1.298   .     A
C187   C206    1.424   .     S
C188   C190    1.407   .     A
C188   C199    1.401   .     A
C188   N236    1.438   .     S
C189   C209    1.445   .     S
C189   C210    1.407   .     A
C189   C191    1.406   .     A
C190   C208    1.445   .     S
C190   C192    1.406   .     A
C191   C193    1.401   .     A
C191   N237    1.438   .     S
C192   C194    1.401   .     A
C192   N238    1.438   .     S
C193   C195    1.416   .     A
C193   C200    1.403   .     A
C194   C196    1.416   .     A
C194   C201    1.403   .     A
C195   C197    1.415   .     A
C195   C134    1.410   1_655 S
C196   C199    1.415   .     A
C197   C205    1.404   .     A
C197   C210    1.401   .     A
C198   O243    1.290   .     A
C198   O241    1.298   .     A
C198   C207    1.424   .     S
C199   C204    1.404   .     A
C200   H213    1.083   .     S
C200   C142    1.388   1_655 S
C201   H224    1.083   .     S
C202   H219    1.114   .     S
C202   O248    1.403   .     S
C202   H221    1.108   .     S
C202   H592    1.105   .     S
C203   O240    1.403   .     S
C203   H225    1.108   .     S
C203   H223    1.114   .     S
C203   H966    1.105   1_554 S
C204   H226    1.083   .     S
C205   H227    1.083   .     S
C205   C139    1.388   1_655 S
C207   C330    1.326   .     S
C207   H353    1.088   .     S
C208   O244    1.298   .     A
C208   O246    1.297   .     A
C209   O245    1.298   .     A
C209   O247    1.297   .     A
C210   N235    1.438   .     S
Cu211  O247    1.955   .     S
Cu211  N234    2.035   .     S
Cu211  O239    1.951   .     S
Cu211  O244    1.960   .     S
Cu211  O243    1.944   .     S
Cu211  Cu212   2.708   .     S
Cu212  O245    1.960   .     S
Cu212  O241    1.951   .     S
Cu212  O246    1.955   .     S
Cu212  N233    2.035   .     S
Cu212  O242    1.944   .     S
H214   N236    1.045   .     S
H215   N237    1.046   .     S
H216   N237    1.045   .     S
H217   N238    1.046   .     S
H218   N238    1.045   .     S
H220   C946    1.105   1_554 S
H222   C575    1.105   .     S
H228   C330    1.088   .     S
H230   N235    1.044   .     S
H231   N235    1.045   .     S
H232   N236    1.044   .     S
N233   N978    1.295   1_554 S
N233   O992    1.345   1_554 S
N234   N605    1.295   .     S
N234   O612    1.345   .     S
O240   N978    1.345   1_554 S
O248   N605    1.345   .     S
C249   O304    1.290   .     A
C249   O301    1.298   .     A
C249   C268    1.424   .     S
C250   C252    1.407   .     A
C250   C261    1.401   .     A
C250   N298    1.438   .     S
C251   C271    1.445   .     S
C251   C272    1.407   .     A
C251   C253    1.406   .     A
C252   C270    1.445   .     S
C252   C254    1.406   .     A
C253   C255    1.401   .     A
C253   N299    1.438   .     S
C254   C256    1.401   .     A
C254   N300    1.438   .     S
C255   C257    1.416   .     A
C255   C262    1.403   .     A
C256   C258    1.416   .     A
C256   C263    1.403   .     A
C257   C259    1.415   .     A
C257   C320    1.410   .     S
C258   C261    1.415   .     A
C258   C319    1.410   1_455 S
C259   C267    1.404   .     A
C259   C272    1.401   .     A
C260   O305    1.290   .     A
C260   O303    1.298   .     A
C260   C269    1.424   .     S
C261   C266    1.404   .     A
C262   H275    1.083   .     S
C262   C328    1.388   .     S
C263   H286    1.083   .     S
C263   C329    1.388   1_455 S
C264   H281    1.114   .     S
C264   O310    1.403   .     S
C264   H283    1.108   .     S
C264   H654    1.105   .     S
C265   O302    1.403   .     S
C265   H287    1.108   .     S
C265   H285    1.114   .     S
C265   H1028   1.105   1_554 S
C266   H288    1.083   .     S
C266   C324    1.388   1_455 S
C267   H289    1.083   .     S
C267   C325    1.388   .     S
C269   C20     1.326   1_565 S
C269   H43     1.088   1_565 S
C270   O306    1.298   .     A
C270   O308    1.297   .     A
C271   O307    1.298   .     A
C271   O309    1.297   .     A
C272   N297    1.438   .     S
Cu273  O309    1.955   .     S
Cu273  N296    2.035   .     S
Cu273  O301    1.951   .     S
Cu273  O306    1.960   .     S
Cu273  O305    1.944   .     S
Cu273  Cu274   2.708   .     S
Cu274  O307    1.960   .     S
Cu274  O303    1.951   .     S
Cu274  O308    1.955   .     S
Cu274  N295    2.035   .     S
Cu274  O304    1.944   .     S
H276   N298    1.045   .     S
H277   N299    1.046   .     S
H278   N299    1.045   .     S
H279   N300    1.046   .     S
H280   N300    1.045   .     S
H282   C1008   1.105   1_554 S
H284   C637    1.105   .     S
H290   C20     1.088   1_565 S
H292   N297    1.044   .     S
H293   N297    1.045   .     S
H294   N298    1.044   .     S
N295   N1040   1.295   1_554 S
N295   O1054   1.345   1_554 S
N296   N667    1.295   .     S
N296   O674    1.345   .     S
O302   N1040   1.345   1_554 S
O310   N667    1.345   .     S
C311   O366    1.290   .     A
C311   O363    1.298   .     A
C311   C330    1.424   .     S
C312   C314    1.407   .     A
C312   C323    1.401   .     A
C312   N360    1.438   .     S
C313   C333    1.445   .     S
C313   C334    1.407   .     A
C313   C315    1.406   .     A
C314   C332    1.445   .     S
C314   C316    1.406   .     A
C315   C317    1.401   .     A
C315   N361    1.438   .     S
C316   C318    1.401   .     A
C316   N362    1.438   .     S
C317   C319    1.416   .     A
C317   C324    1.403   .     A
C318   C320    1.416   .     A
C318   C325    1.403   .     A
C319   C321    1.415   .     A
C319   C258    1.410   1_655 S
C320   C323    1.415   .     A
C321   C329    1.404   .     A
C321   C334    1.401   .     A
C322   O367    1.290   .     A
C322   O365    1.298   .     A
C322   C331    1.424   .     S
C323   C328    1.404   .     A
C324   H337    1.083   .     S
C324   C266    1.388   1_655 S
C325   H348    1.083   .     S
C326   H343    1.114   .     S
C326   O372    1.403   .     S
C326   H345    1.108   .     S
C326   H716    1.105   .     S
C327   O364    1.403   .     S
C327   H349    1.108   .     S
C327   H347    1.114   .     S
C327   H1090   1.105   1_554 S
C328   H350    1.083   .     S
C329   H351    1.083   .     S
C329   C263    1.388   1_655 S
C331   C82     1.326   1_565 S
C331   H105    1.088   1_565 S
C332   O368    1.298   .     A
C332   O370    1.297   .     A
C333   O369    1.298   .     A
C333   O371    1.297   .     A
C334   N359    1.438   .     S
Cu335  O371    1.955   .     S
Cu335  N358    2.035   .     S
Cu335  O363    1.951   .     S
Cu335  O368    1.960   .     S
Cu335  O367    1.944   .     S
Cu335  Cu336   2.708   .     S
Cu336  O369    1.960   .     S
Cu336  O365    1.951   .     S
Cu336  O370    1.955   .     S
Cu336  N357    2.035   .     S
Cu336  O366    1.944   .     S
H338   N360    1.045   .     S
H339   N361    1.046   .     S
H340   N361    1.045   .     S
H341   N362    1.046   .     S
H342   N362    1.045   .     S
H344   C1070   1.105   1_554 S
H346   C699    1.105   .     S
H352   C82     1.088   1_565 S
H354   N359    1.044   .     S
H355   N359    1.045   .     S
H356   N360    1.044   .     S
N357   N1102   1.295   1_554 S
N357   O1116   1.345   1_554 S
N358   N729    1.295   .     S
N358   O736    1.345   .     S
O364   N1102   1.345   1_554 S
O372   N729    1.345   .     S
C373   O428    1.290   .     A
C373   O425    1.298   .     A
C373   C392    1.424   .     S
C374   C376    1.407   .     A
C374   C385    1.401   .     A
C374   N422    1.438   .     S
C375   C395    1.445   .     S
C375   C396    1.407   .     A
C375   C377    1.406   .     A
C376   C394    1.445   .     S
C376   C378    1.406   .     A
C377   C379    1.401   .     A
C377   N423    1.438   .     S
C378   C380    1.401   .     A
C378   N424    1.438   .     S
C379   C381    1.416   .     A
C379   C386    1.403   .     A
C380   C382    1.416   .     A
C380   C387    1.403   .     A
C381   C383    1.415   .     A
C381   C444    1.410   .     S
C382   C385    1.415   .     A
C382   C443    1.410   1_455 S
C383   C391    1.404   .     A
C383   C396    1.401   .     A
C384   O429    1.290   .     A
C384   O427    1.298   .     A
C384   C393    1.424   .     S
C385   C390    1.404   .     A
C386   H399    1.083   .     S
C386   C452    1.388   .     S
C387   H410    1.083   .     S
C387   C453    1.388   1_455 S
C388   H405    1.114   .     S
C388   O434    1.403   .     S
C388   H407    1.108   .     S
C388   H778    1.105   .     S
C389   O426    1.403   .     S
C389   H411    1.108   .     S
C389   H409    1.114   .     S
C390   H412    1.083   .     S
C390   C448    1.388   1_455 S
C391   H413    1.083   .     S
C391   C449    1.388   .     S
C392   C641    1.326   1_545 S
C392   H662    1.088   1_545 S
C393   C516    1.326   .     S
C393   H539    1.088   .     S
C394   O430    1.298   .     A
C394   O432    1.297   .     A
C395   O431    1.298   .     A
C395   O433    1.297   .     A
C396   N421    1.438   .     S
Cu397  O433    1.955   .     S
Cu397  N420    2.035   .     S
Cu397  O425    1.951   .     S
Cu397  O430    1.960   .     S
Cu397  O429    1.944   .     S
Cu397  Cu398   2.708   .     S
Cu398  O431    1.960   .     S
Cu398  O427    1.951   .     S
Cu398  O432    1.955   .     S
Cu398  N419    2.035   .     S
Cu398  O428    1.944   .     S
H400   N422    1.045   .     S
H401   N423    1.046   .     S
H402   N423    1.045   .     S
H403   N424    1.046   .     S
H404   N424    1.045   .     S
H408   C761    1.105   .     S
H414   C516    1.088   .     S
H415   C641    1.088   1_545 S
H416   N421    1.044   .     S
H417   N421    1.045   .     S
H418   N422    1.044   .     S
N420   N791    1.295   .     S
N420   O798    1.345   .     S
O434   N791    1.345   .     S
C435   O490    1.290   .     A
C435   O487    1.298   .     A
C435   C454    1.424   .     S
C436   C438    1.407   .     A
C436   C447    1.401   .     A
C436   N484    1.438   .     S
C437   C457    1.445   .     S
C437   C458    1.407   .     A
C437   C439    1.406   .     A
C438   C456    1.445   .     S
C438   C440    1.406   .     A
C439   C441    1.401   .     A
C439   N485    1.438   .     S
C440   C442    1.401   .     A
C440   N486    1.438   .     S
C441   C443    1.416   .     A
C441   C448    1.403   .     A
C442   C444    1.416   .     A
C442   C449    1.403   .     A
C443   C445    1.415   .     A
C443   C382    1.410   1_655 S
C444   C447    1.415   .     A
C445   C453    1.404   .     A
C445   C458    1.401   .     A
C446   O491    1.290   .     A
C446   O489    1.298   .     A
C446   C455    1.424   .     S
C447   C452    1.404   .     A
C448   H461    1.083   .     S
C448   C390    1.388   1_655 S
C449   H472    1.083   .     S
C450   H467    1.114   .     S
C450   O496    1.403   .     S
C450   H469    1.108   .     S
C450   H840    1.105   .     S
C451   O488    1.403   .     S
C451   H473    1.108   .     S
C451   H471    1.114   .     S
C452   H474    1.083   .     S
C453   H475    1.083   .     S
C453   C387    1.388   1_655 S
C454   C703    1.326   1_545 S
C454   H724    1.088   1_545 S
C455   C578    1.326   .     S
C455   H601    1.088   .     S
C456   O492    1.298   .     A
C456   O494    1.297   .     A
C457   O493    1.298   .     A
C457   O495    1.297   .     A
C458   N483    1.438   .     S
Cu459  O495    1.955   .     S
Cu459  N482    2.035   .     S
Cu459  O487    1.951   .     S
Cu459  O492    1.960   .     S
Cu459  O491    1.944   .     S
Cu459  Cu460   2.708   .     S
Cu460  O493    1.960   .     S
Cu460  O489    1.951   .     S
Cu460  O494    1.955   .     S
Cu460  N481    2.035   .     S
Cu460  O490    1.944   .     S
H462   N484    1.045   .     S
H463   N485    1.046   .     S
H464   N485    1.045   .     S
H465   N486    1.046   .     S
H466   N486    1.045   .     S
H470   C823    1.105   .     S
H476   C578    1.088   .     S
H477   C703    1.088   1_545 S
H478   N483    1.044   .     S
H479   N483    1.045   .     S
H480   N484    1.044   .     S
N482   N853    1.295   .     S
N482   O860    1.345   .     S
O496   N853    1.345   .     S
C497   O552    1.290   .     A
C497   O549    1.298   .     A
C497   C516    1.424   .     S
C498   C500    1.407   .     A
C498   C509    1.401   .     A
C498   N546    1.438   .     S
C499   C519    1.445   .     S
C499   C520    1.407   .     A
C499   C501    1.406   .     A
C500   C518    1.445   .     S
C500   C502    1.406   .     A
C501   C503    1.401   .     A
C501   N547    1.438   .     S
C502   C504    1.401   .     A
C502   N548    1.438   .     S
C503   C505    1.416   .     A
C503   C510    1.403   .     A
C504   C506    1.416   .     A
C504   C511    1.403   .     A
C505   C507    1.415   .     A
C505   C568    1.410   .     S
C506   C509    1.415   .     A
C506   C567    1.410   1_455 S
C507   C515    1.404   .     A
C507   C520    1.401   .     A
C508   O553    1.290   .     A
C508   O551    1.298   .     A
C508   C517    1.424   .     S
C509   C514    1.404   .     A
C510   H523    1.083   .     S
C510   C576    1.388   .     S
C511   H534    1.083   .     S
C511   C577    1.388   1_455 S
C512   H529    1.114   .     S
C512   O558    1.403   .     S
C512   H531    1.108   .     S
C512   H902    1.105   .     S
C513   O550    1.403   .     S
C513   H535    1.108   .     S
C513   H533    1.114   .     S
C514   H536    1.083   .     S
C514   C572    1.388   1_455 S
C515   H537    1.083   .     S
C515   C573    1.388   .     S
C517   C640    1.326   .     S
C517   H663    1.088   .     S
C518   O554    1.298   .     A
C518   O556    1.297   .     A
C519   O555    1.298   .     A
C519   O557    1.297   .     A
C520   N545    1.438   .     S
Cu521  O557    1.955   .     S
Cu521  N544    2.035   .     S
Cu521  O549    1.951   .     S
Cu521  O554    1.960   .     S
Cu521  O553    1.944   .     S
Cu521  Cu522   2.708   .     S
Cu522  O555    1.960   .     S
Cu522  O551    1.951   .     S
Cu522  O556    1.955   .     S
Cu522  N543    2.035   .     S
Cu522  O552    1.944   .     S
H524   N546    1.045   .     S
H525   N547    1.046   .     S
H526   N547    1.045   .     S
H527   N548    1.046   .     S
H528   N548    1.045   .     S
H532   C885    1.105   .     S
H538   C640    1.088   .     S
H540   N545    1.044   .     S
H541   N545    1.045   .     S
H542   N546    1.044   .     S
N544   N915    1.295   .     S
N544   O922    1.345   .     S
O558   N915    1.345   .     S
C559   O614    1.290   .     A
C559   O611    1.298   .     A
C559   C578    1.424   .     S
C560   C562    1.407   .     A
C560   C571    1.401   .     A
C560   N608    1.438   .     S
C561   C581    1.445   .     S
C561   C582    1.407   .     A
C561   C563    1.406   .     A
C562   C580    1.445   .     S
C562   C564    1.406   .     A
C563   C565    1.401   .     A
C563   N609    1.438   .     S
C564   C566    1.401   .     A
C564   N610    1.438   .     S
C565   C567    1.416   .     A
C565   C572    1.403   .     A
C566   C568    1.416   .     A
C566   C573    1.403   .     A
C567   C569    1.415   .     A
C567   C506    1.410   1_655 S
C568   C571    1.415   .     A
C569   C577    1.404   .     A
C569   C582    1.401   .     A
C570   O615    1.290   .     A
C570   O613    1.298   .     A
C570   C579    1.424   .     S
C571   C576    1.404   .     A
C572   H585    1.083   .     S
C572   C514    1.388   1_655 S
C573   H596    1.083   .     S
C574   H591    1.114   .     S
C574   O620    1.403   .     S
C574   H593    1.108   .     S
C574   H964    1.105   .     S
C575   O612    1.403   .     S
C575   H597    1.108   .     S
C575   H595    1.114   .     S
C576   H598    1.083   .     S
C577   H599    1.083   .     S
C577   C511    1.388   1_655 S
C579   C702    1.326   .     S
C579   H725    1.088   .     S
C580   O616    1.298   .     A
C580   O618    1.297   .     A
C581   O617    1.298   .     A
C581   O619    1.297   .     A
C582   N607    1.438   .     S
Cu583  O619    1.955   .     S
Cu583  N606    2.035   .     S
Cu583  O611    1.951   .     S
Cu583  O616    1.960   .     S
Cu583  O615    1.944   .     S
Cu583  Cu584   2.708   .     S
Cu584  O617    1.960   .     S
Cu584  O613    1.951   .     S
Cu584  O618    1.955   .     S
Cu584  N605    2.035   .     S
Cu584  O614    1.944   .     S
H586   N608    1.045   .     S
H587   N609    1.046   .     S
H588   N609    1.045   .     S
H589   N610    1.046   .     S
H590   N610    1.045   .     S
H594   C947    1.105   .     S
H600   C702    1.088   .     S
H602   N607    1.044   .     S
H603   N607    1.045   .     S
H604   N608    1.044   .     S
N606   N977    1.295   .     S
N606   O984    1.345   .     S
O620   N977    1.345   .     S
C621   O676    1.290   .     A
C621   O673    1.298   .     A
C621   C640    1.424   .     S
C622   C624    1.407   .     A
C622   C633    1.401   .     A
C622   N670    1.438   .     S
C623   C643    1.445   .     S
C623   C644    1.407   .     A
C623   C625    1.406   .     A
C624   C642    1.445   .     S
C624   C626    1.406   .     A
C625   C627    1.401   .     A
C625   N671    1.438   .     S
C626   C628    1.401   .     A
C626   N672    1.438   .     S
C627   C629    1.416   .     A
C627   C634    1.403   .     A
C628   C630    1.416   .     A
C628   C635    1.403   .     A
C629   C631    1.415   .     A
C629   C692    1.410   .     S
C630   C633    1.415   .     A
C630   C691    1.410   1_455 S
C631   C639    1.404   .     A
C631   C644    1.401   .     A
C632   O677    1.290   .     A
C632   O675    1.298   .     A
C632   C641    1.424   .     S
C633   C638    1.404   .     A
C634   H647    1.083   .     S
C634   C700    1.388   .     S
C635   H658    1.083   .     S
C635   C701    1.388   1_455 S
C636   H653    1.114   .     S
C636   O682    1.403   .     S
C636   H655    1.108   .     S
C636   H1026   1.105   .     S
C637   O674    1.403   .     S
C637   H659    1.108   .     S
C637   H657    1.114   .     S
C638   H660    1.083   .     S
C638   C696    1.388   1_455 S
C639   H661    1.083   .     S
C639   C697    1.388   .     S
C641   C392    1.326   1_565 S
C641   H415    1.088   1_565 S
C642   O678    1.298   .     A
C642   O680    1.297   .     A
C643   O679    1.298   .     A
C643   O681    1.297   .     A
C644   N669    1.438   .     S
Cu645  O681    1.955   .     S
Cu645  N668    2.035   .     S
Cu645  O673    1.951   .     S
Cu645  O678    1.960   .     S
Cu645  O677    1.944   .     S
Cu645  Cu646   2.708   .     S
Cu646  O679    1.960   .     S
Cu646  O675    1.951   .     S
Cu646  O680    1.955   .     S
Cu646  N667    2.035   .     S
Cu646  O676    1.944   .     S
H648   N670    1.045   .     S
H649   N671    1.046   .     S
H650   N671    1.045   .     S
H651   N672    1.046   .     S
H652   N672    1.045   .     S
H656   C1009   1.105   .     S
H662   C392    1.088   1_565 S
H664   N669    1.044   .     S
H665   N669    1.045   .     S
H666   N670    1.044   .     S
N668   N1039   1.295   .     S
N668   O1046   1.345   .     S
O682   N1039   1.345   .     S
C683   O738    1.290   .     A
C683   O735    1.298   .     A
C683   C702    1.424   .     S
C684   C686    1.407   .     A
C684   C695    1.401   .     A
C684   N732    1.438   .     S
C685   C705    1.445   .     S
C685   C706    1.407   .     A
C685   C687    1.406   .     A
C686   C704    1.445   .     S
C686   C688    1.406   .     A
C687   C689    1.401   .     A
C687   N733    1.438   .     S
C688   C690    1.401   .     A
C688   N734    1.438   .     S
C689   C691    1.416   .     A
C689   C696    1.403   .     A
C690   C692    1.416   .     A
C690   C697    1.403   .     A
C691   C693    1.415   .     A
C691   C630    1.410   1_655 S
C692   C695    1.415   .     A
C693   C701    1.404   .     A
C693   C706    1.401   .     A
C694   O739    1.290   .     A
C694   O737    1.298   .     A
C694   C703    1.424   .     S
C695   C700    1.404   .     A
C696   H709    1.083   .     S
C696   C638    1.388   1_655 S
C697   H720    1.083   .     S
C698   H715    1.114   .     S
C698   O744    1.403   .     S
C698   H717    1.108   .     S
C698   H1088   1.105   .     S
C699   O736    1.403   .     S
C699   H721    1.108   .     S
C699   H719    1.114   .     S
C700   H722    1.083   .     S
C701   H723    1.083   .     S
C701   C635    1.388   1_655 S
C703   C454    1.326   1_565 S
C703   H477    1.088   1_565 S
C704   O740    1.298   .     A
C704   O742    1.297   .     A
C705   O741    1.298   .     A
C705   O743    1.297   .     A
C706   N731    1.438   .     S
Cu707  O743    1.955   .     S
Cu707  N730    2.035   .     S
Cu707  O735    1.951   .     S
Cu707  O740    1.960   .     S
Cu707  O739    1.944   .     S
Cu707  Cu708   2.708   .     S
Cu708  O741    1.960   .     S
Cu708  O737    1.951   .     S
Cu708  O742    1.955   .     S
Cu708  N729    2.035   .     S
Cu708  O738    1.944   .     S
H710   N732    1.045   .     S
H711   N733    1.046   .     S
H712   N733    1.045   .     S
H713   N734    1.046   .     S
H714   N734    1.045   .     S
H718   C1071   1.105   .     S
H724   C454    1.088   1_565 S
H726   N731    1.044   .     S
H727   N731    1.045   .     S
H728   N732    1.044   .     S
N730   N1101   1.295   .     S
N730   O1108   1.345   .     S
O744   N1101   1.345   .     S
C745   O800    1.290   .     A
C745   O797    1.298   .     A
C745   C764    1.424   .     S
C746   C748    1.407   .     A
C746   C757    1.401   .     A
C746   N794    1.438   .     S
C747   C767    1.445   .     S
C747   C768    1.407   .     A
C747   C749    1.406   .     A
C748   C766    1.445   .     S
C748   C750    1.406   .     A
C749   C751    1.401   .     A
C749   N795    1.438   .     S
C750   C752    1.401   .     A
C750   N796    1.438   .     S
C751   C753    1.416   .     A
C751   C758    1.403   .     A
C752   C754    1.416   .     A
C752   C759    1.403   .     A
C753   C755    1.415   .     A
C753   C816    1.410   .     S
C754   C757    1.415   .     A
C754   C815    1.410   1_455 S
C755   C763    1.404   .     A
C755   C768    1.401   .     A
C756   O801    1.290   .     A
C756   O799    1.298   .     A
C756   C765    1.424   .     S
C757   C762    1.404   .     A
C758   H771    1.083   .     S
C758   C824    1.388   .     S
C759   H782    1.083   .     S
C759   C825    1.388   1_455 S
C760   H777    1.114   .     S
C760   O806    1.403   .     S
C760   H779    1.108   .     S
C760   H34     1.105   1_556 S
C761   O798    1.403   .     S
C761   H783    1.108   .     S
C761   H781    1.114   .     S
C762   H784    1.083   .     S
C762   C820    1.388   1_455 S
C763   H785    1.083   .     S
C763   C821    1.388   .     S
C764   C1013   1.326   1_545 S
C764   H1034   1.088   1_545 S
C765   C888    1.326   .     S
C765   H911    1.088   .     S
C766   O802    1.298   .     A
C766   O804    1.297   .     A
C767   O803    1.298   .     A
C767   O805    1.297   .     A
C768   N793    1.438   .     S
Cu769  O805    1.955   .     S
Cu769  N792    2.035   .     S
Cu769  O797    1.951   .     S
Cu769  O802    1.960   .     S
Cu769  O801    1.944   .     S
Cu769  Cu770   2.708   .     S
Cu770  O803    1.960   .     S
Cu770  O799    1.951   .     S
Cu770  O804    1.955   .     S
Cu770  N791    2.035   .     S
Cu770  O800    1.944   .     S
H772   N794    1.045   .     S
H773   N795    1.046   .     S
H774   N795    1.045   .     S
H775   N796    1.046   .     S
H776   N796    1.045   .     S
H780   C17     1.105   1_556 S
H786   C888    1.088   .     S
H787   C1013   1.088   1_545 S
H788   N793    1.044   .     S
H789   N793    1.045   .     S
H790   N794    1.044   .     S
N792   N47     1.295   1_556 S
N792   O54     1.345   1_556 S
O806   N47     1.345   1_556 S
C807   O862    1.290   .     A
C807   O859    1.298   .     A
C807   C826    1.424   .     S
C808   C810    1.407   .     A
C808   C819    1.401   .     A
C808   N856    1.438   .     S
C809   C829    1.445   .     S
C809   C830    1.407   .     A
C809   C811    1.406   .     A
C810   C828    1.445   .     S
C810   C812    1.406   .     A
C811   C813    1.401   .     A
C811   N857    1.438   .     S
C812   C814    1.401   .     A
C812   N858    1.438   .     S
C813   C815    1.416   .     A
C813   C820    1.403   .     A
C814   C816    1.416   .     A
C814   C821    1.403   .     A
C815   C817    1.415   .     A
C815   C754    1.410   1_655 S
C816   C819    1.415   .     A
C817   C825    1.404   .     A
C817   C830    1.401   .     A
C818   O863    1.290   .     A
C818   O861    1.298   .     A
C818   C827    1.424   .     S
C819   C824    1.404   .     A
C820   H833    1.083   .     S
C820   C762    1.388   1_655 S
C821   H844    1.083   .     S
C822   H839    1.114   .     S
C822   O868    1.403   .     S
C822   H841    1.108   .     S
C822   H96     1.105   1_556 S
C823   O860    1.403   .     S
C823   H845    1.108   .     S
C823   H843    1.114   .     S
C824   H846    1.083   .     S
C825   H847    1.083   .     S
C825   C759    1.388   1_655 S
C826   C1075   1.326   1_545 S
C826   H1096   1.088   1_545 S
C827   C950    1.326   .     S
C827   H973    1.088   .     S
C828   O864    1.298   .     A
C828   O866    1.297   .     A
C829   O865    1.298   .     A
C829   O867    1.297   .     A
C830   N855    1.438   .     S
Cu831  O867    1.955   .     S
Cu831  N854    2.035   .     S
Cu831  O859    1.951   .     S
Cu831  O864    1.960   .     S
Cu831  O863    1.944   .     S
Cu831  Cu832   2.708   .     S
Cu832  O865    1.960   .     S
Cu832  O861    1.951   .     S
Cu832  O866    1.955   .     S
Cu832  N853    2.035   .     S
Cu832  O862    1.944   .     S
H834   N856    1.045   .     S
H835   N857    1.046   .     S
H836   N857    1.045   .     S
H837   N858    1.046   .     S
H838   N858    1.045   .     S
H842   C79     1.105   1_556 S
H848   C950    1.088   .     S
H849   C1075   1.088   1_545 S
H850   N855    1.044   .     S
H851   N855    1.045   .     S
H852   N856    1.044   .     S
N854   N109    1.295   1_556 S
N854   O116    1.345   1_556 S
O868   N109    1.345   1_556 S
C869   O924    1.290   .     A
C869   O921    1.298   .     A
C869   C888    1.424   .     S
C870   C872    1.407   .     A
C870   C881    1.401   .     A
C870   N918    1.438   .     S
C871   C891    1.445   .     S
C871   C892    1.407   .     A
C871   C873    1.406   .     A
C872   C890    1.445   .     S
C872   C874    1.406   .     A
C873   C875    1.401   .     A
C873   N919    1.438   .     S
C874   C876    1.401   .     A
C874   N920    1.438   .     S
C875   C877    1.416   .     A
C875   C882    1.403   .     A
C876   C878    1.416   .     A
C876   C883    1.403   .     A
C877   C879    1.415   .     A
C877   C940    1.410   .     S
C878   C881    1.415   .     A
C878   C939    1.410   1_455 S
C879   C887    1.404   .     A
C879   C892    1.401   .     A
C880   O925    1.290   .     A
C880   O923    1.298   .     A
C880   C889    1.424   .     S
C881   C886    1.404   .     A
C882   H895    1.083   .     S
C882   C948    1.388   .     S
C883   H906    1.083   .     S
C883   C949    1.388   1_455 S
C884   H901    1.114   .     S
C884   O930    1.403   .     S
C884   H903    1.108   .     S
C884   H158    1.105   1_556 S
C885   O922    1.403   .     S
C885   H907    1.108   .     S
C885   H905    1.114   .     S
C886   H908    1.083   .     S
C886   C944    1.388   1_455 S
C887   H909    1.083   .     S
C887   C945    1.388   .     S
C889   C1012   1.326   .     S
C889   H1035   1.088   .     S
C890   O926    1.298   .     A
C890   O928    1.297   .     A
C891   O927    1.298   .     A
C891   O929    1.297   .     A
C892   N917    1.438   .     S
Cu893  O929    1.955   .     S
Cu893  N916    2.035   .     S
Cu893  O921    1.951   .     S
Cu893  O926    1.960   .     S
Cu893  O925    1.944   .     S
Cu893  Cu894   2.708   .     S
Cu894  O927    1.960   .     S
Cu894  O923    1.951   .     S
Cu894  O928    1.955   .     S
Cu894  N915    2.035   .     S
Cu894  O924    1.944   .     S
H896   N918    1.045   .     S
H897   N919    1.046   .     S
H898   N919    1.045   .     S
H899   N920    1.046   .     S
H900   N920    1.045   .     S
H904   C141    1.105   1_556 S
H910   C1012   1.088   .     S
H912   N917    1.044   .     S
H913   N917    1.045   .     S
H914   N918    1.044   .     S
N916   N171    1.295   1_556 S
N916   O178    1.345   1_556 S
O930   N171    1.345   1_556 S
C931   O986    1.290   .     A
C931   O983    1.298   .     A
C931   C950    1.424   .     S
C932   C934    1.407   .     A
C932   C943    1.401   .     A
C932   N980    1.438   .     S
C933   C953    1.445   .     S
C933   C954    1.407   .     A
C933   C935    1.406   .     A
C934   C952    1.445   .     S
C934   C936    1.406   .     A
C935   C937    1.401   .     A
C935   N981    1.438   .     S
C936   C938    1.401   .     A
C936   N982    1.438   .     S
C937   C939    1.416   .     A
C937   C944    1.403   .     A
C938   C940    1.416   .     A
C938   C945    1.403   .     A
C939   C941    1.415   .     A
C939   C878    1.410   1_655 S
C940   C943    1.415   .     A
C941   C949    1.404   .     A
C941   C954    1.401   .     A
C942   O987    1.290   .     A
C942   O985    1.298   .     A
C942   C951    1.424   .     S
C943   C948    1.404   .     A
C944   H957    1.083   .     S
C944   C886    1.388   1_655 S
C945   H968    1.083   .     S
C946   H963    1.114   .     S
C946   O992    1.403   .     S
C946   H965    1.108   .     S
C946   H220    1.105   1_556 S
C947   O984    1.403   .     S
C947   H969    1.108   .     S
C947   H967    1.114   .     S
C948   H970    1.083   .     S
C949   H971    1.083   .     S
C949   C883    1.388   1_655 S
C951   C1074   1.326   .     S
C951   H1097   1.088   .     S
C952   O988    1.298   .     A
C952   O990    1.297   .     A
C953   O989    1.298   .     A
C953   O991    1.297   .     A
C954   N979    1.438   .     S
Cu955  O991    1.955   .     S
Cu955  N978    2.035   .     S
Cu955  O983    1.951   .     S
Cu955  O988    1.960   .     S
Cu955  O987    1.944   .     S
Cu955  Cu956   2.708   .     S
Cu956  O989    1.960   .     S
Cu956  O985    1.951   .     S
Cu956  O990    1.955   .     S
Cu956  N977    2.035   .     S
Cu956  O986    1.944   .     S
H958   N980    1.045   .     S
H959   N981    1.046   .     S
H960   N981    1.045   .     S
H961   N982    1.046   .     S
H962   N982    1.045   .     S
H966   C203    1.105   1_556 S
H972   C1074   1.088   .     S
H974   N979    1.044   .     S
H975   N979    1.045   .     S
H976   N980    1.044   .     S
N978   N233    1.295   1_556 S
N978   O240    1.345   1_556 S
O992   N233    1.345   1_556 S
C993   O1048   1.290   .     A
C993   O1045   1.298   .     A
C993   C1012   1.424   .     S
C994   C996    1.407   .     A
C994   C1005   1.401   .     A
C994   N1042   1.438   .     S
C995   C1015   1.445   .     S
C995   C1016   1.407   .     A
C995   C997    1.406   .     A
C996   C1014   1.445   .     S
C996   C998    1.406   .     A
C997   C999    1.401   .     A
C997   N1043   1.438   .     S
C998   C1000   1.401   .     A
C998   N1044   1.438   .     S
C999   C1001   1.416   .     A
C999   C1006   1.403   .     A
C1000  C1002   1.416   .     A
C1000  C1007   1.403   .     A
C1001  C1003   1.415   .     A
C1001  C1064   1.410   .     S
C1002  C1005   1.415   .     A
C1002  C1063   1.410   1_455 S
C1003  C1011   1.404   .     A
C1003  C1016   1.401   .     A
C1004  O1049   1.290   .     A
C1004  O1047   1.298   .     A
C1004  C1013   1.424   .     S
C1005  C1010   1.404   .     A
C1006  H1019   1.083   .     S
C1006  C1072   1.388   .     S
C1007  H1030   1.083   .     S
C1007  C1073   1.388   1_455 S
C1008  H1025   1.114   .     S
C1008  O1054   1.403   .     S
C1008  H1027   1.108   .     S
C1008  H282    1.105   1_556 S
C1009  O1046   1.403   .     S
C1009  H1031   1.108   .     S
C1009  H1029   1.114   .     S
C1010  H1032   1.083   .     S
C1010  C1068   1.388   1_455 S
C1011  H1033   1.083   .     S
C1011  C1069   1.388   .     S
C1013  C764    1.326   1_565 S
C1013  H787    1.088   1_565 S
C1014  O1050   1.298   .     A
C1014  O1052   1.297   .     A
C1015  O1051   1.298   .     A
C1015  O1053   1.297   .     A
C1016  N1041   1.438   .     S
Cu1017 O1053   1.955   .     S
Cu1017 N1040   2.035   .     S
Cu1017 O1045   1.951   .     S
Cu1017 O1050   1.960   .     S
Cu1017 O1049   1.944   .     S
Cu1017 Cu1018  2.708   .     S
Cu1018 O1051   1.960   .     S
Cu1018 O1047   1.951   .     S
Cu1018 O1052   1.955   .     S
Cu1018 N1039   2.035   .     S
Cu1018 O1048   1.944   .     S
H1020  N1042   1.045   .     S
H1021  N1043   1.046   .     S
H1022  N1043   1.045   .     S
H1023  N1044   1.046   .     S
H1024  N1044   1.045   .     S
H1028  C265    1.105   1_556 S
H1034  C764    1.088   1_565 S
H1036  N1041   1.044   .     S
H1037  N1041   1.045   .     S
H1038  N1042   1.044   .     S
N1040  N295    1.295   1_556 S
N1040  O302    1.345   1_556 S
O1054  N295    1.345   1_556 S
C1055  O1110   1.290   .     A
C1055  O1107   1.298   .     A
C1055  C1074   1.424   .     S
C1056  C1058   1.407   .     A
C1056  C1067   1.401   .     A
C1056  N1104   1.438   .     S
C1057  C1077   1.445   .     S
C1057  C1078   1.407   .     A
C1057  C1059   1.406   .     A
C1058  C1076   1.445   .     S
C1058  C1060   1.406   .     A
C1059  C1061   1.401   .     A
C1059  N1105   1.438   .     S
C1060  C1062   1.401   .     A
C1060  N1106   1.438   .     S
C1061  C1063   1.416   .     A
C1061  C1068   1.403   .     A
C1062  C1064   1.416   .     A
C1062  C1069   1.403   .     A
C1063  C1065   1.415   .     A
C1063  C1002   1.410   1_655 S
C1064  C1067   1.415   .     A
C1065  C1073   1.404   .     A
C1065  C1078   1.401   .     A
C1066  O1111   1.290   .     A
C1066  O1109   1.298   .     A
C1066  C1075   1.424   .     S
C1067  C1072   1.404   .     A
C1068  H1081   1.083   .     S
C1068  C1010   1.388   1_655 S
C1069  H1092   1.083   .     S
C1070  H1087   1.114   .     S
C1070  O1116   1.403   .     S
C1070  H1089   1.108   .     S
C1070  H344    1.105   1_556 S
C1071  O1108   1.403   .     S
C1071  H1093   1.108   .     S
C1071  H1091   1.114   .     S
C1072  H1094   1.083   .     S
C1073  H1095   1.083   .     S
C1073  C1007   1.388   1_655 S
C1075  C826    1.326   1_565 S
C1075  H849    1.088   1_565 S
C1076  O1112   1.298   .     A
C1076  O1114   1.297   .     A
C1077  O1113   1.298   .     A
C1077  O1115   1.297   .     A
C1078  N1103   1.438   .     S
Cu1079 O1115   1.955   .     S
Cu1079 N1102   2.035   .     S
Cu1079 O1107   1.951   .     S
Cu1079 O1112   1.960   .     S
Cu1079 O1111   1.944   .     S
Cu1079 Cu1080  2.708   .     S
Cu1080 O1113   1.960   .     S
Cu1080 O1109   1.951   .     S
Cu1080 O1114   1.955   .     S
Cu1080 N1101   2.035   .     S
Cu1080 O1110   1.944   .     S
H1082  N1104   1.045   .     S
H1083  N1105   1.046   .     S
H1084  N1105   1.045   .     S
H1085  N1106   1.046   .     S
H1086  N1106   1.045   .     S
H1090  C327    1.105   1_556 S
H1096  C826    1.088   1_565 S
H1098  N1103   1.044   .     S
H1099  N1103   1.045   .     S
H1100  N1104   1.044   .     S
N1102  N357    1.295   1_556 S
N1102  O364    1.345   1_556 S
O1116  N357    1.345   1_556 S
