data_str_m2_o1_o2_pcu_sym.121
_audit_creation_date              2020-01-03
_audit_creation_method            'Materials Studio'
_symmetry_space_group_name_H-M    'P1'
_symmetry_Int_Tables_number       1
_symmetry_cell_setting            triclinic
loop_
_symmetry_equiv_pos_as_xyz
  x,y,z
_cell_length_a                    32.4837
_cell_length_b                    28.8600
_cell_length_c                    30.4230
_cell_angle_alpha                 89.9945
_cell_angle_beta                  93.7068
_cell_angle_gamma                 89.9979
loop_
_atom_site_label
_atom_site_type_symbol
_atom_site_fract_x
_atom_site_fract_y
_atom_site_fract_z
_atom_site_U_iso_or_equiv
_atom_site_adp_type
_atom_site_occupancy
O1     O     0.10655   0.20625   0.25000   0.00000  Uiso   1.00
O2     O     0.22679   0.12709   0.25000   0.00000  Uiso   1.00
O3     O     0.22679   0.20625   0.25001   0.00000  Uiso   1.00
O4     O     0.10655   0.12709   0.25000   0.00000  Uiso   1.00
N5     N     0.16667   0.28402   0.25000   0.00000  Uiso   1.00
N6     N     0.16667   0.04931   0.25000   0.00000  Uiso   1.00
C7     C     0.08745   0.16669   0.24998   0.00000  Uiso   1.00
C8     C     0.24588   0.16669   0.25002   0.00000  Uiso   1.00
O9     O     0.16666   0.20626   0.18573   0.00000  Uiso   1.00
O10    O     0.16667   0.12707   0.31427   0.00000  Uiso   1.00
O11    O     0.16667   0.20626   0.31427   0.00000  Uiso   1.00
O12    O     0.16666   0.12707   0.18573   0.00000  Uiso   1.00
C13    C     0.16798   0.16664   0.16505   0.00000  Uiso   1.00
C14    C     0.16537   0.16664   0.33495   0.00000  Uiso   1.00
Cu15   Cu    0.16667   0.21355   0.25000   0.00000  Uiso   1.00
Cu16   Cu    0.16667   0.11978   0.25000   0.00000  Uiso   1.00
C17    C     0.13842   0.02460   0.22360   0.00000  Uiso   1.00
C18    C     0.19208   0.30857   0.27946   0.00000  Uiso   1.00
C19    C     0.19492   0.02459   0.27639   0.00000  Uiso   1.00
C20    C     0.14126   0.30858   0.22053   0.00000  Uiso   1.00
C21    C     0.02129   0.12475   0.25024   0.00000  Uiso   1.00
C22    C     0.31202   0.20892   0.25001   0.00000  Uiso   1.00
C23    C     0.31204   0.12475   0.24978   0.00000  Uiso   1.00
C24    C     0.02131   0.20892   0.24998   0.00000  Uiso   1.00
C25    C     0.18243   0.20883   0.04893   0.00000  Uiso   1.00
C26    C     0.18114   0.13249   0.45492   0.00000  Uiso   1.00
C27    C     0.15054   0.20873   0.45102   0.00000  Uiso   1.00
C28    C     0.15227   0.13237   0.04510   0.00000  Uiso   1.00
H29    H     0.19473   0.23857   0.03241   0.00000  Uiso   1.00
H30    H     0.19350   0.10351   0.47424   0.00000  Uiso   1.00
H31    H     0.13806   0.23838   0.46750   0.00000  Uiso   1.00
H32    H     0.14008   0.10330   0.02580   0.00000  Uiso   1.00
C33    C     0.18540   0.20664   0.09499   0.00000  Uiso   1.00
C34    C     0.17860   0.12911   0.40931   0.00000  Uiso   1.00
C35    C     0.14767   0.20654   0.40496   0.00000  Uiso   1.00
C36    C     0.15494   0.12897   0.09071   0.00000  Uiso   1.00
C37    C     0.17022   0.16694   0.11659   0.00000  Uiso   1.00
C38    C     0.16311   0.16695   0.38340   0.00000  Uiso   1.00
H39    H     0.03724   0.09184   0.25074   0.00000  Uiso   1.00
H40    H     0.29602   0.24185   0.25006   0.00000  Uiso   1.00
H41    H     0.29610   0.09184   0.24928   0.00000  Uiso   1.00
H42    H     0.03731   0.24185   0.24992   0.00000  Uiso   1.00
C43    C     0.16629   0.17170   0.02405   0.00000  Uiso   1.00
C44    C     0.16684   0.17169   0.47593   0.00000  Uiso   1.00
C45    C     0.29054   0.16680   0.24991   0.00000  Uiso   1.00
C46    C     0.04279   0.16680   0.25009   0.00000  Uiso   1.00
C47    C     0.10339   0.04852   0.19948   0.00000  Uiso   1.00
H48    H     0.10683   0.08209   0.18494   0.00000  Uiso   1.00
O49    O     0.06923   0.03069   0.19609   0.00000  Uiso   1.00
C50    C     0.21529   0.28442   0.31631   0.00000  Uiso   1.00
H51    H     0.23184   0.25276   0.31148   0.00000  Uiso   1.00
O52    O     0.21591   0.30018   0.35360   0.00000  Uiso   1.00
C53    C     0.22997   0.04849   0.30047   0.00000  Uiso   1.00
H54    H     0.22655   0.08209   0.31497   0.00000  Uiso   1.00
O55    O     0.26412   0.03063   0.30390   0.00000  Uiso   1.00
C56    C     0.11803   0.28444   0.18369   0.00000  Uiso   1.00
H57    H     0.10151   0.25275   0.18853   0.00000  Uiso   1.00
O58    O     0.11737   0.30022   0.14641   0.00000  Uiso   1.00
N59    N     0.20659   0.24343   0.11892   0.00000  Uiso   1.00
O60    O     0.23599   0.23372   0.14859   0.00000  Uiso   1.00
O61    O     0.20212   0.28607   0.10552   0.00000  Uiso   1.00
N62    N     0.19062   0.08612   0.39052   0.00000  Uiso   1.00
O63    O     0.16213   0.05880   0.37318   0.00000  Uiso   1.00
O64    O     0.22656   0.06868   0.40247   0.00000  Uiso   1.00
N65    N     0.12639   0.24322   0.38096   0.00000  Uiso   1.00
O66    O     0.09708   0.23337   0.35123   0.00000  Uiso   1.00
O67    O     0.13068   0.28588   0.39433   0.00000  Uiso   1.00
N68    N     0.14335   0.08581   0.10953   0.00000  Uiso   1.00
O69    O     0.17211   0.05896   0.12713   0.00000  Uiso   1.00
O70    O     0.10769   0.06775   0.09739   0.00000  Uiso   1.00
O71    O     0.43988   0.20625   0.25000   0.00000  Uiso   1.00
O72    O     0.56012   0.12709   0.25000   0.00000  Uiso   1.00
O73    O     0.56012   0.20625   0.25001   0.00000  Uiso   1.00
O74    O     0.43988   0.12709   0.25000   0.00000  Uiso   1.00
N75    N     0.50000   0.28402   0.25000   0.00000  Uiso   1.00
N76    N     0.50000   0.04931   0.25000   0.00000  Uiso   1.00
C77    C     0.42079   0.16669   0.24998   0.00000  Uiso   1.00
C78    C     0.57921   0.16669   0.25002   0.00000  Uiso   1.00
O79    O     0.50000   0.20626   0.18573   0.00000  Uiso   1.00
O80    O     0.50000   0.12707   0.31427   0.00000  Uiso   1.00
O81    O     0.50000   0.20626   0.31427   0.00000  Uiso   1.00
O82    O     0.50000   0.12707   0.18573   0.00000  Uiso   1.00
C83    C     0.50131   0.16664   0.16505   0.00000  Uiso   1.00
C84    C     0.49870   0.16664   0.33495   0.00000  Uiso   1.00
Cu85   Cu    0.50000   0.21355   0.25000   0.00000  Uiso   1.00
Cu86   Cu    0.50000   0.11978   0.25000   0.00000  Uiso   1.00
C87    C     0.47175   0.02460   0.22360   0.00000  Uiso   1.00
C88    C     0.52541   0.30857   0.27946   0.00000  Uiso   1.00
C89    C     0.52825   0.02459   0.27639   0.00000  Uiso   1.00
C90    C     0.47459   0.30858   0.22053   0.00000  Uiso   1.00
C91    C     0.35463   0.12475   0.25024   0.00000  Uiso   1.00
C92    C     0.64536   0.20892   0.25001   0.00000  Uiso   1.00
C93    C     0.64538   0.12475   0.24978   0.00000  Uiso   1.00
C94    C     0.35464   0.20892   0.24998   0.00000  Uiso   1.00
C95    C     0.51577   0.20883   0.04893   0.00000  Uiso   1.00
C96    C     0.51447   0.13249   0.45492   0.00000  Uiso   1.00
C97    C     0.48387   0.20873   0.45102   0.00000  Uiso   1.00
C98    C     0.48561   0.13237   0.04510   0.00000  Uiso   1.00
H99    H     0.52807   0.23857   0.03241   0.00000  Uiso   1.00
H100   H     0.52683   0.10351   0.47424   0.00000  Uiso   1.00
H101   H     0.47140   0.23838   0.46750   0.00000  Uiso   1.00
H102   H     0.47342   0.10330   0.02580   0.00000  Uiso   1.00
C103   C     0.51874   0.20664   0.09499   0.00000  Uiso   1.00
C104   C     0.51193   0.12911   0.40931   0.00000  Uiso   1.00
C105   C     0.48101   0.20654   0.40496   0.00000  Uiso   1.00
C106   C     0.48827   0.12897   0.09071   0.00000  Uiso   1.00
C107   C     0.50355   0.16694   0.11659   0.00000  Uiso   1.00
C108   C     0.49644   0.16695   0.38340   0.00000  Uiso   1.00
H109   H     0.37058   0.09184   0.25074   0.00000  Uiso   1.00
H110   H     0.62935   0.24185   0.25006   0.00000  Uiso   1.00
H111   H     0.62943   0.09184   0.24928   0.00000  Uiso   1.00
H112   H     0.37064   0.24185   0.24992   0.00000  Uiso   1.00
C113   C     0.49962   0.17170   0.02405   0.00000  Uiso   1.00
C114   C     0.50018   0.17169   0.47593   0.00000  Uiso   1.00
C115   C     0.62387   0.16680   0.24991   0.00000  Uiso   1.00
C116   C     0.37613   0.16680   0.25009   0.00000  Uiso   1.00
C117   C     0.43672   0.04852   0.19948   0.00000  Uiso   1.00
H118   H     0.44016   0.08209   0.18494   0.00000  Uiso   1.00
O119   O     0.40256   0.03069   0.19609   0.00000  Uiso   1.00
C120   C     0.54863   0.28442   0.31631   0.00000  Uiso   1.00
H121   H     0.56517   0.25276   0.31148   0.00000  Uiso   1.00
O122   O     0.54925   0.30018   0.35360   0.00000  Uiso   1.00
C123   C     0.56330   0.04849   0.30047   0.00000  Uiso   1.00
H124   H     0.55988   0.08209   0.31497   0.00000  Uiso   1.00
O125   O     0.59745   0.03063   0.30390   0.00000  Uiso   1.00
C126   C     0.45136   0.28444   0.18369   0.00000  Uiso   1.00
H127   H     0.43485   0.25275   0.18853   0.00000  Uiso   1.00
O128   O     0.45070   0.30022   0.14641   0.00000  Uiso   1.00
N129   N     0.53992   0.24343   0.11892   0.00000  Uiso   1.00
O130   O     0.56932   0.23372   0.14859   0.00000  Uiso   1.00
O131   O     0.53546   0.28607   0.10552   0.00000  Uiso   1.00
N132   N     0.52395   0.08612   0.39052   0.00000  Uiso   1.00
O133   O     0.49546   0.05880   0.37318   0.00000  Uiso   1.00
O134   O     0.55989   0.06868   0.40247   0.00000  Uiso   1.00
N135   N     0.45972   0.24322   0.38096   0.00000  Uiso   1.00
O136   O     0.43042   0.23337   0.35123   0.00000  Uiso   1.00
O137   O     0.46402   0.28588   0.39433   0.00000  Uiso   1.00
N138   N     0.47668   0.08581   0.10953   0.00000  Uiso   1.00
O139   O     0.50544   0.05896   0.12713   0.00000  Uiso   1.00
O140   O     0.44102   0.06775   0.09739   0.00000  Uiso   1.00
O141   O     0.77321   0.20625   0.25000   0.00000  Uiso   1.00
O142   O     0.89345   0.12709   0.25000   0.00000  Uiso   1.00
O143   O     0.89345   0.20625   0.25001   0.00000  Uiso   1.00
O144   O     0.77321   0.12709   0.25000   0.00000  Uiso   1.00
N145   N     0.83333   0.28402   0.25000   0.00000  Uiso   1.00
N146   N     0.83333   0.04931   0.25000   0.00000  Uiso   1.00
C147   C     0.75412   0.16669   0.24998   0.00000  Uiso   1.00
C148   C     0.91255   0.16669   0.25002   0.00000  Uiso   1.00
O149   O     0.83333   0.20626   0.18573   0.00000  Uiso   1.00
O150   O     0.83334   0.12707   0.31427   0.00000  Uiso   1.00
O151   O     0.83334   0.20626   0.31427   0.00000  Uiso   1.00
O152   O     0.83333   0.12707   0.18573   0.00000  Uiso   1.00
C153   C     0.83464   0.16664   0.16505   0.00000  Uiso   1.00
C154   C     0.83204   0.16664   0.33495   0.00000  Uiso   1.00
Cu155  Cu    0.83333   0.21355   0.25000   0.00000  Uiso   1.00
Cu156  Cu    0.83333   0.11978   0.25000   0.00000  Uiso   1.00
C157   C     0.80509   0.02460   0.22360   0.00000  Uiso   1.00
C158   C     0.85874   0.30857   0.27946   0.00000  Uiso   1.00
C159   C     0.86159   0.02459   0.27639   0.00000  Uiso   1.00
C160   C     0.80792   0.30858   0.22053   0.00000  Uiso   1.00
C161   C     0.68796   0.12475   0.25024   0.00000  Uiso   1.00
C162   C     0.97869   0.20892   0.25001   0.00000  Uiso   1.00
C163   C     0.97871   0.12475   0.24978   0.00000  Uiso   1.00
C164   C     0.68797   0.20892   0.24998   0.00000  Uiso   1.00
C165   C     0.84910   0.20883   0.04893   0.00000  Uiso   1.00
C166   C     0.84781   0.13249   0.45492   0.00000  Uiso   1.00
C167   C     0.81721   0.20873   0.45102   0.00000  Uiso   1.00
C168   C     0.81894   0.13237   0.04510   0.00000  Uiso   1.00
H169   H     0.86140   0.23857   0.03241   0.00000  Uiso   1.00
H170   H     0.86017   0.10351   0.47424   0.00000  Uiso   1.00
H171   H     0.80473   0.23838   0.46750   0.00000  Uiso   1.00
H172   H     0.80675   0.10330   0.02580   0.00000  Uiso   1.00
C173   C     0.85207   0.20664   0.09499   0.00000  Uiso   1.00
C174   C     0.84526   0.12911   0.40931   0.00000  Uiso   1.00
C175   C     0.81434   0.20654   0.40496   0.00000  Uiso   1.00
C176   C     0.82160   0.12897   0.09071   0.00000  Uiso   1.00
C177   C     0.83688   0.16694   0.11659   0.00000  Uiso   1.00
C178   C     0.82978   0.16695   0.38340   0.00000  Uiso   1.00
H179   H     0.70391   0.09184   0.25074   0.00000  Uiso   1.00
H180   H     0.96268   0.24185   0.25006   0.00000  Uiso   1.00
H181   H     0.96276   0.09184   0.24928   0.00000  Uiso   1.00
H182   H     0.70398   0.24185   0.24992   0.00000  Uiso   1.00
C183   C     0.83296   0.17170   0.02405   0.00000  Uiso   1.00
C184   C     0.83351   0.17169   0.47593   0.00000  Uiso   1.00
C185   C     0.95721   0.16680   0.24991   0.00000  Uiso   1.00
C186   C     0.70946   0.16680   0.25009   0.00000  Uiso   1.00
C187   C     0.77006   0.04852   0.19948   0.00000  Uiso   1.00
H188   H     0.77350   0.08209   0.18494   0.00000  Uiso   1.00
O189   O     0.73589   0.03069   0.19609   0.00000  Uiso   1.00
C190   C     0.88196   0.28442   0.31631   0.00000  Uiso   1.00
H191   H     0.89851   0.25276   0.31148   0.00000  Uiso   1.00
O192   O     0.88258   0.30018   0.35360   0.00000  Uiso   1.00
C193   C     0.89664   0.04849   0.30047   0.00000  Uiso   1.00
H194   H     0.89322   0.08209   0.31497   0.00000  Uiso   1.00
O195   O     0.93078   0.03063   0.30390   0.00000  Uiso   1.00
C196   C     0.78470   0.28444   0.18369   0.00000  Uiso   1.00
H197   H     0.76818   0.25275   0.18853   0.00000  Uiso   1.00
O198   O     0.78404   0.30022   0.14641   0.00000  Uiso   1.00
N199   N     0.87325   0.24343   0.11892   0.00000  Uiso   1.00
O200   O     0.90266   0.23372   0.14859   0.00000  Uiso   1.00
O201   O     0.86879   0.28607   0.10552   0.00000  Uiso   1.00
N202   N     0.85728   0.08612   0.39052   0.00000  Uiso   1.00
O203   O     0.82879   0.05880   0.37318   0.00000  Uiso   1.00
O204   O     0.89322   0.06868   0.40247   0.00000  Uiso   1.00
N205   N     0.79305   0.24322   0.38096   0.00000  Uiso   1.00
O206   O     0.76375   0.23337   0.35123   0.00000  Uiso   1.00
O207   O     0.79735   0.28588   0.39433   0.00000  Uiso   1.00
N208   N     0.81002   0.08581   0.10953   0.00000  Uiso   1.00
O209   O     0.83877   0.05896   0.12713   0.00000  Uiso   1.00
O210   O     0.77435   0.06775   0.09739   0.00000  Uiso   1.00
O211   O     0.10655   0.53958   0.25000   0.00000  Uiso   1.00
O212   O     0.22679   0.46042   0.25000   0.00000  Uiso   1.00
O213   O     0.22679   0.53958   0.25001   0.00000  Uiso   1.00
O214   O     0.10655   0.46042   0.25000   0.00000  Uiso   1.00
N215   N     0.16667   0.61736   0.25000   0.00000  Uiso   1.00
N216   N     0.16667   0.38264   0.25000   0.00000  Uiso   1.00
C217   C     0.08745   0.50002   0.24998   0.00000  Uiso   1.00
C218   C     0.24588   0.50002   0.25002   0.00000  Uiso   1.00
O219   O     0.16666   0.53959   0.18573   0.00000  Uiso   1.00
O220   O     0.16667   0.46041   0.31427   0.00000  Uiso   1.00
O221   O     0.16667   0.53959   0.31427   0.00000  Uiso   1.00
O222   O     0.16666   0.46041   0.18573   0.00000  Uiso   1.00
C223   C     0.16798   0.49997   0.16505   0.00000  Uiso   1.00
C224   C     0.16537   0.49997   0.33495   0.00000  Uiso   1.00
Cu225  Cu    0.16667   0.54689   0.25000   0.00000  Uiso   1.00
Cu226  Cu    0.16667   0.45311   0.25000   0.00000  Uiso   1.00
C227   C     0.13842   0.35794   0.22360   0.00000  Uiso   1.00
C228   C     0.19208   0.64191   0.27946   0.00000  Uiso   1.00
C229   C     0.19492   0.35792   0.27639   0.00000  Uiso   1.00
C230   C     0.14126   0.64192   0.22053   0.00000  Uiso   1.00
C231   C     0.02129   0.45808   0.25024   0.00000  Uiso   1.00
C232   C     0.31202   0.54225   0.25001   0.00000  Uiso   1.00
C233   C     0.31204   0.45808   0.24978   0.00000  Uiso   1.00
C234   C     0.02131   0.54225   0.24998   0.00000  Uiso   1.00
C235   C     0.18243   0.54217   0.04893   0.00000  Uiso   1.00
C236   C     0.18114   0.46583   0.45492   0.00000  Uiso   1.00
C237   C     0.15054   0.54207   0.45102   0.00000  Uiso   1.00
C238   C     0.15227   0.46571   0.04510   0.00000  Uiso   1.00
H239   H     0.19473   0.57190   0.03241   0.00000  Uiso   1.00
H240   H     0.19350   0.43684   0.47424   0.00000  Uiso   1.00
H241   H     0.13806   0.57172   0.46750   0.00000  Uiso   1.00
H242   H     0.14008   0.43663   0.02580   0.00000  Uiso   1.00
C243   C     0.18540   0.53997   0.09499   0.00000  Uiso   1.00
C244   C     0.17860   0.46244   0.40931   0.00000  Uiso   1.00
C245   C     0.14767   0.53987   0.40496   0.00000  Uiso   1.00
C246   C     0.15494   0.46230   0.09071   0.00000  Uiso   1.00
C247   C     0.17022   0.50027   0.11659   0.00000  Uiso   1.00
C248   C     0.16311   0.50028   0.38340   0.00000  Uiso   1.00
H249   H     0.03724   0.42517   0.25074   0.00000  Uiso   1.00
H250   H     0.29602   0.57518   0.25006   0.00000  Uiso   1.00
H251   H     0.29610   0.42517   0.24928   0.00000  Uiso   1.00
H252   H     0.03731   0.57518   0.24992   0.00000  Uiso   1.00
C253   C     0.16629   0.50503   0.02405   0.00000  Uiso   1.00
C254   C     0.16684   0.50503   0.47593   0.00000  Uiso   1.00
C255   C     0.29054   0.50013   0.24991   0.00000  Uiso   1.00
C256   C     0.04279   0.50013   0.25009   0.00000  Uiso   1.00
C257   C     0.10339   0.38185   0.19948   0.00000  Uiso   1.00
H258   H     0.10683   0.41542   0.18494   0.00000  Uiso   1.00
O259   O     0.06923   0.36403   0.19609   0.00000  Uiso   1.00
C260   C     0.21529   0.61776   0.31631   0.00000  Uiso   1.00
H261   H     0.23184   0.58609   0.31148   0.00000  Uiso   1.00
O262   O     0.21591   0.63352   0.35360   0.00000  Uiso   1.00
C263   C     0.22997   0.38183   0.30047   0.00000  Uiso   1.00
H264   H     0.22655   0.41542   0.31497   0.00000  Uiso   1.00
O265   O     0.26412   0.36396   0.30390   0.00000  Uiso   1.00
C266   C     0.11803   0.61777   0.18369   0.00000  Uiso   1.00
H267   H     0.10151   0.58609   0.18853   0.00000  Uiso   1.00
O268   O     0.11737   0.63356   0.14641   0.00000  Uiso   1.00
N269   N     0.20659   0.57676   0.11892   0.00000  Uiso   1.00
O270   O     0.23599   0.56705   0.14859   0.00000  Uiso   1.00
O271   O     0.20212   0.61940   0.10552   0.00000  Uiso   1.00
N272   N     0.19062   0.41945   0.39052   0.00000  Uiso   1.00
O273   O     0.16213   0.39213   0.37318   0.00000  Uiso   1.00
O274   O     0.22656   0.40201   0.40247   0.00000  Uiso   1.00
N275   N     0.12639   0.57656   0.38096   0.00000  Uiso   1.00
O276   O     0.09708   0.56671   0.35123   0.00000  Uiso   1.00
O277   O     0.13068   0.61922   0.39433   0.00000  Uiso   1.00
N278   N     0.14335   0.41914   0.10953   0.00000  Uiso   1.00
O279   O     0.17211   0.39230   0.12713   0.00000  Uiso   1.00
O280   O     0.10769   0.40108   0.09739   0.00000  Uiso   1.00
O281   O     0.43988   0.53958   0.25000   0.00000  Uiso   1.00
O282   O     0.56012   0.46042   0.25000   0.00000  Uiso   1.00
O283   O     0.56012   0.53958   0.25001   0.00000  Uiso   1.00
O284   O     0.43988   0.46042   0.25000   0.00000  Uiso   1.00
N285   N     0.50000   0.61736   0.25000   0.00000  Uiso   1.00
N286   N     0.50000   0.38264   0.25000   0.00000  Uiso   1.00
C287   C     0.42079   0.50002   0.24998   0.00000  Uiso   1.00
C288   C     0.57921   0.50002   0.25002   0.00000  Uiso   1.00
O289   O     0.50000   0.53959   0.18573   0.00000  Uiso   1.00
O290   O     0.50000   0.46041   0.31427   0.00000  Uiso   1.00
O291   O     0.50000   0.53959   0.31427   0.00000  Uiso   1.00
O292   O     0.50000   0.46041   0.18573   0.00000  Uiso   1.00
C293   C     0.50131   0.49997   0.16505   0.00000  Uiso   1.00
C294   C     0.49870   0.49997   0.33495   0.00000  Uiso   1.00
Cu295  Cu    0.50000   0.54689   0.25000   0.00000  Uiso   1.00
Cu296  Cu    0.50000   0.45311   0.25000   0.00000  Uiso   1.00
C297   C     0.47175   0.35794   0.22360   0.00000  Uiso   1.00
C298   C     0.52541   0.64191   0.27946   0.00000  Uiso   1.00
C299   C     0.52825   0.35792   0.27639   0.00000  Uiso   1.00
C300   C     0.47459   0.64192   0.22053   0.00000  Uiso   1.00
C301   C     0.35463   0.45808   0.25024   0.00000  Uiso   1.00
C302   C     0.64536   0.54225   0.25001   0.00000  Uiso   1.00
C303   C     0.64538   0.45808   0.24978   0.00000  Uiso   1.00
C304   C     0.35464   0.54225   0.24998   0.00000  Uiso   1.00
C305   C     0.51577   0.54217   0.04893   0.00000  Uiso   1.00
C306   C     0.51447   0.46583   0.45492   0.00000  Uiso   1.00
C307   C     0.48387   0.54207   0.45102   0.00000  Uiso   1.00
C308   C     0.48561   0.46571   0.04510   0.00000  Uiso   1.00
H309   H     0.52807   0.57190   0.03241   0.00000  Uiso   1.00
H310   H     0.52683   0.43684   0.47424   0.00000  Uiso   1.00
H311   H     0.47140   0.57172   0.46750   0.00000  Uiso   1.00
H312   H     0.47342   0.43663   0.02580   0.00000  Uiso   1.00
C313   C     0.51874   0.53997   0.09499   0.00000  Uiso   1.00
C314   C     0.51193   0.46244   0.40931   0.00000  Uiso   1.00
C315   C     0.48101   0.53987   0.40496   0.00000  Uiso   1.00
C316   C     0.48827   0.46230   0.09071   0.00000  Uiso   1.00
C317   C     0.50355   0.50027   0.11659   0.00000  Uiso   1.00
C318   C     0.49644   0.50028   0.38340   0.00000  Uiso   1.00
H319   H     0.37058   0.42517   0.25074   0.00000  Uiso   1.00
H320   H     0.62935   0.57518   0.25006   0.00000  Uiso   1.00
H321   H     0.62943   0.42517   0.24928   0.00000  Uiso   1.00
H322   H     0.37064   0.57518   0.24992   0.00000  Uiso   1.00
C323   C     0.49962   0.50503   0.02405   0.00000  Uiso   1.00
C324   C     0.50018   0.50503   0.47593   0.00000  Uiso   1.00
C325   C     0.62387   0.50013   0.24991   0.00000  Uiso   1.00
C326   C     0.37613   0.50013   0.25009   0.00000  Uiso   1.00
C327   C     0.43672   0.38185   0.19948   0.00000  Uiso   1.00
H328   H     0.44016   0.41542   0.18494   0.00000  Uiso   1.00
O329   O     0.40256   0.36403   0.19609   0.00000  Uiso   1.00
C330   C     0.54863   0.61776   0.31631   0.00000  Uiso   1.00
H331   H     0.56517   0.58609   0.31148   0.00000  Uiso   1.00
O332   O     0.54925   0.63352   0.35360   0.00000  Uiso   1.00
C333   C     0.56330   0.38183   0.30047   0.00000  Uiso   1.00
H334   H     0.55988   0.41542   0.31497   0.00000  Uiso   1.00
O335   O     0.59745   0.36396   0.30390   0.00000  Uiso   1.00
C336   C     0.45136   0.61777   0.18369   0.00000  Uiso   1.00
H337   H     0.43485   0.58609   0.18853   0.00000  Uiso   1.00
O338   O     0.45070   0.63356   0.14641   0.00000  Uiso   1.00
N339   N     0.53992   0.57676   0.11892   0.00000  Uiso   1.00
O340   O     0.56932   0.56705   0.14859   0.00000  Uiso   1.00
O341   O     0.53546   0.61940   0.10552   0.00000  Uiso   1.00
N342   N     0.52395   0.41945   0.39052   0.00000  Uiso   1.00
O343   O     0.49546   0.39213   0.37318   0.00000  Uiso   1.00
O344   O     0.55989   0.40201   0.40247   0.00000  Uiso   1.00
N345   N     0.45972   0.57656   0.38096   0.00000  Uiso   1.00
O346   O     0.43042   0.56671   0.35123   0.00000  Uiso   1.00
O347   O     0.46402   0.61922   0.39433   0.00000  Uiso   1.00
N348   N     0.47668   0.41914   0.10953   0.00000  Uiso   1.00
O349   O     0.50544   0.39230   0.12713   0.00000  Uiso   1.00
O350   O     0.44102   0.40108   0.09739   0.00000  Uiso   1.00
O351   O     0.77321   0.53958   0.25000   0.00000  Uiso   1.00
O352   O     0.89345   0.46042   0.25000   0.00000  Uiso   1.00
O353   O     0.89345   0.53958   0.25001   0.00000  Uiso   1.00
O354   O     0.77321   0.46042   0.25000   0.00000  Uiso   1.00
N355   N     0.83333   0.61736   0.25000   0.00000  Uiso   1.00
N356   N     0.83333   0.38264   0.25000   0.00000  Uiso   1.00
C357   C     0.75412   0.50002   0.24998   0.00000  Uiso   1.00
C358   C     0.91255   0.50002   0.25002   0.00000  Uiso   1.00
O359   O     0.83333   0.53959   0.18573   0.00000  Uiso   1.00
O360   O     0.83334   0.46041   0.31427   0.00000  Uiso   1.00
O361   O     0.83334   0.53959   0.31427   0.00000  Uiso   1.00
O362   O     0.83333   0.46041   0.18573   0.00000  Uiso   1.00
C363   C     0.83464   0.49997   0.16505   0.00000  Uiso   1.00
C364   C     0.83204   0.49997   0.33495   0.00000  Uiso   1.00
Cu365  Cu    0.83333   0.54689   0.25000   0.00000  Uiso   1.00
Cu366  Cu    0.83333   0.45311   0.25000   0.00000  Uiso   1.00
C367   C     0.80509   0.35794   0.22360   0.00000  Uiso   1.00
C368   C     0.85874   0.64191   0.27946   0.00000  Uiso   1.00
C369   C     0.86159   0.35792   0.27639   0.00000  Uiso   1.00
C370   C     0.80792   0.64192   0.22053   0.00000  Uiso   1.00
C371   C     0.68796   0.45808   0.25024   0.00000  Uiso   1.00
C372   C     0.97869   0.54225   0.25001   0.00000  Uiso   1.00
C373   C     0.97871   0.45808   0.24978   0.00000  Uiso   1.00
C374   C     0.68797   0.54225   0.24998   0.00000  Uiso   1.00
C375   C     0.84910   0.54217   0.04893   0.00000  Uiso   1.00
C376   C     0.84781   0.46583   0.45492   0.00000  Uiso   1.00
C377   C     0.81721   0.54207   0.45102   0.00000  Uiso   1.00
C378   C     0.81894   0.46571   0.04510   0.00000  Uiso   1.00
H379   H     0.86140   0.57190   0.03241   0.00000  Uiso   1.00
H380   H     0.86017   0.43684   0.47424   0.00000  Uiso   1.00
H381   H     0.80473   0.57172   0.46750   0.00000  Uiso   1.00
H382   H     0.80675   0.43663   0.02580   0.00000  Uiso   1.00
C383   C     0.85207   0.53997   0.09499   0.00000  Uiso   1.00
C384   C     0.84526   0.46244   0.40931   0.00000  Uiso   1.00
C385   C     0.81434   0.53987   0.40496   0.00000  Uiso   1.00
C386   C     0.82160   0.46230   0.09071   0.00000  Uiso   1.00
C387   C     0.83688   0.50027   0.11659   0.00000  Uiso   1.00
C388   C     0.82978   0.50028   0.38340   0.00000  Uiso   1.00
H389   H     0.70391   0.42517   0.25074   0.00000  Uiso   1.00
H390   H     0.96268   0.57518   0.25006   0.00000  Uiso   1.00
H391   H     0.96276   0.42517   0.24928   0.00000  Uiso   1.00
H392   H     0.70398   0.57518   0.24992   0.00000  Uiso   1.00
C393   C     0.83296   0.50503   0.02405   0.00000  Uiso   1.00
C394   C     0.83351   0.50503   0.47593   0.00000  Uiso   1.00
C395   C     0.95721   0.50013   0.24991   0.00000  Uiso   1.00
C396   C     0.70946   0.50013   0.25009   0.00000  Uiso   1.00
C397   C     0.77006   0.38185   0.19948   0.00000  Uiso   1.00
H398   H     0.77350   0.41542   0.18494   0.00000  Uiso   1.00
O399   O     0.73589   0.36403   0.19609   0.00000  Uiso   1.00
C400   C     0.88196   0.61776   0.31631   0.00000  Uiso   1.00
H401   H     0.89851   0.58609   0.31148   0.00000  Uiso   1.00
O402   O     0.88258   0.63352   0.35360   0.00000  Uiso   1.00
C403   C     0.89664   0.38183   0.30047   0.00000  Uiso   1.00
H404   H     0.89322   0.41542   0.31497   0.00000  Uiso   1.00
O405   O     0.93078   0.36396   0.30390   0.00000  Uiso   1.00
C406   C     0.78470   0.61777   0.18369   0.00000  Uiso   1.00
H407   H     0.76818   0.58609   0.18853   0.00000  Uiso   1.00
O408   O     0.78404   0.63356   0.14641   0.00000  Uiso   1.00
N409   N     0.87325   0.57676   0.11892   0.00000  Uiso   1.00
O410   O     0.90266   0.56705   0.14859   0.00000  Uiso   1.00
O411   O     0.86879   0.61940   0.10552   0.00000  Uiso   1.00
N412   N     0.85728   0.41945   0.39052   0.00000  Uiso   1.00
O413   O     0.82879   0.39213   0.37318   0.00000  Uiso   1.00
O414   O     0.89322   0.40201   0.40247   0.00000  Uiso   1.00
N415   N     0.79305   0.57656   0.38096   0.00000  Uiso   1.00
O416   O     0.76375   0.56671   0.35123   0.00000  Uiso   1.00
O417   O     0.79735   0.61922   0.39433   0.00000  Uiso   1.00
N418   N     0.81002   0.41914   0.10953   0.00000  Uiso   1.00
O419   O     0.83877   0.39230   0.12713   0.00000  Uiso   1.00
O420   O     0.77435   0.40108   0.09739   0.00000  Uiso   1.00
O421   O     0.10655   0.87291   0.25000   0.00000  Uiso   1.00
O422   O     0.22679   0.79375   0.25000   0.00000  Uiso   1.00
O423   O     0.22679   0.87291   0.25001   0.00000  Uiso   1.00
O424   O     0.10655   0.79375   0.25000   0.00000  Uiso   1.00
N425   N     0.16667   0.95069   0.25000   0.00000  Uiso   1.00
N426   N     0.16667   0.71598   0.25000   0.00000  Uiso   1.00
C427   C     0.08745   0.83336   0.24998   0.00000  Uiso   1.00
C428   C     0.24588   0.83336   0.25002   0.00000  Uiso   1.00
O429   O     0.16666   0.87293   0.18573   0.00000  Uiso   1.00
O430   O     0.16667   0.79374   0.31427   0.00000  Uiso   1.00
O431   O     0.16667   0.87293   0.31427   0.00000  Uiso   1.00
O432   O     0.16666   0.79374   0.18573   0.00000  Uiso   1.00
C433   C     0.16798   0.83330   0.16505   0.00000  Uiso   1.00
C434   C     0.16537   0.83331   0.33495   0.00000  Uiso   1.00
Cu435  Cu    0.16667   0.88022   0.25000   0.00000  Uiso   1.00
Cu436  Cu    0.16667   0.78645   0.25000   0.00000  Uiso   1.00
C437   C     0.13842   0.69127   0.22360   0.00000  Uiso   1.00
C438   C     0.19208   0.97524   0.27946   0.00000  Uiso   1.00
C439   C     0.19492   0.69126   0.27639   0.00000  Uiso   1.00
C440   C     0.14126   0.97525   0.22053   0.00000  Uiso   1.00
C441   C     0.02129   0.79142   0.25024   0.00000  Uiso   1.00
C442   C     0.31202   0.87559   0.25001   0.00000  Uiso   1.00
C443   C     0.31204   0.79142   0.24978   0.00000  Uiso   1.00
C444   C     0.02131   0.87559   0.24998   0.00000  Uiso   1.00
C445   C     0.18243   0.87550   0.04893   0.00000  Uiso   1.00
C446   C     0.18114   0.79916   0.45492   0.00000  Uiso   1.00
C447   C     0.15054   0.87540   0.45102   0.00000  Uiso   1.00
C448   C     0.15227   0.79904   0.04510   0.00000  Uiso   1.00
H449   H     0.19473   0.90524   0.03241   0.00000  Uiso   1.00
H450   H     0.19350   0.77018   0.47424   0.00000  Uiso   1.00
H451   H     0.13806   0.90505   0.46750   0.00000  Uiso   1.00
H452   H     0.14008   0.76996   0.02580   0.00000  Uiso   1.00
C453   C     0.18540   0.87331   0.09499   0.00000  Uiso   1.00
C454   C     0.17860   0.79577   0.40931   0.00000  Uiso   1.00
C455   C     0.14767   0.87321   0.40496   0.00000  Uiso   1.00
C456   C     0.15494   0.79563   0.09071   0.00000  Uiso   1.00
C457   C     0.17022   0.83360   0.11659   0.00000  Uiso   1.00
C458   C     0.16311   0.83361   0.38340   0.00000  Uiso   1.00
H459   H     0.03724   0.75851   0.25074   0.00000  Uiso   1.00
H460   H     0.29602   0.90851   0.25006   0.00000  Uiso   1.00
H461   H     0.29610   0.75850   0.24928   0.00000  Uiso   1.00
H462   H     0.03731   0.90851   0.24992   0.00000  Uiso   1.00
C463   C     0.16629   0.83836   0.02405   0.00000  Uiso   1.00
C464   C     0.16684   0.83836   0.47593   0.00000  Uiso   1.00
C465   C     0.29054   0.83346   0.24991   0.00000  Uiso   1.00
C466   C     0.04279   0.83346   0.25009   0.00000  Uiso   1.00
C467   C     0.10339   0.71519   0.19948   0.00000  Uiso   1.00
H468   H     0.10683   0.74875   0.18494   0.00000  Uiso   1.00
O469   O     0.06923   0.69736   0.19609   0.00000  Uiso   1.00
C470   C     0.21529   0.95109   0.31631   0.00000  Uiso   1.00
H471   H     0.23184   0.91942   0.31148   0.00000  Uiso   1.00
O472   O     0.21591   0.96685   0.35360   0.00000  Uiso   1.00
C473   C     0.22997   0.71516   0.30047   0.00000  Uiso   1.00
H474   H     0.22655   0.74875   0.31497   0.00000  Uiso   1.00
O475   O     0.26412   0.69730   0.30390   0.00000  Uiso   1.00
C476   C     0.11803   0.95110   0.18369   0.00000  Uiso   1.00
H477   H     0.10151   0.91942   0.18853   0.00000  Uiso   1.00
O478   O     0.11737   0.96689   0.14641   0.00000  Uiso   1.00
N479   N     0.20659   0.91010   0.11892   0.00000  Uiso   1.00
O480   O     0.23599   0.90039   0.14859   0.00000  Uiso   1.00
O481   O     0.20212   0.95273   0.10552   0.00000  Uiso   1.00
N482   N     0.19062   0.75279   0.39052   0.00000  Uiso   1.00
O483   O     0.16213   0.72546   0.37318   0.00000  Uiso   1.00
O484   O     0.22656   0.73534   0.40247   0.00000  Uiso   1.00
N485   N     0.12639   0.90989   0.38096   0.00000  Uiso   1.00
O486   O     0.09708   0.90004   0.35123   0.00000  Uiso   1.00
O487   O     0.13068   0.95255   0.39433   0.00000  Uiso   1.00
N488   N     0.14335   0.75247   0.10953   0.00000  Uiso   1.00
O489   O     0.17211   0.72563   0.12713   0.00000  Uiso   1.00
O490   O     0.10769   0.73442   0.09739   0.00000  Uiso   1.00
O491   O     0.43988   0.87291   0.25000   0.00000  Uiso   1.00
O492   O     0.56012   0.79375   0.25000   0.00000  Uiso   1.00
O493   O     0.56012   0.87291   0.25001   0.00000  Uiso   1.00
O494   O     0.43988   0.79375   0.25000   0.00000  Uiso   1.00
N495   N     0.50000   0.95069   0.25000   0.00000  Uiso   1.00
N496   N     0.50000   0.71598   0.25000   0.00000  Uiso   1.00
C497   C     0.42079   0.83336   0.24998   0.00000  Uiso   1.00
C498   C     0.57921   0.83336   0.25002   0.00000  Uiso   1.00
O499   O     0.50000   0.87293   0.18573   0.00000  Uiso   1.00
O500   O     0.50000   0.79374   0.31427   0.00000  Uiso   1.00
O501   O     0.50000   0.87293   0.31427   0.00000  Uiso   1.00
O502   O     0.50000   0.79374   0.18573   0.00000  Uiso   1.00
C503   C     0.50131   0.83330   0.16505   0.00000  Uiso   1.00
C504   C     0.49870   0.83331   0.33495   0.00000  Uiso   1.00
Cu505  Cu    0.50000   0.88022   0.25000   0.00000  Uiso   1.00
Cu506  Cu    0.50000   0.78645   0.25000   0.00000  Uiso   1.00
C507   C     0.47175   0.69127   0.22360   0.00000  Uiso   1.00
C508   C     0.52541   0.97524   0.27946   0.00000  Uiso   1.00
C509   C     0.52825   0.69126   0.27639   0.00000  Uiso   1.00
C510   C     0.47459   0.97525   0.22053   0.00000  Uiso   1.00
C511   C     0.35463   0.79142   0.25024   0.00000  Uiso   1.00
C512   C     0.64536   0.87559   0.25001   0.00000  Uiso   1.00
C513   C     0.64538   0.79142   0.24978   0.00000  Uiso   1.00
C514   C     0.35464   0.87559   0.24998   0.00000  Uiso   1.00
C515   C     0.51577   0.87550   0.04893   0.00000  Uiso   1.00
C516   C     0.51447   0.79916   0.45492   0.00000  Uiso   1.00
C517   C     0.48387   0.87540   0.45102   0.00000  Uiso   1.00
C518   C     0.48561   0.79904   0.04510   0.00000  Uiso   1.00
H519   H     0.52807   0.90524   0.03241   0.00000  Uiso   1.00
H520   H     0.52683   0.77018   0.47424   0.00000  Uiso   1.00
H521   H     0.47140   0.90505   0.46750   0.00000  Uiso   1.00
H522   H     0.47342   0.76996   0.02580   0.00000  Uiso   1.00
C523   C     0.51874   0.87331   0.09499   0.00000  Uiso   1.00
C524   C     0.51193   0.79577   0.40931   0.00000  Uiso   1.00
C525   C     0.48101   0.87321   0.40496   0.00000  Uiso   1.00
C526   C     0.48827   0.79563   0.09071   0.00000  Uiso   1.00
C527   C     0.50355   0.83360   0.11659   0.00000  Uiso   1.00
C528   C     0.49644   0.83361   0.38340   0.00000  Uiso   1.00
H529   H     0.37058   0.75851   0.25074   0.00000  Uiso   1.00
H530   H     0.62935   0.90851   0.25006   0.00000  Uiso   1.00
H531   H     0.62943   0.75850   0.24928   0.00000  Uiso   1.00
H532   H     0.37064   0.90851   0.24992   0.00000  Uiso   1.00
C533   C     0.49962   0.83836   0.02405   0.00000  Uiso   1.00
C534   C     0.50018   0.83836   0.47593   0.00000  Uiso   1.00
C535   C     0.62387   0.83346   0.24991   0.00000  Uiso   1.00
C536   C     0.37613   0.83346   0.25009   0.00000  Uiso   1.00
C537   C     0.43672   0.71519   0.19948   0.00000  Uiso   1.00
H538   H     0.44016   0.74875   0.18494   0.00000  Uiso   1.00
O539   O     0.40256   0.69736   0.19609   0.00000  Uiso   1.00
C540   C     0.54863   0.95109   0.31631   0.00000  Uiso   1.00
H541   H     0.56517   0.91942   0.31148   0.00000  Uiso   1.00
O542   O     0.54925   0.96685   0.35360   0.00000  Uiso   1.00
C543   C     0.56330   0.71516   0.30047   0.00000  Uiso   1.00
H544   H     0.55988   0.74875   0.31497   0.00000  Uiso   1.00
O545   O     0.59745   0.69730   0.30390   0.00000  Uiso   1.00
C546   C     0.45136   0.95110   0.18369   0.00000  Uiso   1.00
H547   H     0.43485   0.91942   0.18853   0.00000  Uiso   1.00
O548   O     0.45070   0.96689   0.14641   0.00000  Uiso   1.00
N549   N     0.53992   0.91010   0.11892   0.00000  Uiso   1.00
O550   O     0.56932   0.90039   0.14859   0.00000  Uiso   1.00
O551   O     0.53546   0.95273   0.10552   0.00000  Uiso   1.00
N552   N     0.52395   0.75279   0.39052   0.00000  Uiso   1.00
O553   O     0.49546   0.72546   0.37318   0.00000  Uiso   1.00
O554   O     0.55989   0.73534   0.40247   0.00000  Uiso   1.00
N555   N     0.45972   0.90989   0.38096   0.00000  Uiso   1.00
O556   O     0.43042   0.90004   0.35123   0.00000  Uiso   1.00
O557   O     0.46402   0.95255   0.39433   0.00000  Uiso   1.00
N558   N     0.47668   0.75247   0.10953   0.00000  Uiso   1.00
O559   O     0.50544   0.72563   0.12713   0.00000  Uiso   1.00
O560   O     0.44102   0.73442   0.09739   0.00000  Uiso   1.00
O561   O     0.77321   0.87291   0.25000   0.00000  Uiso   1.00
O562   O     0.89345   0.79375   0.25000   0.00000  Uiso   1.00
O563   O     0.89345   0.87291   0.25001   0.00000  Uiso   1.00
O564   O     0.77321   0.79375   0.25000   0.00000  Uiso   1.00
N565   N     0.83333   0.95069   0.25000   0.00000  Uiso   1.00
N566   N     0.83333   0.71598   0.25000   0.00000  Uiso   1.00
C567   C     0.75412   0.83336   0.24998   0.00000  Uiso   1.00
C568   C     0.91255   0.83336   0.25002   0.00000  Uiso   1.00
O569   O     0.83333   0.87293   0.18573   0.00000  Uiso   1.00
O570   O     0.83334   0.79374   0.31427   0.00000  Uiso   1.00
O571   O     0.83334   0.87293   0.31427   0.00000  Uiso   1.00
O572   O     0.83333   0.79374   0.18573   0.00000  Uiso   1.00
C573   C     0.83464   0.83330   0.16505   0.00000  Uiso   1.00
C574   C     0.83204   0.83331   0.33495   0.00000  Uiso   1.00
Cu575  Cu    0.83333   0.88022   0.25000   0.00000  Uiso   1.00
Cu576  Cu    0.83333   0.78645   0.25000   0.00000  Uiso   1.00
C577   C     0.80509   0.69127   0.22360   0.00000  Uiso   1.00
C578   C     0.85874   0.97524   0.27946   0.00000  Uiso   1.00
C579   C     0.86159   0.69126   0.27639   0.00000  Uiso   1.00
C580   C     0.80792   0.97525   0.22053   0.00000  Uiso   1.00
C581   C     0.68796   0.79142   0.25024   0.00000  Uiso   1.00
C582   C     0.97869   0.87559   0.25001   0.00000  Uiso   1.00
C583   C     0.97871   0.79142   0.24978   0.00000  Uiso   1.00
C584   C     0.68797   0.87559   0.24998   0.00000  Uiso   1.00
C585   C     0.84910   0.87550   0.04893   0.00000  Uiso   1.00
C586   C     0.84781   0.79916   0.45492   0.00000  Uiso   1.00
C587   C     0.81721   0.87540   0.45102   0.00000  Uiso   1.00
C588   C     0.81894   0.79904   0.04510   0.00000  Uiso   1.00
H589   H     0.86140   0.90524   0.03241   0.00000  Uiso   1.00
H590   H     0.86017   0.77018   0.47424   0.00000  Uiso   1.00
H591   H     0.80473   0.90505   0.46750   0.00000  Uiso   1.00
H592   H     0.80675   0.76996   0.02580   0.00000  Uiso   1.00
C593   C     0.85207   0.87331   0.09499   0.00000  Uiso   1.00
C594   C     0.84526   0.79577   0.40931   0.00000  Uiso   1.00
C595   C     0.81434   0.87321   0.40496   0.00000  Uiso   1.00
C596   C     0.82160   0.79563   0.09071   0.00000  Uiso   1.00
C597   C     0.83688   0.83360   0.11659   0.00000  Uiso   1.00
C598   C     0.82978   0.83361   0.38340   0.00000  Uiso   1.00
H599   H     0.70391   0.75851   0.25074   0.00000  Uiso   1.00
H600   H     0.96268   0.90851   0.25006   0.00000  Uiso   1.00
H601   H     0.96276   0.75850   0.24928   0.00000  Uiso   1.00
H602   H     0.70398   0.90851   0.24992   0.00000  Uiso   1.00
C603   C     0.83296   0.83836   0.02405   0.00000  Uiso   1.00
C604   C     0.83351   0.83836   0.47593   0.00000  Uiso   1.00
C605   C     0.95721   0.83346   0.24991   0.00000  Uiso   1.00
C606   C     0.70946   0.83346   0.25009   0.00000  Uiso   1.00
C607   C     0.77006   0.71519   0.19948   0.00000  Uiso   1.00
H608   H     0.77350   0.74875   0.18494   0.00000  Uiso   1.00
O609   O     0.73589   0.69736   0.19609   0.00000  Uiso   1.00
C610   C     0.88196   0.95109   0.31631   0.00000  Uiso   1.00
H611   H     0.89851   0.91942   0.31148   0.00000  Uiso   1.00
O612   O     0.88258   0.96685   0.35360   0.00000  Uiso   1.00
C613   C     0.89664   0.71516   0.30047   0.00000  Uiso   1.00
H614   H     0.89322   0.74875   0.31497   0.00000  Uiso   1.00
O615   O     0.93078   0.69730   0.30390   0.00000  Uiso   1.00
C616   C     0.78470   0.95110   0.18369   0.00000  Uiso   1.00
H617   H     0.76818   0.91942   0.18853   0.00000  Uiso   1.00
O618   O     0.78404   0.96689   0.14641   0.00000  Uiso   1.00
N619   N     0.87325   0.91010   0.11892   0.00000  Uiso   1.00
O620   O     0.90266   0.90039   0.14859   0.00000  Uiso   1.00
O621   O     0.86879   0.95273   0.10552   0.00000  Uiso   1.00
N622   N     0.85728   0.75279   0.39052   0.00000  Uiso   1.00
O623   O     0.82879   0.72546   0.37318   0.00000  Uiso   1.00
O624   O     0.89322   0.73534   0.40247   0.00000  Uiso   1.00
N625   N     0.79305   0.90989   0.38096   0.00000  Uiso   1.00
O626   O     0.76375   0.90004   0.35123   0.00000  Uiso   1.00
O627   O     0.79735   0.95255   0.39433   0.00000  Uiso   1.00
N628   N     0.81002   0.75247   0.10953   0.00000  Uiso   1.00
O629   O     0.83877   0.72563   0.12713   0.00000  Uiso   1.00
O630   O     0.77435   0.73442   0.09739   0.00000  Uiso   1.00
O631   O     0.10655   0.20625   0.75000   0.00000  Uiso   1.00
O632   O     0.22679   0.12709   0.75000   0.00000  Uiso   1.00
O633   O     0.22679   0.20625   0.75001   0.00000  Uiso   1.00
O634   O     0.10655   0.12709   0.75000   0.00000  Uiso   1.00
N635   N     0.16667   0.28402   0.75000   0.00000  Uiso   1.00
N636   N     0.16667   0.04931   0.75000   0.00000  Uiso   1.00
C637   C     0.08745   0.16669   0.74998   0.00000  Uiso   1.00
C638   C     0.24588   0.16669   0.75002   0.00000  Uiso   1.00
O639   O     0.16666   0.20626   0.68573   0.00000  Uiso   1.00
O640   O     0.16667   0.12707   0.81427   0.00000  Uiso   1.00
O641   O     0.16667   0.20626   0.81427   0.00000  Uiso   1.00
O642   O     0.16666   0.12707   0.68573   0.00000  Uiso   1.00
C643   C     0.16798   0.16664   0.66505   0.00000  Uiso   1.00
C644   C     0.16537   0.16664   0.83495   0.00000  Uiso   1.00
Cu645  Cu    0.16667   0.21355   0.75000   0.00000  Uiso   1.00
Cu646  Cu    0.16667   0.11978   0.75000   0.00000  Uiso   1.00
C647   C     0.13842   0.02460   0.72360   0.00000  Uiso   1.00
C648   C     0.19208   0.30857   0.77946   0.00000  Uiso   1.00
C649   C     0.19492   0.02459   0.77639   0.00000  Uiso   1.00
C650   C     0.14126   0.30858   0.72053   0.00000  Uiso   1.00
C651   C     0.02129   0.12475   0.75024   0.00000  Uiso   1.00
C652   C     0.31202   0.20892   0.75001   0.00000  Uiso   1.00
C653   C     0.31204   0.12475   0.74978   0.00000  Uiso   1.00
C654   C     0.02131   0.20892   0.74998   0.00000  Uiso   1.00
C655   C     0.18243   0.20883   0.54893   0.00000  Uiso   1.00
C656   C     0.18114   0.13249   0.95492   0.00000  Uiso   1.00
C657   C     0.15054   0.20873   0.95102   0.00000  Uiso   1.00
C658   C     0.15227   0.13237   0.54510   0.00000  Uiso   1.00
H659   H     0.19473   0.23857   0.53241   0.00000  Uiso   1.00
H660   H     0.19350   0.10351   0.97424   0.00000  Uiso   1.00
H661   H     0.13806   0.23838   0.96750   0.00000  Uiso   1.00
H662   H     0.14008   0.10330   0.52580   0.00000  Uiso   1.00
C663   C     0.18540   0.20664   0.59499   0.00000  Uiso   1.00
C664   C     0.17860   0.12911   0.90931   0.00000  Uiso   1.00
C665   C     0.14767   0.20654   0.90496   0.00000  Uiso   1.00
C666   C     0.15494   0.12897   0.59071   0.00000  Uiso   1.00
C667   C     0.17022   0.16694   0.61659   0.00000  Uiso   1.00
C668   C     0.16311   0.16695   0.88340   0.00000  Uiso   1.00
H669   H     0.03724   0.09184   0.75074   0.00000  Uiso   1.00
H670   H     0.29602   0.24185   0.75006   0.00000  Uiso   1.00
H671   H     0.29610   0.09184   0.74928   0.00000  Uiso   1.00
H672   H     0.03731   0.24185   0.74992   0.00000  Uiso   1.00
C673   C     0.16629   0.17170   0.52405   0.00000  Uiso   1.00
C674   C     0.16684   0.17169   0.97593   0.00000  Uiso   1.00
C675   C     0.29054   0.16680   0.74991   0.00000  Uiso   1.00
C676   C     0.04279   0.16680   0.75009   0.00000  Uiso   1.00
C677   C     0.10339   0.04852   0.69948   0.00000  Uiso   1.00
H678   H     0.10683   0.08209   0.68494   0.00000  Uiso   1.00
O679   O     0.06923   0.03069   0.69609   0.00000  Uiso   1.00
C680   C     0.21529   0.28442   0.81631   0.00000  Uiso   1.00
H681   H     0.23184   0.25276   0.81148   0.00000  Uiso   1.00
O682   O     0.21591   0.30018   0.85360   0.00000  Uiso   1.00
C683   C     0.22997   0.04849   0.80047   0.00000  Uiso   1.00
H684   H     0.22655   0.08209   0.81497   0.00000  Uiso   1.00
O685   O     0.26412   0.03063   0.80390   0.00000  Uiso   1.00
C686   C     0.11803   0.28444   0.68369   0.00000  Uiso   1.00
H687   H     0.10151   0.25275   0.68853   0.00000  Uiso   1.00
O688   O     0.11737   0.30022   0.64641   0.00000  Uiso   1.00
N689   N     0.20659   0.24343   0.61892   0.00000  Uiso   1.00
O690   O     0.23599   0.23372   0.64859   0.00000  Uiso   1.00
O691   O     0.20212   0.28607   0.60552   0.00000  Uiso   1.00
N692   N     0.19062   0.08612   0.89052   0.00000  Uiso   1.00
O693   O     0.16213   0.05880   0.87318   0.00000  Uiso   1.00
O694   O     0.22656   0.06868   0.90247   0.00000  Uiso   1.00
N695   N     0.12639   0.24322   0.88096   0.00000  Uiso   1.00
O696   O     0.09708   0.23337   0.85123   0.00000  Uiso   1.00
O697   O     0.13068   0.28588   0.89433   0.00000  Uiso   1.00
N698   N     0.14335   0.08581   0.60953   0.00000  Uiso   1.00
O699   O     0.17211   0.05896   0.62713   0.00000  Uiso   1.00
O700   O     0.10769   0.06775   0.59739   0.00000  Uiso   1.00
O701   O     0.43988   0.20625   0.75000   0.00000  Uiso   1.00
O702   O     0.56012   0.12709   0.75000   0.00000  Uiso   1.00
O703   O     0.56012   0.20625   0.75001   0.00000  Uiso   1.00
O704   O     0.43988   0.12709   0.75000   0.00000  Uiso   1.00
N705   N     0.50000   0.28402   0.75000   0.00000  Uiso   1.00
N706   N     0.50000   0.04931   0.75000   0.00000  Uiso   1.00
C707   C     0.42079   0.16669   0.74998   0.00000  Uiso   1.00
C708   C     0.57921   0.16669   0.75002   0.00000  Uiso   1.00
O709   O     0.50000   0.20626   0.68573   0.00000  Uiso   1.00
O710   O     0.50000   0.12707   0.81427   0.00000  Uiso   1.00
O711   O     0.50000   0.20626   0.81427   0.00000  Uiso   1.00
O712   O     0.50000   0.12707   0.68573   0.00000  Uiso   1.00
C713   C     0.50131   0.16664   0.66505   0.00000  Uiso   1.00
C714   C     0.49870   0.16664   0.83495   0.00000  Uiso   1.00
Cu715  Cu    0.50000   0.21355   0.75000   0.00000  Uiso   1.00
Cu716  Cu    0.50000   0.11978   0.75000   0.00000  Uiso   1.00
C717   C     0.47175   0.02460   0.72360   0.00000  Uiso   1.00
C718   C     0.52541   0.30857   0.77946   0.00000  Uiso   1.00
C719   C     0.52825   0.02459   0.77639   0.00000  Uiso   1.00
C720   C     0.47459   0.30858   0.72053   0.00000  Uiso   1.00
C721   C     0.35463   0.12475   0.75024   0.00000  Uiso   1.00
C722   C     0.64536   0.20892   0.75001   0.00000  Uiso   1.00
C723   C     0.64538   0.12475   0.74978   0.00000  Uiso   1.00
C724   C     0.35464   0.20892   0.74998   0.00000  Uiso   1.00
C725   C     0.51577   0.20883   0.54893   0.00000  Uiso   1.00
C726   C     0.51447   0.13249   0.95492   0.00000  Uiso   1.00
C727   C     0.48387   0.20873   0.95102   0.00000  Uiso   1.00
C728   C     0.48561   0.13237   0.54510   0.00000  Uiso   1.00
H729   H     0.52807   0.23857   0.53241   0.00000  Uiso   1.00
H730   H     0.52683   0.10351   0.97424   0.00000  Uiso   1.00
H731   H     0.47140   0.23838   0.96750   0.00000  Uiso   1.00
H732   H     0.47342   0.10330   0.52580   0.00000  Uiso   1.00
C733   C     0.51874   0.20664   0.59499   0.00000  Uiso   1.00
C734   C     0.51193   0.12911   0.90931   0.00000  Uiso   1.00
C735   C     0.48101   0.20654   0.90496   0.00000  Uiso   1.00
C736   C     0.48827   0.12897   0.59071   0.00000  Uiso   1.00
C737   C     0.50355   0.16694   0.61659   0.00000  Uiso   1.00
C738   C     0.49644   0.16695   0.88340   0.00000  Uiso   1.00
H739   H     0.37058   0.09184   0.75074   0.00000  Uiso   1.00
H740   H     0.62935   0.24185   0.75006   0.00000  Uiso   1.00
H741   H     0.62943   0.09184   0.74928   0.00000  Uiso   1.00
H742   H     0.37064   0.24185   0.74992   0.00000  Uiso   1.00
C743   C     0.49962   0.17170   0.52405   0.00000  Uiso   1.00
C744   C     0.50018   0.17169   0.97593   0.00000  Uiso   1.00
C745   C     0.62387   0.16680   0.74991   0.00000  Uiso   1.00
C746   C     0.37613   0.16680   0.75009   0.00000  Uiso   1.00
C747   C     0.43672   0.04852   0.69948   0.00000  Uiso   1.00
H748   H     0.44016   0.08209   0.68494   0.00000  Uiso   1.00
O749   O     0.40256   0.03069   0.69609   0.00000  Uiso   1.00
C750   C     0.54863   0.28442   0.81631   0.00000  Uiso   1.00
H751   H     0.56517   0.25276   0.81148   0.00000  Uiso   1.00
O752   O     0.54925   0.30018   0.85360   0.00000  Uiso   1.00
C753   C     0.56330   0.04849   0.80047   0.00000  Uiso   1.00
H754   H     0.55988   0.08209   0.81497   0.00000  Uiso   1.00
O755   O     0.59745   0.03063   0.80390   0.00000  Uiso   1.00
C756   C     0.45136   0.28444   0.68369   0.00000  Uiso   1.00
H757   H     0.43485   0.25275   0.68853   0.00000  Uiso   1.00
O758   O     0.45070   0.30022   0.64641   0.00000  Uiso   1.00
N759   N     0.53992   0.24343   0.61892   0.00000  Uiso   1.00
O760   O     0.56932   0.23372   0.64859   0.00000  Uiso   1.00
O761   O     0.53546   0.28607   0.60552   0.00000  Uiso   1.00
N762   N     0.52395   0.08612   0.89052   0.00000  Uiso   1.00
O763   O     0.49546   0.05880   0.87318   0.00000  Uiso   1.00
O764   O     0.55989   0.06868   0.90247   0.00000  Uiso   1.00
N765   N     0.45972   0.24322   0.88096   0.00000  Uiso   1.00
O766   O     0.43042   0.23337   0.85123   0.00000  Uiso   1.00
O767   O     0.46402   0.28588   0.89433   0.00000  Uiso   1.00
N768   N     0.47668   0.08581   0.60953   0.00000  Uiso   1.00
O769   O     0.50544   0.05896   0.62713   0.00000  Uiso   1.00
O770   O     0.44102   0.06775   0.59739   0.00000  Uiso   1.00
O771   O     0.77321   0.20625   0.75000   0.00000  Uiso   1.00
O772   O     0.89345   0.12709   0.75000   0.00000  Uiso   1.00
O773   O     0.89345   0.20625   0.75001   0.00000  Uiso   1.00
O774   O     0.77321   0.12709   0.75000   0.00000  Uiso   1.00
N775   N     0.83333   0.28402   0.75000   0.00000  Uiso   1.00
N776   N     0.83333   0.04931   0.75000   0.00000  Uiso   1.00
C777   C     0.75412   0.16669   0.74998   0.00000  Uiso   1.00
C778   C     0.91255   0.16669   0.75002   0.00000  Uiso   1.00
O779   O     0.83333   0.20626   0.68573   0.00000  Uiso   1.00
O780   O     0.83334   0.12707   0.81427   0.00000  Uiso   1.00
O781   O     0.83334   0.20626   0.81427   0.00000  Uiso   1.00
O782   O     0.83333   0.12707   0.68573   0.00000  Uiso   1.00
C783   C     0.83464   0.16664   0.66505   0.00000  Uiso   1.00
C784   C     0.83204   0.16664   0.83495   0.00000  Uiso   1.00
Cu785  Cu    0.83333   0.21355   0.75000   0.00000  Uiso   1.00
Cu786  Cu    0.83333   0.11978   0.75000   0.00000  Uiso   1.00
C787   C     0.80509   0.02460   0.72360   0.00000  Uiso   1.00
C788   C     0.85874   0.30857   0.77946   0.00000  Uiso   1.00
C789   C     0.86159   0.02459   0.77639   0.00000  Uiso   1.00
C790   C     0.80792   0.30858   0.72053   0.00000  Uiso   1.00
C791   C     0.68796   0.12475   0.75024   0.00000  Uiso   1.00
C792   C     0.97869   0.20892   0.75001   0.00000  Uiso   1.00
C793   C     0.97871   0.12475   0.74978   0.00000  Uiso   1.00
C794   C     0.68797   0.20892   0.74998   0.00000  Uiso   1.00
C795   C     0.84910   0.20883   0.54893   0.00000  Uiso   1.00
C796   C     0.84781   0.13249   0.95492   0.00000  Uiso   1.00
C797   C     0.81721   0.20873   0.95102   0.00000  Uiso   1.00
C798   C     0.81894   0.13237   0.54510   0.00000  Uiso   1.00
H799   H     0.86140   0.23857   0.53241   0.00000  Uiso   1.00
H800   H     0.86017   0.10351   0.97424   0.00000  Uiso   1.00
H801   H     0.80473   0.23838   0.96750   0.00000  Uiso   1.00
H802   H     0.80675   0.10330   0.52580   0.00000  Uiso   1.00
C803   C     0.85207   0.20664   0.59499   0.00000  Uiso   1.00
C804   C     0.84526   0.12911   0.90931   0.00000  Uiso   1.00
C805   C     0.81434   0.20654   0.90496   0.00000  Uiso   1.00
C806   C     0.82160   0.12897   0.59071   0.00000  Uiso   1.00
C807   C     0.83688   0.16694   0.61659   0.00000  Uiso   1.00
C808   C     0.82978   0.16695   0.88340   0.00000  Uiso   1.00
H809   H     0.70391   0.09184   0.75074   0.00000  Uiso   1.00
H810   H     0.96268   0.24185   0.75006   0.00000  Uiso   1.00
H811   H     0.96276   0.09184   0.74928   0.00000  Uiso   1.00
H812   H     0.70398   0.24185   0.74992   0.00000  Uiso   1.00
C813   C     0.83296   0.17170   0.52405   0.00000  Uiso   1.00
C814   C     0.83351   0.17169   0.97593   0.00000  Uiso   1.00
C815   C     0.95721   0.16680   0.74991   0.00000  Uiso   1.00
C816   C     0.70946   0.16680   0.75009   0.00000  Uiso   1.00
C817   C     0.77006   0.04852   0.69948   0.00000  Uiso   1.00
H818   H     0.77350   0.08209   0.68494   0.00000  Uiso   1.00
O819   O     0.73589   0.03069   0.69609   0.00000  Uiso   1.00
C820   C     0.88196   0.28442   0.81631   0.00000  Uiso   1.00
H821   H     0.89851   0.25276   0.81148   0.00000  Uiso   1.00
O822   O     0.88258   0.30018   0.85360   0.00000  Uiso   1.00
C823   C     0.89664   0.04849   0.80047   0.00000  Uiso   1.00
H824   H     0.89322   0.08209   0.81497   0.00000  Uiso   1.00
O825   O     0.93078   0.03063   0.80390   0.00000  Uiso   1.00
C826   C     0.78470   0.28444   0.68369   0.00000  Uiso   1.00
H827   H     0.76818   0.25275   0.68853   0.00000  Uiso   1.00
O828   O     0.78404   0.30022   0.64641   0.00000  Uiso   1.00
N829   N     0.87325   0.24343   0.61892   0.00000  Uiso   1.00
O830   O     0.90266   0.23372   0.64859   0.00000  Uiso   1.00
O831   O     0.86879   0.28607   0.60552   0.00000  Uiso   1.00
N832   N     0.85728   0.08612   0.89052   0.00000  Uiso   1.00
O833   O     0.82879   0.05880   0.87318   0.00000  Uiso   1.00
O834   O     0.89322   0.06868   0.90247   0.00000  Uiso   1.00
N835   N     0.79305   0.24322   0.88096   0.00000  Uiso   1.00
O836   O     0.76375   0.23337   0.85123   0.00000  Uiso   1.00
O837   O     0.79735   0.28588   0.89433   0.00000  Uiso   1.00
N838   N     0.81002   0.08581   0.60953   0.00000  Uiso   1.00
O839   O     0.83877   0.05896   0.62713   0.00000  Uiso   1.00
O840   O     0.77435   0.06775   0.59739   0.00000  Uiso   1.00
O841   O     0.10655   0.53958   0.75000   0.00000  Uiso   1.00
O842   O     0.22679   0.46042   0.75000   0.00000  Uiso   1.00
O843   O     0.22679   0.53958   0.75001   0.00000  Uiso   1.00
O844   O     0.10655   0.46042   0.75000   0.00000  Uiso   1.00
N845   N     0.16667   0.61736   0.75000   0.00000  Uiso   1.00
N846   N     0.16667   0.38264   0.75000   0.00000  Uiso   1.00
C847   C     0.08745   0.50002   0.74998   0.00000  Uiso   1.00
C848   C     0.24588   0.50002   0.75002   0.00000  Uiso   1.00
O849   O     0.16666   0.53959   0.68573   0.00000  Uiso   1.00
O850   O     0.16667   0.46041   0.81427   0.00000  Uiso   1.00
O851   O     0.16667   0.53959   0.81427   0.00000  Uiso   1.00
O852   O     0.16666   0.46041   0.68573   0.00000  Uiso   1.00
C853   C     0.16798   0.49997   0.66505   0.00000  Uiso   1.00
C854   C     0.16537   0.49997   0.83495   0.00000  Uiso   1.00
Cu855  Cu    0.16667   0.54689   0.75000   0.00000  Uiso   1.00
Cu856  Cu    0.16667   0.45311   0.75000   0.00000  Uiso   1.00
C857   C     0.13842   0.35794   0.72360   0.00000  Uiso   1.00
C858   C     0.19208   0.64191   0.77946   0.00000  Uiso   1.00
C859   C     0.19492   0.35792   0.77639   0.00000  Uiso   1.00
C860   C     0.14126   0.64192   0.72053   0.00000  Uiso   1.00
C861   C     0.02129   0.45808   0.75024   0.00000  Uiso   1.00
C862   C     0.31202   0.54225   0.75001   0.00000  Uiso   1.00
C863   C     0.31204   0.45808   0.74978   0.00000  Uiso   1.00
C864   C     0.02131   0.54225   0.74998   0.00000  Uiso   1.00
C865   C     0.18243   0.54217   0.54893   0.00000  Uiso   1.00
C866   C     0.18114   0.46583   0.95492   0.00000  Uiso   1.00
C867   C     0.15054   0.54207   0.95102   0.00000  Uiso   1.00
C868   C     0.15227   0.46571   0.54510   0.00000  Uiso   1.00
H869   H     0.19473   0.57190   0.53241   0.00000  Uiso   1.00
H870   H     0.19350   0.43684   0.97424   0.00000  Uiso   1.00
H871   H     0.13806   0.57172   0.96750   0.00000  Uiso   1.00
H872   H     0.14008   0.43663   0.52580   0.00000  Uiso   1.00
C873   C     0.18540   0.53997   0.59499   0.00000  Uiso   1.00
C874   C     0.17860   0.46244   0.90931   0.00000  Uiso   1.00
C875   C     0.14767   0.53987   0.90496   0.00000  Uiso   1.00
C876   C     0.15494   0.46230   0.59071   0.00000  Uiso   1.00
C877   C     0.17022   0.50027   0.61659   0.00000  Uiso   1.00
C878   C     0.16311   0.50028   0.88340   0.00000  Uiso   1.00
H879   H     0.03724   0.42517   0.75074   0.00000  Uiso   1.00
H880   H     0.29602   0.57518   0.75006   0.00000  Uiso   1.00
H881   H     0.29610   0.42517   0.74928   0.00000  Uiso   1.00
H882   H     0.03731   0.57518   0.74992   0.00000  Uiso   1.00
C883   C     0.16629   0.50503   0.52405   0.00000  Uiso   1.00
C884   C     0.16684   0.50503   0.97593   0.00000  Uiso   1.00
C885   C     0.29054   0.50013   0.74991   0.00000  Uiso   1.00
C886   C     0.04279   0.50013   0.75009   0.00000  Uiso   1.00
C887   C     0.10339   0.38185   0.69948   0.00000  Uiso   1.00
H888   H     0.10683   0.41542   0.68494   0.00000  Uiso   1.00
O889   O     0.06923   0.36403   0.69609   0.00000  Uiso   1.00
C890   C     0.21529   0.61776   0.81631   0.00000  Uiso   1.00
H891   H     0.23184   0.58609   0.81148   0.00000  Uiso   1.00
O892   O     0.21591   0.63352   0.85360   0.00000  Uiso   1.00
C893   C     0.22997   0.38183   0.80047   0.00000  Uiso   1.00
H894   H     0.22655   0.41542   0.81497   0.00000  Uiso   1.00
O895   O     0.26412   0.36396   0.80390   0.00000  Uiso   1.00
C896   C     0.11803   0.61777   0.68369   0.00000  Uiso   1.00
H897   H     0.10151   0.58609   0.68853   0.00000  Uiso   1.00
O898   O     0.11737   0.63356   0.64641   0.00000  Uiso   1.00
N899   N     0.20659   0.57676   0.61892   0.00000  Uiso   1.00
O900   O     0.23599   0.56705   0.64859   0.00000  Uiso   1.00
O901   O     0.20212   0.61940   0.60552   0.00000  Uiso   1.00
N902   N     0.19062   0.41945   0.89052   0.00000  Uiso   1.00
O903   O     0.16213   0.39213   0.87318   0.00000  Uiso   1.00
O904   O     0.22656   0.40201   0.90247   0.00000  Uiso   1.00
N905   N     0.12639   0.57656   0.88096   0.00000  Uiso   1.00
O906   O     0.09708   0.56671   0.85123   0.00000  Uiso   1.00
O907   O     0.13068   0.61922   0.89433   0.00000  Uiso   1.00
N908   N     0.14335   0.41914   0.60953   0.00000  Uiso   1.00
O909   O     0.17211   0.39230   0.62713   0.00000  Uiso   1.00
O910   O     0.10769   0.40108   0.59739   0.00000  Uiso   1.00
O911   O     0.43988   0.53958   0.75000   0.00000  Uiso   1.00
O912   O     0.56012   0.46042   0.75000   0.00000  Uiso   1.00
O913   O     0.56012   0.53958   0.75001   0.00000  Uiso   1.00
O914   O     0.43988   0.46042   0.75000   0.00000  Uiso   1.00
N915   N     0.50000   0.61736   0.75000   0.00000  Uiso   1.00
N916   N     0.50000   0.38264   0.75000   0.00000  Uiso   1.00
C917   C     0.42079   0.50002   0.74998   0.00000  Uiso   1.00
C918   C     0.57921   0.50002   0.75002   0.00000  Uiso   1.00
O919   O     0.50000   0.53959   0.68573   0.00000  Uiso   1.00
O920   O     0.50000   0.46041   0.81427   0.00000  Uiso   1.00
O921   O     0.50000   0.53959   0.81427   0.00000  Uiso   1.00
O922   O     0.50000   0.46041   0.68573   0.00000  Uiso   1.00
C923   C     0.50131   0.49997   0.66505   0.00000  Uiso   1.00
C924   C     0.49870   0.49997   0.83495   0.00000  Uiso   1.00
Cu925  Cu    0.50000   0.54689   0.75000   0.00000  Uiso   1.00
Cu926  Cu    0.50000   0.45311   0.75000   0.00000  Uiso   1.00
C927   C     0.47175   0.35794   0.72360   0.00000  Uiso   1.00
C928   C     0.52541   0.64191   0.77946   0.00000  Uiso   1.00
C929   C     0.52825   0.35792   0.77639   0.00000  Uiso   1.00
C930   C     0.47459   0.64192   0.72053   0.00000  Uiso   1.00
C931   C     0.35463   0.45808   0.75024   0.00000  Uiso   1.00
C932   C     0.64536   0.54225   0.75001   0.00000  Uiso   1.00
C933   C     0.64538   0.45808   0.74978   0.00000  Uiso   1.00
C934   C     0.35464   0.54225   0.74998   0.00000  Uiso   1.00
C935   C     0.51577   0.54217   0.54893   0.00000  Uiso   1.00
C936   C     0.51447   0.46583   0.95492   0.00000  Uiso   1.00
C937   C     0.48387   0.54207   0.95102   0.00000  Uiso   1.00
C938   C     0.48561   0.46571   0.54510   0.00000  Uiso   1.00
H939   H     0.52807   0.57190   0.53241   0.00000  Uiso   1.00
H940   H     0.52683   0.43684   0.97424   0.00000  Uiso   1.00
H941   H     0.47140   0.57172   0.96750   0.00000  Uiso   1.00
H942   H     0.47342   0.43663   0.52580   0.00000  Uiso   1.00
C943   C     0.51874   0.53997   0.59499   0.00000  Uiso   1.00
C944   C     0.51193   0.46244   0.90931   0.00000  Uiso   1.00
C945   C     0.48101   0.53987   0.90496   0.00000  Uiso   1.00
C946   C     0.48827   0.46230   0.59071   0.00000  Uiso   1.00
C947   C     0.50355   0.50027   0.61659   0.00000  Uiso   1.00
C948   C     0.49644   0.50028   0.88340   0.00000  Uiso   1.00
H949   H     0.37058   0.42517   0.75074   0.00000  Uiso   1.00
H950   H     0.62935   0.57518   0.75006   0.00000  Uiso   1.00
H951   H     0.62943   0.42517   0.74928   0.00000  Uiso   1.00
H952   H     0.37064   0.57518   0.74992   0.00000  Uiso   1.00
C953   C     0.49962   0.50503   0.52405   0.00000  Uiso   1.00
C954   C     0.50018   0.50503   0.97593   0.00000  Uiso   1.00
C955   C     0.62387   0.50013   0.74991   0.00000  Uiso   1.00
C956   C     0.37613   0.50013   0.75009   0.00000  Uiso   1.00
C957   C     0.43672   0.38185   0.69948   0.00000  Uiso   1.00
H958   H     0.44016   0.41542   0.68494   0.00000  Uiso   1.00
O959   O     0.40256   0.36403   0.69609   0.00000  Uiso   1.00
C960   C     0.54863   0.61776   0.81631   0.00000  Uiso   1.00
H961   H     0.56517   0.58609   0.81148   0.00000  Uiso   1.00
O962   O     0.54925   0.63352   0.85360   0.00000  Uiso   1.00
C963   C     0.56330   0.38183   0.80047   0.00000  Uiso   1.00
H964   H     0.55988   0.41542   0.81497   0.00000  Uiso   1.00
O965   O     0.59745   0.36396   0.80390   0.00000  Uiso   1.00
C966   C     0.45136   0.61777   0.68369   0.00000  Uiso   1.00
H967   H     0.43485   0.58609   0.68853   0.00000  Uiso   1.00
O968   O     0.45070   0.63356   0.64641   0.00000  Uiso   1.00
N969   N     0.53992   0.57676   0.61892   0.00000  Uiso   1.00
O970   O     0.56932   0.56705   0.64859   0.00000  Uiso   1.00
O971   O     0.53546   0.61940   0.60552   0.00000  Uiso   1.00
N972   N     0.52395   0.41945   0.89052   0.00000  Uiso   1.00
O973   O     0.49546   0.39213   0.87318   0.00000  Uiso   1.00
O974   O     0.55989   0.40201   0.90247   0.00000  Uiso   1.00
N975   N     0.45972   0.57656   0.88096   0.00000  Uiso   1.00
O976   O     0.43042   0.56671   0.85123   0.00000  Uiso   1.00
O977   O     0.46402   0.61922   0.89433   0.00000  Uiso   1.00
N978   N     0.47668   0.41914   0.60953   0.00000  Uiso   1.00
O979   O     0.50544   0.39230   0.62713   0.00000  Uiso   1.00
O980   O     0.44102   0.40108   0.59739   0.00000  Uiso   1.00
O981   O     0.77321   0.53958   0.75000   0.00000  Uiso   1.00
O982   O     0.89345   0.46042   0.75000   0.00000  Uiso   1.00
O983   O     0.89345   0.53958   0.75001   0.00000  Uiso   1.00
O984   O     0.77321   0.46042   0.75000   0.00000  Uiso   1.00
N985   N     0.83333   0.61736   0.75000   0.00000  Uiso   1.00
N986   N     0.83333   0.38264   0.75000   0.00000  Uiso   1.00
C987   C     0.75412   0.50002   0.74998   0.00000  Uiso   1.00
C988   C     0.91255   0.50002   0.75002   0.00000  Uiso   1.00
O989   O     0.83333   0.53959   0.68573   0.00000  Uiso   1.00
O990   O     0.83334   0.46041   0.81427   0.00000  Uiso   1.00
O991   O     0.83334   0.53959   0.81427   0.00000  Uiso   1.00
O992   O     0.83333   0.46041   0.68573   0.00000  Uiso   1.00
C993   C     0.83464   0.49997   0.66505   0.00000  Uiso   1.00
C994   C     0.83204   0.49997   0.83495   0.00000  Uiso   1.00
Cu995  Cu    0.83333   0.54689   0.75000   0.00000  Uiso   1.00
Cu996  Cu    0.83333   0.45311   0.75000   0.00000  Uiso   1.00
C997   C     0.80509   0.35794   0.72360   0.00000  Uiso   1.00
C998   C     0.85874   0.64191   0.77946   0.00000  Uiso   1.00
C999   C     0.86159   0.35792   0.77639   0.00000  Uiso   1.00
C1000  C     0.80792   0.64192   0.72053   0.00000  Uiso   1.00
C1001  C     0.68796   0.45808   0.75024   0.00000  Uiso   1.00
C1002  C     0.97869   0.54225   0.75001   0.00000  Uiso   1.00
C1003  C     0.97871   0.45808   0.74978   0.00000  Uiso   1.00
C1004  C     0.68797   0.54225   0.74998   0.00000  Uiso   1.00
C1005  C     0.84910   0.54217   0.54893   0.00000  Uiso   1.00
C1006  C     0.84781   0.46583   0.95492   0.00000  Uiso   1.00
C1007  C     0.81721   0.54207   0.95102   0.00000  Uiso   1.00
C1008  C     0.81894   0.46571   0.54510   0.00000  Uiso   1.00
H1009  H     0.86140   0.57190   0.53241   0.00000  Uiso   1.00
H1010  H     0.86017   0.43684   0.97424   0.00000  Uiso   1.00
H1011  H     0.80473   0.57172   0.96750   0.00000  Uiso   1.00
H1012  H     0.80675   0.43663   0.52580   0.00000  Uiso   1.00
C1013  C     0.85207   0.53997   0.59499   0.00000  Uiso   1.00
C1014  C     0.84526   0.46244   0.90931   0.00000  Uiso   1.00
C1015  C     0.81434   0.53987   0.90496   0.00000  Uiso   1.00
C1016  C     0.82160   0.46230   0.59071   0.00000  Uiso   1.00
C1017  C     0.83688   0.50027   0.61659   0.00000  Uiso   1.00
C1018  C     0.82978   0.50028   0.88340   0.00000  Uiso   1.00
H1019  H     0.70391   0.42517   0.75074   0.00000  Uiso   1.00
H1020  H     0.96268   0.57518   0.75006   0.00000  Uiso   1.00
H1021  H     0.96276   0.42517   0.74928   0.00000  Uiso   1.00
H1022  H     0.70398   0.57518   0.74992   0.00000  Uiso   1.00
C1023  C     0.83296   0.50503   0.52405   0.00000  Uiso   1.00
C1024  C     0.83351   0.50503   0.97593   0.00000  Uiso   1.00
C1025  C     0.95721   0.50013   0.74991   0.00000  Uiso   1.00
C1026  C     0.70946   0.50013   0.75009   0.00000  Uiso   1.00
C1027  C     0.77006   0.38185   0.69948   0.00000  Uiso   1.00
H1028  H     0.77350   0.41542   0.68494   0.00000  Uiso   1.00
O1029  O     0.73589   0.36403   0.69609   0.00000  Uiso   1.00
C1030  C     0.88196   0.61776   0.81631   0.00000  Uiso   1.00
H1031  H     0.89851   0.58609   0.81148   0.00000  Uiso   1.00
O1032  O     0.88258   0.63352   0.85360   0.00000  Uiso   1.00
C1033  C     0.89664   0.38183   0.80047   0.00000  Uiso   1.00
H1034  H     0.89322   0.41542   0.81497   0.00000  Uiso   1.00
O1035  O     0.93078   0.36396   0.80390   0.00000  Uiso   1.00
C1036  C     0.78470   0.61777   0.68369   0.00000  Uiso   1.00
H1037  H     0.76818   0.58609   0.68853   0.00000  Uiso   1.00
O1038  O     0.78404   0.63356   0.64641   0.00000  Uiso   1.00
N1039  N     0.87325   0.57676   0.61892   0.00000  Uiso   1.00
O1040  O     0.90266   0.56705   0.64859   0.00000  Uiso   1.00
O1041  O     0.86879   0.61940   0.60552   0.00000  Uiso   1.00
N1042  N     0.85728   0.41945   0.89052   0.00000  Uiso   1.00
O1043  O     0.82879   0.39213   0.87318   0.00000  Uiso   1.00
O1044  O     0.89322   0.40201   0.90247   0.00000  Uiso   1.00
N1045  N     0.79305   0.57656   0.88096   0.00000  Uiso   1.00
O1046  O     0.76375   0.56671   0.85123   0.00000  Uiso   1.00
O1047  O     0.79735   0.61922   0.89433   0.00000  Uiso   1.00
N1048  N     0.81002   0.41914   0.60953   0.00000  Uiso   1.00
O1049  O     0.83877   0.39230   0.62713   0.00000  Uiso   1.00
O1050  O     0.77435   0.40108   0.59739   0.00000  Uiso   1.00
O1051  O     0.10655   0.87291   0.75000   0.00000  Uiso   1.00
O1052  O     0.22679   0.79375   0.75000   0.00000  Uiso   1.00
O1053  O     0.22679   0.87291   0.75001   0.00000  Uiso   1.00
O1054  O     0.10655   0.79375   0.75000   0.00000  Uiso   1.00
N1055  N     0.16667   0.95069   0.75000   0.00000  Uiso   1.00
N1056  N     0.16667   0.71598   0.75000   0.00000  Uiso   1.00
C1057  C     0.08745   0.83336   0.74998   0.00000  Uiso   1.00
C1058  C     0.24588   0.83336   0.75002   0.00000  Uiso   1.00
O1059  O     0.16666   0.87293   0.68573   0.00000  Uiso   1.00
O1060  O     0.16667   0.79374   0.81427   0.00000  Uiso   1.00
O1061  O     0.16667   0.87293   0.81427   0.00000  Uiso   1.00
O1062  O     0.16666   0.79374   0.68573   0.00000  Uiso   1.00
C1063  C     0.16798   0.83330   0.66505   0.00000  Uiso   1.00
C1064  C     0.16537   0.83331   0.83495   0.00000  Uiso   1.00
Cu1065 Cu    0.16667   0.88022   0.75000   0.00000  Uiso   1.00
Cu1066 Cu    0.16667   0.78645   0.75000   0.00000  Uiso   1.00
C1067  C     0.13842   0.69127   0.72360   0.00000  Uiso   1.00
C1068  C     0.19208   0.97524   0.77946   0.00000  Uiso   1.00
C1069  C     0.19492   0.69126   0.77639   0.00000  Uiso   1.00
C1070  C     0.14126   0.97525   0.72053   0.00000  Uiso   1.00
C1071  C     0.02129   0.79142   0.75024   0.00000  Uiso   1.00
C1072  C     0.31202   0.87559   0.75001   0.00000  Uiso   1.00
C1073  C     0.31204   0.79142   0.74978   0.00000  Uiso   1.00
C1074  C     0.02131   0.87559   0.74998   0.00000  Uiso   1.00
C1075  C     0.18243   0.87550   0.54893   0.00000  Uiso   1.00
C1076  C     0.18114   0.79916   0.95492   0.00000  Uiso   1.00
C1077  C     0.15054   0.87540   0.95102   0.00000  Uiso   1.00
C1078  C     0.15227   0.79904   0.54510   0.00000  Uiso   1.00
H1079  H     0.19473   0.90524   0.53241   0.00000  Uiso   1.00
H1080  H     0.19350   0.77018   0.97424   0.00000  Uiso   1.00
H1081  H     0.13806   0.90505   0.96750   0.00000  Uiso   1.00
H1082  H     0.14008   0.76996   0.52580   0.00000  Uiso   1.00
C1083  C     0.18540   0.87331   0.59499   0.00000  Uiso   1.00
C1084  C     0.17860   0.79577   0.90931   0.00000  Uiso   1.00
C1085  C     0.14767   0.87321   0.90496   0.00000  Uiso   1.00
C1086  C     0.15494   0.79563   0.59071   0.00000  Uiso   1.00
C1087  C     0.17022   0.83360   0.61659   0.00000  Uiso   1.00
C1088  C     0.16311   0.83361   0.88340   0.00000  Uiso   1.00
H1089  H     0.03724   0.75851   0.75074   0.00000  Uiso   1.00
H1090  H     0.29602   0.90851   0.75006   0.00000  Uiso   1.00
H1091  H     0.29610   0.75850   0.74928   0.00000  Uiso   1.00
H1092  H     0.03731   0.90851   0.74992   0.00000  Uiso   1.00
C1093  C     0.16629   0.83836   0.52405   0.00000  Uiso   1.00
C1094  C     0.16684   0.83836   0.97593   0.00000  Uiso   1.00
C1095  C     0.29054   0.83346   0.74991   0.00000  Uiso   1.00
C1096  C     0.04279   0.83346   0.75009   0.00000  Uiso   1.00
C1097  C     0.10339   0.71519   0.69948   0.00000  Uiso   1.00
H1098  H     0.10683   0.74875   0.68494   0.00000  Uiso   1.00
O1099  O     0.06923   0.69736   0.69609   0.00000  Uiso   1.00
C1100  C     0.21529   0.95109   0.81631   0.00000  Uiso   1.00
H1101  H     0.23184   0.91942   0.81148   0.00000  Uiso   1.00
O1102  O     0.21591   0.96685   0.85360   0.00000  Uiso   1.00
C1103  C     0.22997   0.71516   0.80047   0.00000  Uiso   1.00
H1104  H     0.22655   0.74875   0.81497   0.00000  Uiso   1.00
O1105  O     0.26412   0.69730   0.80390   0.00000  Uiso   1.00
C1106  C     0.11803   0.95110   0.68369   0.00000  Uiso   1.00
H1107  H     0.10151   0.91942   0.68853   0.00000  Uiso   1.00
O1108  O     0.11737   0.96689   0.64641   0.00000  Uiso   1.00
N1109  N     0.20659   0.91010   0.61892   0.00000  Uiso   1.00
O1110  O     0.23599   0.90039   0.64859   0.00000  Uiso   1.00
O1111  O     0.20212   0.95273   0.60552   0.00000  Uiso   1.00
N1112  N     0.19062   0.75279   0.89052   0.00000  Uiso   1.00
O1113  O     0.16213   0.72546   0.87318   0.00000  Uiso   1.00
O1114  O     0.22656   0.73534   0.90247   0.00000  Uiso   1.00
N1115  N     0.12639   0.90989   0.88096   0.00000  Uiso   1.00
O1116  O     0.09708   0.90004   0.85123   0.00000  Uiso   1.00
O1117  O     0.13068   0.95255   0.89433   0.00000  Uiso   1.00
N1118  N     0.14335   0.75247   0.60953   0.00000  Uiso   1.00
O1119  O     0.17211   0.72563   0.62713   0.00000  Uiso   1.00
O1120  O     0.10769   0.73442   0.59739   0.00000  Uiso   1.00
O1121  O     0.43988   0.87291   0.75000   0.00000  Uiso   1.00
O1122  O     0.56012   0.79375   0.75000   0.00000  Uiso   1.00
O1123  O     0.56012   0.87291   0.75001   0.00000  Uiso   1.00
O1124  O     0.43988   0.79375   0.75000   0.00000  Uiso   1.00
N1125  N     0.50000   0.95069   0.75000   0.00000  Uiso   1.00
N1126  N     0.50000   0.71598   0.75000   0.00000  Uiso   1.00
C1127  C     0.42079   0.83336   0.74998   0.00000  Uiso   1.00
C1128  C     0.57921   0.83336   0.75002   0.00000  Uiso   1.00
O1129  O     0.50000   0.87293   0.68573   0.00000  Uiso   1.00
O1130  O     0.50000   0.79374   0.81427   0.00000  Uiso   1.00
O1131  O     0.50000   0.87293   0.81427   0.00000  Uiso   1.00
O1132  O     0.50000   0.79374   0.68573   0.00000  Uiso   1.00
C1133  C     0.50131   0.83330   0.66505   0.00000  Uiso   1.00
C1134  C     0.49870   0.83331   0.83495   0.00000  Uiso   1.00
Cu1135 Cu    0.50000   0.88022   0.75000   0.00000  Uiso   1.00
Cu1136 Cu    0.50000   0.78645   0.75000   0.00000  Uiso   1.00
C1137  C     0.47175   0.69127   0.72360   0.00000  Uiso   1.00
C1138  C     0.52541   0.97524   0.77946   0.00000  Uiso   1.00
C1139  C     0.52825   0.69126   0.77639   0.00000  Uiso   1.00
C1140  C     0.47459   0.97525   0.72053   0.00000  Uiso   1.00
C1141  C     0.35463   0.79142   0.75024   0.00000  Uiso   1.00
C1142  C     0.64536   0.87559   0.75001   0.00000  Uiso   1.00
C1143  C     0.64538   0.79142   0.74978   0.00000  Uiso   1.00
C1144  C     0.35464   0.87559   0.74998   0.00000  Uiso   1.00
C1145  C     0.51577   0.87550   0.54893   0.00000  Uiso   1.00
C1146  C     0.51447   0.79916   0.95492   0.00000  Uiso   1.00
C1147  C     0.48387   0.87540   0.95102   0.00000  Uiso   1.00
C1148  C     0.48561   0.79904   0.54510   0.00000  Uiso   1.00
H1149  H     0.52807   0.90524   0.53241   0.00000  Uiso   1.00
H1150  H     0.52683   0.77018   0.97424   0.00000  Uiso   1.00
H1151  H     0.47140   0.90505   0.96750   0.00000  Uiso   1.00
H1152  H     0.47342   0.76996   0.52580   0.00000  Uiso   1.00
C1153  C     0.51874   0.87331   0.59499   0.00000  Uiso   1.00
C1154  C     0.51193   0.79577   0.90931   0.00000  Uiso   1.00
C1155  C     0.48101   0.87321   0.90496   0.00000  Uiso   1.00
C1156  C     0.48827   0.79563   0.59071   0.00000  Uiso   1.00
C1157  C     0.50355   0.83360   0.61659   0.00000  Uiso   1.00
C1158  C     0.49644   0.83361   0.88340   0.00000  Uiso   1.00
H1159  H     0.37058   0.75851   0.75074   0.00000  Uiso   1.00
H1160  H     0.62935   0.90851   0.75006   0.00000  Uiso   1.00
H1161  H     0.62943   0.75850   0.74928   0.00000  Uiso   1.00
H1162  H     0.37064   0.90851   0.74992   0.00000  Uiso   1.00
C1163  C     0.49962   0.83836   0.52405   0.00000  Uiso   1.00
C1164  C     0.50018   0.83836   0.97593   0.00000  Uiso   1.00
C1165  C     0.62387   0.83346   0.74991   0.00000  Uiso   1.00
C1166  C     0.37613   0.83346   0.75009   0.00000  Uiso   1.00
C1167  C     0.43672   0.71519   0.69948   0.00000  Uiso   1.00
H1168  H     0.44016   0.74875   0.68494   0.00000  Uiso   1.00
O1169  O     0.40256   0.69736   0.69609   0.00000  Uiso   1.00
C1170  C     0.54863   0.95109   0.81631   0.00000  Uiso   1.00
H1171  H     0.56517   0.91942   0.81148   0.00000  Uiso   1.00
O1172  O     0.54925   0.96685   0.85360   0.00000  Uiso   1.00
C1173  C     0.56330   0.71516   0.80047   0.00000  Uiso   1.00
H1174  H     0.55988   0.74875   0.81497   0.00000  Uiso   1.00
O1175  O     0.59745   0.69730   0.80390   0.00000  Uiso   1.00
C1176  C     0.45136   0.95110   0.68369   0.00000  Uiso   1.00
H1177  H     0.43485   0.91942   0.68853   0.00000  Uiso   1.00
O1178  O     0.45070   0.96689   0.64641   0.00000  Uiso   1.00
N1179  N     0.53992   0.91010   0.61892   0.00000  Uiso   1.00
O1180  O     0.56932   0.90039   0.64859   0.00000  Uiso   1.00
O1181  O     0.53546   0.95273   0.60552   0.00000  Uiso   1.00
N1182  N     0.52395   0.75279   0.89052   0.00000  Uiso   1.00
O1183  O     0.49546   0.72546   0.87318   0.00000  Uiso   1.00
O1184  O     0.55989   0.73534   0.90247   0.00000  Uiso   1.00
N1185  N     0.45972   0.90989   0.88096   0.00000  Uiso   1.00
O1186  O     0.43042   0.90004   0.85123   0.00000  Uiso   1.00
O1187  O     0.46402   0.95255   0.89433   0.00000  Uiso   1.00
N1188  N     0.47668   0.75247   0.60953   0.00000  Uiso   1.00
O1189  O     0.50544   0.72563   0.62713   0.00000  Uiso   1.00
O1190  O     0.44102   0.73442   0.59739   0.00000  Uiso   1.00
O1191  O     0.77321   0.87291   0.75000   0.00000  Uiso   1.00
O1192  O     0.89345   0.79375   0.75000   0.00000  Uiso   1.00
O1193  O     0.89345   0.87291   0.75001   0.00000  Uiso   1.00
O1194  O     0.77321   0.79375   0.75000   0.00000  Uiso   1.00
N1195  N     0.83333   0.95069   0.75000   0.00000  Uiso   1.00
N1196  N     0.83333   0.71598   0.75000   0.00000  Uiso   1.00
C1197  C     0.75412   0.83336   0.74998   0.00000  Uiso   1.00
C1198  C     0.91255   0.83336   0.75002   0.00000  Uiso   1.00
O1199  O     0.83333   0.87293   0.68573   0.00000  Uiso   1.00
O1200  O     0.83334   0.79374   0.81427   0.00000  Uiso   1.00
O1201  O     0.83334   0.87293   0.81427   0.00000  Uiso   1.00
O1202  O     0.83333   0.79374   0.68573   0.00000  Uiso   1.00
C1203  C     0.83464   0.83330   0.66505   0.00000  Uiso   1.00
C1204  C     0.83204   0.83331   0.83495   0.00000  Uiso   1.00
Cu1205 Cu    0.83333   0.88022   0.75000   0.00000  Uiso   1.00
Cu1206 Cu    0.83333   0.78645   0.75000   0.00000  Uiso   1.00
C1207  C     0.80509   0.69127   0.72360   0.00000  Uiso   1.00
C1208  C     0.85874   0.97524   0.77946   0.00000  Uiso   1.00
C1209  C     0.86159   0.69126   0.77639   0.00000  Uiso   1.00
C1210  C     0.80792   0.97525   0.72053   0.00000  Uiso   1.00
C1211  C     0.68796   0.79142   0.75024   0.00000  Uiso   1.00
C1212  C     0.97869   0.87559   0.75001   0.00000  Uiso   1.00
C1213  C     0.97871   0.79142   0.74978   0.00000  Uiso   1.00
C1214  C     0.68797   0.87559   0.74998   0.00000  Uiso   1.00
C1215  C     0.84910   0.87550   0.54893   0.00000  Uiso   1.00
C1216  C     0.84781   0.79916   0.95492   0.00000  Uiso   1.00
C1217  C     0.81721   0.87540   0.95102   0.00000  Uiso   1.00
C1218  C     0.81894   0.79904   0.54510   0.00000  Uiso   1.00
H1219  H     0.86140   0.90524   0.53241   0.00000  Uiso   1.00
H1220  H     0.86017   0.77018   0.97424   0.00000  Uiso   1.00
H1221  H     0.80473   0.90505   0.96750   0.00000  Uiso   1.00
H1222  H     0.80675   0.76996   0.52580   0.00000  Uiso   1.00
C1223  C     0.85207   0.87331   0.59499   0.00000  Uiso   1.00
C1224  C     0.84526   0.79577   0.90931   0.00000  Uiso   1.00
C1225  C     0.81434   0.87321   0.90496   0.00000  Uiso   1.00
C1226  C     0.82160   0.79563   0.59071   0.00000  Uiso   1.00
C1227  C     0.83688   0.83360   0.61659   0.00000  Uiso   1.00
C1228  C     0.82978   0.83361   0.88340   0.00000  Uiso   1.00
H1229  H     0.70391   0.75851   0.75074   0.00000  Uiso   1.00
H1230  H     0.96268   0.90851   0.75006   0.00000  Uiso   1.00
H1231  H     0.96276   0.75850   0.74928   0.00000  Uiso   1.00
H1232  H     0.70398   0.90851   0.74992   0.00000  Uiso   1.00
C1233  C     0.83296   0.83836   0.52405   0.00000  Uiso   1.00
C1234  C     0.83351   0.83836   0.97593   0.00000  Uiso   1.00
C1235  C     0.95721   0.83346   0.74991   0.00000  Uiso   1.00
C1236  C     0.70946   0.83346   0.75009   0.00000  Uiso   1.00
C1237  C     0.77006   0.71519   0.69948   0.00000  Uiso   1.00
H1238  H     0.77350   0.74875   0.68494   0.00000  Uiso   1.00
O1239  O     0.73589   0.69736   0.69609   0.00000  Uiso   1.00
C1240  C     0.88196   0.95109   0.81631   0.00000  Uiso   1.00
H1241  H     0.89851   0.91942   0.81148   0.00000  Uiso   1.00
O1242  O     0.88258   0.96685   0.85360   0.00000  Uiso   1.00
C1243  C     0.89664   0.71516   0.80047   0.00000  Uiso   1.00
H1244  H     0.89322   0.74875   0.81497   0.00000  Uiso   1.00
O1245  O     0.93078   0.69730   0.80390   0.00000  Uiso   1.00
C1246  C     0.78470   0.95110   0.68369   0.00000  Uiso   1.00
H1247  H     0.76818   0.91942   0.68853   0.00000  Uiso   1.00
O1248  O     0.78404   0.96689   0.64641   0.00000  Uiso   1.00
N1249  N     0.87325   0.91010   0.61892   0.00000  Uiso   1.00
O1250  O     0.90266   0.90039   0.64859   0.00000  Uiso   1.00
O1251  O     0.86879   0.95273   0.60552   0.00000  Uiso   1.00
N1252  N     0.85728   0.75279   0.89052   0.00000  Uiso   1.00
O1253  O     0.82879   0.72546   0.87318   0.00000  Uiso   1.00
O1254  O     0.89322   0.73534   0.90247   0.00000  Uiso   1.00
N1255  N     0.79305   0.90989   0.88096   0.00000  Uiso   1.00
O1256  O     0.76375   0.90004   0.85123   0.00000  Uiso   1.00
O1257  O     0.79735   0.95255   0.89433   0.00000  Uiso   1.00
N1258  N     0.81002   0.75247   0.60953   0.00000  Uiso   1.00
O1259  O     0.83877   0.72563   0.62713   0.00000  Uiso   1.00
O1260  O     0.77435   0.73442   0.59739   0.00000  Uiso   1.00
loop_
_geom_bond_atom_site_label_1
_geom_bond_atom_site_label_2
_geom_bond_distance
_geom_bond_site_symmetry_2
_ccdc_geom_bond_type
O1     Cu15    1.964   .     S
O1     C7      1.299   .     A
O2     Cu16    1.964   .     S
O2     C8      1.300   .     A
O3     C8      1.299   .     A
O3     Cu15    1.964   .     S
O4     Cu16    1.964   .     S
O4     C7      1.300   .     A
N5     C20     1.375   .     A
N5     Cu15    2.034   .     S
N5     C18     1.375   .     A
N6     Cu16    2.034   .     S
N6     C19     1.379   .     A
N6     C17     1.379   .     A
C7     C46     1.451   .     S
C8     C45     1.451   .     S
O9     Cu15    1.967   .     S
O9     C13     1.307   .     A
O10    Cu16    1.967   .     S
O10    C14     1.306   .     A
O11    C14     1.307   .     A
O11    Cu15    1.967   .     S
O12    Cu16    1.967   .     S
O12    C13     1.306   .     A
C13    C37     1.481   .     S
C14    C38     1.481   .     S
Cu15   Cu16    2.706   .     S
C17    C47     1.484   .     S
C17    C440    1.431   1_545 S
C18    C50     1.484   .     S
C18    C229    1.431   .     S
C19    C53     1.484   .     S
C19    C438    1.431   1_545 S
C20    C56     1.484   .     S
C20    C227    1.431   .     S
C21    H39     1.082   .     S
C21    C46     1.400   .     A
C21    C163    1.382   1_455 S
C22    C45     1.402   .     A
C22    H40     1.083   .     S
C22    C94     1.384   .     S
C23    C45     1.400   .     A
C23    H41     1.082   .     S
C23    C91     1.382   .     S
C24    C46     1.402   .     A
C24    H42     1.083   .     S
C24    C162    1.384   1_455 S
C25    C43     1.395   .     A
C25    H29     1.084   .     S
C25    C33     1.400   .     A
C26    H30     1.084   .     S
C26    C44     1.394   .     A
C26    C34     1.388   .     A
C27    C44     1.395   .     A
C27    H31     1.084   .     S
C27    C35     1.400   .     A
C28    C43     1.394   .     A
C28    C36     1.388   .     A
C28    H32     1.084   .     S
C33    C37     1.425   .     A
C33    N59     1.438   .     S
C34    N62     1.431   .     S
C34    C38     1.420   .     A
C35    N65     1.437   .     S
C35    C38     1.425   .     A
C36    N68     1.431   .     S
C36    C37     1.420   .     A
C43    C674    1.465   1_554 S
C44    C673    1.465   .     S
C47    H48     1.074   .     S
C47    O49     1.221   .     D
C50    O52     1.221   .     D
C50    H51     1.075   .     S
C53    O55     1.221   .     D
C53    H54     1.074   .     S
C56    H57     1.075   .     S
C56    O58     1.221   .     D
N59    O60     1.302   .     A
N59    O61     1.301   .     A
N62    O63     1.301   .     A
N62    O64     1.301   .     A
N65    O66     1.302   .     A
N65    O67     1.301   .     A
N68    O70     1.302   .     A
N68    O69     1.302   .     A
O71    Cu85    1.964   .     S
O71    C77     1.299   .     A
O72    Cu86    1.964   .     S
O72    C78     1.300   .     A
O73    C78     1.299   .     A
O73    Cu85    1.964   .     S
O74    Cu86    1.964   .     S
O74    C77     1.300   .     A
N75    C90     1.375   .     A
N75    Cu85    2.034   .     S
N75    C88     1.375   .     A
N76    Cu86    2.034   .     S
N76    C89     1.379   .     A
N76    C87     1.379   .     A
C77    C116    1.451   .     S
C78    C115    1.451   .     S
O79    Cu85    1.967   .     S
O79    C83     1.307   .     A
O80    Cu86    1.967   .     S
O80    C84     1.306   .     A
O81    C84     1.307   .     A
O81    Cu85    1.967   .     S
O82    Cu86    1.967   .     S
O82    C83     1.306   .     A
C83    C107    1.481   .     S
C84    C108    1.481   .     S
Cu85   Cu86    2.706   .     S
C87    C117    1.484   .     S
C87    C510    1.431   1_545 S
C88    C120    1.484   .     S
C88    C299    1.431   .     S
C89    C123    1.484   .     S
C89    C508    1.431   1_545 S
C90    C126    1.484   .     S
C90    C297    1.431   .     S
C91    H109    1.082   .     S
C91    C116    1.400   .     A
C92    C115    1.402   .     A
C92    H110    1.083   .     S
C92    C164    1.384   .     S
C93    C115    1.400   .     A
C93    H111    1.082   .     S
C93    C161    1.382   .     S
C94    C116    1.402   .     A
C94    H112    1.083   .     S
C95    C113    1.395   .     A
C95    H99     1.084   .     S
C95    C103    1.400   .     A
C96    H100    1.084   .     S
C96    C114    1.394   .     A
C96    C104    1.388   .     A
C97    C114    1.395   .     A
C97    H101    1.084   .     S
C97    C105    1.400   .     A
C98    C113    1.394   .     A
C98    C106    1.388   .     A
C98    H102    1.084   .     S
C103   C107    1.425   .     A
C103   N129    1.438   .     S
C104   N132    1.431   .     S
C104   C108    1.420   .     A
C105   N135    1.437   .     S
C105   C108    1.425   .     A
C106   N138    1.431   .     S
C106   C107    1.420   .     A
C113   C744    1.465   1_554 S
C114   C743    1.465   .     S
C117   H118    1.074   .     S
C117   O119    1.221   .     D
C120   O122    1.221   .     D
C120   H121    1.075   .     S
C123   O125    1.221   .     D
C123   H124    1.074   .     S
C126   H127    1.075   .     S
C126   O128    1.221   .     D
N129   O130    1.302   .     A
N129   O131    1.301   .     A
N132   O133    1.301   .     A
N132   O134    1.301   .     A
N135   O136    1.302   .     A
N135   O137    1.301   .     A
N138   O140    1.302   .     A
N138   O139    1.302   .     A
O141   Cu155   1.964   .     S
O141   C147    1.299   .     A
O142   Cu156   1.964   .     S
O142   C148    1.300   .     A
O143   C148    1.299   .     A
O143   Cu155   1.964   .     S
O144   Cu156   1.964   .     S
O144   C147    1.300   .     A
N145   C160    1.375   .     A
N145   Cu155   2.034   .     S
N145   C158    1.375   .     A
N146   Cu156   2.034   .     S
N146   C159    1.379   .     A
N146   C157    1.379   .     A
C147   C186    1.451   .     S
C148   C185    1.451   .     S
O149   Cu155   1.967   .     S
O149   C153    1.307   .     A
O150   Cu156   1.967   .     S
O150   C154    1.306   .     A
O151   C154    1.307   .     A
O151   Cu155   1.967   .     S
O152   Cu156   1.967   .     S
O152   C153    1.306   .     A
C153   C177    1.481   .     S
C154   C178    1.481   .     S
Cu155  Cu156   2.706   .     S
C157   C187    1.484   .     S
C157   C580    1.431   1_545 S
C158   C190    1.484   .     S
C158   C369    1.431   .     S
C159   C193    1.484   .     S
C159   C578    1.431   1_545 S
C160   C196    1.484   .     S
C160   C367    1.431   .     S
C161   H179    1.082   .     S
C161   C186    1.400   .     A
C162   C185    1.402   .     A
C162   H180    1.083   .     S
C162   C24     1.384   1_655 S
C163   C185    1.400   .     A
C163   H181    1.082   .     S
C163   C21     1.382   1_655 S
C164   C186    1.402   .     A
C164   H182    1.083   .     S
C165   C183    1.395   .     A
C165   H169    1.084   .     S
C165   C173    1.400   .     A
C166   H170    1.084   .     S
C166   C184    1.394   .     A
C166   C174    1.388   .     A
C167   C184    1.395   .     A
C167   H171    1.084   .     S
C167   C175    1.400   .     A
C168   C183    1.394   .     A
C168   C176    1.388   .     A
C168   H172    1.084   .     S
C173   C177    1.425   .     A
C173   N199    1.438   .     S
C174   N202    1.431   .     S
C174   C178    1.420   .     A
C175   N205    1.437   .     S
C175   C178    1.425   .     A
C176   N208    1.431   .     S
C176   C177    1.420   .     A
C183   C814    1.465   1_554 S
C184   C813    1.465   .     S
C187   H188    1.074   .     S
C187   O189    1.221   .     D
C190   O192    1.221   .     D
C190   H191    1.075   .     S
C193   O195    1.221   .     D
C193   H194    1.074   .     S
C196   H197    1.075   .     S
C196   O198    1.221   .     D
N199   O200    1.302   .     A
N199   O201    1.301   .     A
N202   O203    1.301   .     A
N202   O204    1.301   .     A
N205   O206    1.302   .     A
N205   O207    1.301   .     A
N208   O210    1.302   .     A
N208   O209    1.302   .     A
O211   Cu225   1.964   .     S
O211   C217    1.299   .     A
O212   Cu226   1.964   .     S
O212   C218    1.300   .     A
O213   C218    1.299   .     A
O213   Cu225   1.964   .     S
O214   Cu226   1.964   .     S
O214   C217    1.300   .     A
N215   C230    1.375   .     A
N215   Cu225   2.034   .     S
N215   C228    1.375   .     A
N216   Cu226   2.034   .     S
N216   C229    1.379   .     A
N216   C227    1.379   .     A
C217   C256    1.451   .     S
C218   C255    1.451   .     S
O219   Cu225   1.967   .     S
O219   C223    1.307   .     A
O220   Cu226   1.967   .     S
O220   C224    1.306   .     A
O221   C224    1.307   .     A
O221   Cu225   1.967   .     S
O222   Cu226   1.967   .     S
O222   C223    1.306   .     A
C223   C247    1.481   .     S
C224   C248    1.481   .     S
Cu225  Cu226   2.706   .     S
C227   C257    1.484   .     S
C228   C260    1.484   .     S
C228   C439    1.431   .     S
C229   C263    1.484   .     S
C230   C266    1.484   .     S
C230   C437    1.431   .     S
C231   H249    1.082   .     S
C231   C256    1.400   .     A
C231   C373    1.382   1_455 S
C232   C255    1.402   .     A
C232   H250    1.083   .     S
C232   C304    1.384   .     S
C233   C255    1.400   .     A
C233   H251    1.082   .     S
C233   C301    1.382   .     S
C234   C256    1.402   .     A
C234   H252    1.083   .     S
C234   C372    1.384   1_455 S
C235   C253    1.395   .     A
C235   H239    1.084   .     S
C235   C243    1.400   .     A
C236   H240    1.084   .     S
C236   C254    1.394   .     A
C236   C244    1.388   .     A
C237   C254    1.395   .     A
C237   H241    1.084   .     S
C237   C245    1.400   .     A
C238   C253    1.394   .     A
C238   C246    1.388   .     A
C238   H242    1.084   .     S
C243   C247    1.425   .     A
C243   N269    1.438   .     S
C244   N272    1.431   .     S
C244   C248    1.420   .     A
C245   N275    1.437   .     S
C245   C248    1.425   .     A
C246   N278    1.431   .     S
C246   C247    1.420   .     A
C253   C884    1.465   1_554 S
C254   C883    1.465   .     S
C257   H258    1.074   .     S
C257   O259    1.221   .     D
C260   O262    1.221   .     D
C260   H261    1.075   .     S
C263   O265    1.221   .     D
C263   H264    1.074   .     S
C266   H267    1.075   .     S
C266   O268    1.221   .     D
N269   O270    1.302   .     A
N269   O271    1.301   .     A
N272   O273    1.301   .     A
N272   O274    1.301   .     A
N275   O276    1.302   .     A
N275   O277    1.301   .     A
N278   O280    1.302   .     A
N278   O279    1.302   .     A
O281   Cu295   1.964   .     S
O281   C287    1.299   .     A
O282   Cu296   1.964   .     S
O282   C288    1.300   .     A
O283   C288    1.299   .     A
O283   Cu295   1.964   .     S
O284   Cu296   1.964   .     S
O284   C287    1.300   .     A
N285   C300    1.375   .     A
N285   Cu295   2.034   .     S
N285   C298    1.375   .     A
N286   Cu296   2.034   .     S
N286   C299    1.379   .     A
N286   C297    1.379   .     A
C287   C326    1.451   .     S
C288   C325    1.451   .     S
O289   Cu295   1.967   .     S
O289   C293    1.307   .     A
O290   Cu296   1.967   .     S
O290   C294    1.306   .     A
O291   C294    1.307   .     A
O291   Cu295   1.967   .     S
O292   Cu296   1.967   .     S
O292   C293    1.306   .     A
C293   C317    1.481   .     S
C294   C318    1.481   .     S
Cu295  Cu296   2.706   .     S
C297   C327    1.484   .     S
C298   C330    1.484   .     S
C298   C509    1.431   .     S
C299   C333    1.484   .     S
C300   C336    1.484   .     S
C300   C507    1.431   .     S
C301   H319    1.082   .     S
C301   C326    1.400   .     A
C302   C325    1.402   .     A
C302   H320    1.083   .     S
C302   C374    1.384   .     S
C303   C325    1.400   .     A
C303   H321    1.082   .     S
C303   C371    1.382   .     S
C304   C326    1.402   .     A
C304   H322    1.083   .     S
C305   C323    1.395   .     A
C305   H309    1.084   .     S
C305   C313    1.400   .     A
C306   H310    1.084   .     S
C306   C324    1.394   .     A
C306   C314    1.388   .     A
C307   C324    1.395   .     A
C307   H311    1.084   .     S
C307   C315    1.400   .     A
C308   C323    1.394   .     A
C308   C316    1.388   .     A
C308   H312    1.084   .     S
C313   C317    1.425   .     A
C313   N339    1.438   .     S
C314   N342    1.431   .     S
C314   C318    1.420   .     A
C315   N345    1.437   .     S
C315   C318    1.425   .     A
C316   N348    1.431   .     S
C316   C317    1.420   .     A
C323   C954    1.465   1_554 S
C324   C953    1.465   .     S
C327   H328    1.074   .     S
C327   O329    1.221   .     D
C330   O332    1.221   .     D
C330   H331    1.075   .     S
C333   O335    1.221   .     D
C333   H334    1.074   .     S
C336   H337    1.075   .     S
C336   O338    1.221   .     D
N339   O340    1.302   .     A
N339   O341    1.301   .     A
N342   O343    1.301   .     A
N342   O344    1.301   .     A
N345   O346    1.302   .     A
N345   O347    1.301   .     A
N348   O350    1.302   .     A
N348   O349    1.302   .     A
O351   Cu365   1.964   .     S
O351   C357    1.299   .     A
O352   Cu366   1.964   .     S
O352   C358    1.300   .     A
O353   C358    1.299   .     A
O353   Cu365   1.964   .     S
O354   Cu366   1.964   .     S
O354   C357    1.300   .     A
N355   C370    1.375   .     A
N355   Cu365   2.034   .     S
N355   C368    1.375   .     A
N356   Cu366   2.034   .     S
N356   C369    1.379   .     A
N356   C367    1.379   .     A
C357   C396    1.451   .     S
C358   C395    1.451   .     S
O359   Cu365   1.967   .     S
O359   C363    1.307   .     A
O360   Cu366   1.967   .     S
O360   C364    1.306   .     A
O361   C364    1.307   .     A
O361   Cu365   1.967   .     S
O362   Cu366   1.967   .     S
O362   C363    1.306   .     A
C363   C387    1.481   .     S
C364   C388    1.481   .     S
Cu365  Cu366   2.706   .     S
C367   C397    1.484   .     S
C368   C400    1.484   .     S
C368   C579    1.431   .     S
C369   C403    1.484   .     S
C370   C406    1.484   .     S
C370   C577    1.431   .     S
C371   H389    1.082   .     S
C371   C396    1.400   .     A
C372   C395    1.402   .     A
C372   H390    1.083   .     S
C372   C234    1.384   1_655 S
C373   C395    1.400   .     A
C373   H391    1.082   .     S
C373   C231    1.382   1_655 S
C374   C396    1.402   .     A
C374   H392    1.083   .     S
C375   C393    1.395   .     A
C375   H379    1.084   .     S
C375   C383    1.400   .     A
C376   H380    1.084   .     S
C376   C394    1.394   .     A
C376   C384    1.388   .     A
C377   C394    1.395   .     A
C377   H381    1.084   .     S
C377   C385    1.400   .     A
C378   C393    1.394   .     A
C378   C386    1.388   .     A
C378   H382    1.084   .     S
C383   C387    1.425   .     A
C383   N409    1.438   .     S
C384   N412    1.431   .     S
C384   C388    1.420   .     A
C385   N415    1.437   .     S
C385   C388    1.425   .     A
C386   N418    1.431   .     S
C386   C387    1.420   .     A
C393   C1024   1.465   1_554 S
C394   C1023   1.465   .     S
C397   H398    1.074   .     S
C397   O399    1.221   .     D
C400   O402    1.221   .     D
C400   H401    1.075   .     S
C403   O405    1.221   .     D
C403   H404    1.074   .     S
C406   H407    1.075   .     S
C406   O408    1.221   .     D
N409   O410    1.302   .     A
N409   O411    1.301   .     A
N412   O413    1.301   .     A
N412   O414    1.301   .     A
N415   O416    1.302   .     A
N415   O417    1.301   .     A
N418   O420    1.302   .     A
N418   O419    1.302   .     A
O421   Cu435   1.964   .     S
O421   C427    1.299   .     A
O422   Cu436   1.964   .     S
O422   C428    1.300   .     A
O423   C428    1.299   .     A
O423   Cu435   1.964   .     S
O424   Cu436   1.964   .     S
O424   C427    1.300   .     A
N425   C440    1.375   .     A
N425   Cu435   2.034   .     S
N425   C438    1.375   .     A
N426   Cu436   2.034   .     S
N426   C439    1.379   .     A
N426   C437    1.379   .     A
C427   C466    1.451   .     S
C428   C465    1.451   .     S
O429   Cu435   1.967   .     S
O429   C433    1.307   .     A
O430   Cu436   1.967   .     S
O430   C434    1.306   .     A
O431   C434    1.307   .     A
O431   Cu435   1.967   .     S
O432   Cu436   1.967   .     S
O432   C433    1.306   .     A
C433   C457    1.481   .     S
C434   C458    1.481   .     S
Cu435  Cu436   2.706   .     S
C437   C467    1.484   .     S
C438   C470    1.484   .     S
C438   C19     1.431   1_565 S
C439   C473    1.484   .     S
C440   C476    1.484   .     S
C440   C17     1.431   1_565 S
C441   H459    1.082   .     S
C441   C466    1.400   .     A
C441   C583    1.382   1_455 S
C442   C465    1.402   .     A
C442   H460    1.083   .     S
C442   C514    1.384   .     S
C443   C465    1.400   .     A
C443   H461    1.082   .     S
C443   C511    1.382   .     S
C444   C466    1.402   .     A
C444   H462    1.083   .     S
C444   C582    1.384   1_455 S
C445   C463    1.395   .     A
C445   H449    1.084   .     S
C445   C453    1.400   .     A
C446   H450    1.084   .     S
C446   C464    1.394   .     A
C446   C454    1.388   .     A
C447   C464    1.395   .     A
C447   H451    1.084   .     S
C447   C455    1.400   .     A
C448   C463    1.394   .     A
C448   C456    1.388   .     A
C448   H452    1.084   .     S
C453   C457    1.425   .     A
C453   N479    1.438   .     S
C454   N482    1.431   .     S
C454   C458    1.420   .     A
C455   N485    1.437   .     S
C455   C458    1.425   .     A
C456   N488    1.431   .     S
C456   C457    1.420   .     A
C463   C1094   1.465   1_554 S
C464   C1093   1.465   .     S
C467   H468    1.074   .     S
C467   O469    1.221   .     D
C470   O472    1.221   .     D
C470   H471    1.075   .     S
C473   O475    1.221   .     D
C473   H474    1.074   .     S
C476   H477    1.075   .     S
C476   O478    1.221   .     D
N479   O480    1.302   .     A
N479   O481    1.301   .     A
N482   O483    1.301   .     A
N482   O484    1.301   .     A
N485   O486    1.302   .     A
N485   O487    1.301   .     A
N488   O490    1.302   .     A
N488   O489    1.302   .     A
O491   Cu505   1.964   .     S
O491   C497    1.299   .     A
O492   Cu506   1.964   .     S
O492   C498    1.300   .     A
O493   C498    1.299   .     A
O493   Cu505   1.964   .     S
O494   Cu506   1.964   .     S
O494   C497    1.300   .     A
N495   C510    1.375   .     A
N495   Cu505   2.034   .     S
N495   C508    1.375   .     A
N496   Cu506   2.034   .     S
N496   C509    1.379   .     A
N496   C507    1.379   .     A
C497   C536    1.451   .     S
C498   C535    1.451   .     S
O499   Cu505   1.967   .     S
O499   C503    1.307   .     A
O500   Cu506   1.967   .     S
O500   C504    1.306   .     A
O501   C504    1.307   .     A
O501   Cu505   1.967   .     S
O502   Cu506   1.967   .     S
O502   C503    1.306   .     A
C503   C527    1.481   .     S
C504   C528    1.481   .     S
Cu505  Cu506   2.706   .     S
C507   C537    1.484   .     S
C508   C540    1.484   .     S
C508   C89     1.431   1_565 S
C509   C543    1.484   .     S
C510   C546    1.484   .     S
C510   C87     1.431   1_565 S
C511   H529    1.082   .     S
C511   C536    1.400   .     A
C512   C535    1.402   .     A
C512   H530    1.083   .     S
C512   C584    1.384   .     S
C513   C535    1.400   .     A
C513   H531    1.082   .     S
C513   C581    1.382   .     S
C514   C536    1.402   .     A
C514   H532    1.083   .     S
C515   C533    1.395   .     A
C515   H519    1.084   .     S
C515   C523    1.400   .     A
C516   H520    1.084   .     S
C516   C534    1.394   .     A
C516   C524    1.388   .     A
C517   C534    1.395   .     A
C517   H521    1.084   .     S
C517   C525    1.400   .     A
C518   C533    1.394   .     A
C518   C526    1.388   .     A
C518   H522    1.084   .     S
C523   C527    1.425   .     A
C523   N549    1.438   .     S
C524   N552    1.431   .     S
C524   C528    1.420   .     A
C525   N555    1.437   .     S
C525   C528    1.425   .     A
C526   N558    1.431   .     S
C526   C527    1.420   .     A
C533   C1164   1.465   1_554 S
C534   C1163   1.465   .     S
C537   H538    1.074   .     S
C537   O539    1.221   .     D
C540   O542    1.221   .     D
C540   H541    1.075   .     S
C543   O545    1.221   .     D
C543   H544    1.074   .     S
C546   H547    1.075   .     S
C546   O548    1.221   .     D
N549   O550    1.302   .     A
N549   O551    1.301   .     A
N552   O553    1.301   .     A
N552   O554    1.301   .     A
N555   O556    1.302   .     A
N555   O557    1.301   .     A
N558   O560    1.302   .     A
N558   O559    1.302   .     A
O561   Cu575   1.964   .     S
O561   C567    1.299   .     A
O562   Cu576   1.964   .     S
O562   C568    1.300   .     A
O563   C568    1.299   .     A
O563   Cu575   1.964   .     S
O564   Cu576   1.964   .     S
O564   C567    1.300   .     A
N565   C580    1.375   .     A
N565   Cu575   2.034   .     S
N565   C578    1.375   .     A
N566   Cu576   2.034   .     S
N566   C579    1.379   .     A
N566   C577    1.379   .     A
C567   C606    1.451   .     S
C568   C605    1.451   .     S
O569   Cu575   1.967   .     S
O569   C573    1.307   .     A
O570   Cu576   1.967   .     S
O570   C574    1.306   .     A
O571   C574    1.307   .     A
O571   Cu575   1.967   .     S
O572   Cu576   1.967   .     S
O572   C573    1.306   .     A
C573   C597    1.481   .     S
C574   C598    1.481   .     S
Cu575  Cu576   2.706   .     S
C577   C607    1.484   .     S
C578   C610    1.484   .     S
C578   C159    1.431   1_565 S
C579   C613    1.484   .     S
C580   C616    1.484   .     S
C580   C157    1.431   1_565 S
C581   H599    1.082   .     S
C581   C606    1.400   .     A
C582   C605    1.402   .     A
C582   H600    1.083   .     S
C582   C444    1.384   1_655 S
C583   C605    1.400   .     A
C583   H601    1.082   .     S
C583   C441    1.382   1_655 S
C584   C606    1.402   .     A
C584   H602    1.083   .     S
C585   C603    1.395   .     A
C585   H589    1.084   .     S
C585   C593    1.400   .     A
C586   H590    1.084   .     S
C586   C604    1.394   .     A
C586   C594    1.388   .     A
C587   C604    1.395   .     A
C587   H591    1.084   .     S
C587   C595    1.400   .     A
C588   C603    1.394   .     A
C588   C596    1.388   .     A
C588   H592    1.084   .     S
C593   C597    1.425   .     A
C593   N619    1.438   .     S
C594   N622    1.431   .     S
C594   C598    1.420   .     A
C595   N625    1.437   .     S
C595   C598    1.425   .     A
C596   N628    1.431   .     S
C596   C597    1.420   .     A
C603   C1234   1.465   1_554 S
C604   C1233   1.465   .     S
C607   H608    1.074   .     S
C607   O609    1.221   .     D
C610   O612    1.221   .     D
C610   H611    1.075   .     S
C613   O615    1.221   .     D
C613   H614    1.074   .     S
C616   H617    1.075   .     S
C616   O618    1.221   .     D
N619   O620    1.302   .     A
N619   O621    1.301   .     A
N622   O623    1.301   .     A
N622   O624    1.301   .     A
N625   O626    1.302   .     A
N625   O627    1.301   .     A
N628   O630    1.302   .     A
N628   O629    1.302   .     A
O631   Cu645   1.964   .     S
O631   C637    1.299   .     A
O632   Cu646   1.964   .     S
O632   C638    1.300   .     A
O633   C638    1.299   .     A
O633   Cu645   1.964   .     S
O634   Cu646   1.964   .     S
O634   C637    1.300   .     A
N635   C650    1.375   .     A
N635   Cu645   2.034   .     S
N635   C648    1.375   .     A
N636   Cu646   2.034   .     S
N636   C649    1.379   .     A
N636   C647    1.379   .     A
C637   C676    1.451   .     S
C638   C675    1.451   .     S
O639   Cu645   1.967   .     S
O639   C643    1.307   .     A
O640   Cu646   1.967   .     S
O640   C644    1.306   .     A
O641   C644    1.307   .     A
O641   Cu645   1.967   .     S
O642   Cu646   1.967   .     S
O642   C643    1.306   .     A
C643   C667    1.481   .     S
C644   C668    1.481   .     S
Cu645  Cu646   2.706   .     S
C647   C677    1.484   .     S
C647   C1070   1.431   1_545 S
C648   C680    1.484   .     S
C648   C859    1.431   .     S
C649   C683    1.484   .     S
C649   C1068   1.431   1_545 S
C650   C686    1.484   .     S
C650   C857    1.431   .     S
C651   H669    1.082   .     S
C651   C676    1.400   .     A
C651   C793    1.382   1_455 S
C652   C675    1.402   .     A
C652   H670    1.083   .     S
C652   C724    1.384   .     S
C653   C675    1.400   .     A
C653   H671    1.082   .     S
C653   C721    1.382   .     S
C654   C676    1.402   .     A
C654   H672    1.083   .     S
C654   C792    1.384   1_455 S
C655   C673    1.395   .     A
C655   H659    1.084   .     S
C655   C663    1.400   .     A
C656   H660    1.084   .     S
C656   C674    1.394   .     A
C656   C664    1.388   .     A
C657   C674    1.395   .     A
C657   H661    1.084   .     S
C657   C665    1.400   .     A
C658   C673    1.394   .     A
C658   C666    1.388   .     A
C658   H662    1.084   .     S
C663   C667    1.425   .     A
C663   N689    1.438   .     S
C664   N692    1.431   .     S
C664   C668    1.420   .     A
C665   N695    1.437   .     S
C665   C668    1.425   .     A
C666   N698    1.431   .     S
C666   C667    1.420   .     A
C674   C43     1.465   1_556 S
C677   H678    1.074   .     S
C677   O679    1.221   .     D
C680   O682    1.221   .     D
C680   H681    1.075   .     S
C683   O685    1.221   .     D
C683   H684    1.074   .     S
C686   H687    1.075   .     S
C686   O688    1.221   .     D
N689   O690    1.302   .     A
N689   O691    1.301   .     A
N692   O693    1.301   .     A
N692   O694    1.301   .     A
N695   O696    1.302   .     A
N695   O697    1.301   .     A
N698   O700    1.302   .     A
N698   O699    1.302   .     A
O701   Cu715   1.964   .     S
O701   C707    1.299   .     A
O702   Cu716   1.964   .     S
O702   C708    1.300   .     A
O703   C708    1.299   .     A
O703   Cu715   1.964   .     S
O704   Cu716   1.964   .     S
O704   C707    1.300   .     A
N705   C720    1.375   .     A
N705   Cu715   2.034   .     S
N705   C718    1.375   .     A
N706   Cu716   2.034   .     S
N706   C719    1.379   .     A
N706   C717    1.379   .     A
C707   C746    1.451   .     S
C708   C745    1.451   .     S
O709   Cu715   1.967   .     S
O709   C713    1.307   .     A
O710   Cu716   1.967   .     S
O710   C714    1.306   .     A
O711   C714    1.307   .     A
O711   Cu715   1.967   .     S
O712   Cu716   1.967   .     S
O712   C713    1.306   .     A
C713   C737    1.481   .     S
C714   C738    1.481   .     S
Cu715  Cu716   2.706   .     S
C717   C747    1.484   .     S
C717   C1140   1.431   1_545 S
C718   C750    1.484   .     S
C718   C929    1.431   .     S
C719   C753    1.484   .     S
C719   C1138   1.431   1_545 S
C720   C756    1.484   .     S
C720   C927    1.431   .     S
C721   H739    1.082   .     S
C721   C746    1.400   .     A
C722   C745    1.402   .     A
C722   H740    1.083   .     S
C722   C794    1.384   .     S
C723   C745    1.400   .     A
C723   H741    1.082   .     S
C723   C791    1.382   .     S
C724   C746    1.402   .     A
C724   H742    1.083   .     S
C725   C743    1.395   .     A
C725   H729    1.084   .     S
C725   C733    1.400   .     A
C726   H730    1.084   .     S
C726   C744    1.394   .     A
C726   C734    1.388   .     A
C727   C744    1.395   .     A
C727   H731    1.084   .     S
C727   C735    1.400   .     A
C728   C743    1.394   .     A
C728   C736    1.388   .     A
C728   H732    1.084   .     S
C733   C737    1.425   .     A
C733   N759    1.438   .     S
C734   N762    1.431   .     S
C734   C738    1.420   .     A
C735   N765    1.437   .     S
C735   C738    1.425   .     A
C736   N768    1.431   .     S
C736   C737    1.420   .     A
C744   C113    1.465   1_556 S
C747   H748    1.074   .     S
C747   O749    1.221   .     D
C750   O752    1.221   .     D
C750   H751    1.075   .     S
C753   O755    1.221   .     D
C753   H754    1.074   .     S
C756   H757    1.075   .     S
C756   O758    1.221   .     D
N759   O760    1.302   .     A
N759   O761    1.301   .     A
N762   O763    1.301   .     A
N762   O764    1.301   .     A
N765   O766    1.302   .     A
N765   O767    1.301   .     A
N768   O770    1.302   .     A
N768   O769    1.302   .     A
O771   Cu785   1.964   .     S
O771   C777    1.299   .     A
O772   Cu786   1.964   .     S
O772   C778    1.300   .     A
O773   C778    1.299   .     A
O773   Cu785   1.964   .     S
O774   Cu786   1.964   .     S
O774   C777    1.300   .     A
N775   C790    1.375   .     A
N775   Cu785   2.034   .     S
N775   C788    1.375   .     A
N776   Cu786   2.034   .     S
N776   C789    1.379   .     A
N776   C787    1.379   .     A
C777   C816    1.451   .     S
C778   C815    1.451   .     S
O779   Cu785   1.967   .     S
O779   C783    1.307   .     A
O780   Cu786   1.967   .     S
O780   C784    1.306   .     A
O781   C784    1.307   .     A
O781   Cu785   1.967   .     S
O782   Cu786   1.967   .     S
O782   C783    1.306   .     A
C783   C807    1.481   .     S
C784   C808    1.481   .     S
Cu785  Cu786   2.706   .     S
C787   C817    1.484   .     S
C787   C1210   1.431   1_545 S
C788   C820    1.484   .     S
C788   C999    1.431   .     S
C789   C823    1.484   .     S
C789   C1208   1.431   1_545 S
C790   C826    1.484   .     S
C790   C997    1.431   .     S
C791   H809    1.082   .     S
C791   C816    1.400   .     A
C792   C815    1.402   .     A
C792   H810    1.083   .     S
C792   C654    1.384   1_655 S
C793   C815    1.400   .     A
C793   H811    1.082   .     S
C793   C651    1.382   1_655 S
C794   C816    1.402   .     A
C794   H812    1.083   .     S
C795   C813    1.395   .     A
C795   H799    1.084   .     S
C795   C803    1.400   .     A
C796   H800    1.084   .     S
C796   C814    1.394   .     A
C796   C804    1.388   .     A
C797   C814    1.395   .     A
C797   H801    1.084   .     S
C797   C805    1.400   .     A
C798   C813    1.394   .     A
C798   C806    1.388   .     A
C798   H802    1.084   .     S
C803   C807    1.425   .     A
C803   N829    1.438   .     S
C804   N832    1.431   .     S
C804   C808    1.420   .     A
C805   N835    1.437   .     S
C805   C808    1.425   .     A
C806   N838    1.431   .     S
C806   C807    1.420   .     A
C814   C183    1.465   1_556 S
C817   H818    1.074   .     S
C817   O819    1.221   .     D
C820   O822    1.221   .     D
C820   H821    1.075   .     S
C823   O825    1.221   .     D
C823   H824    1.074   .     S
C826   H827    1.075   .     S
C826   O828    1.221   .     D
N829   O830    1.302   .     A
N829   O831    1.301   .     A
N832   O833    1.301   .     A
N832   O834    1.301   .     A
N835   O836    1.302   .     A
N835   O837    1.301   .     A
N838   O840    1.302   .     A
N838   O839    1.302   .     A
O841   Cu855   1.964   .     S
O841   C847    1.299   .     A
O842   Cu856   1.964   .     S
O842   C848    1.300   .     A
O843   C848    1.299   .     A
O843   Cu855   1.964   .     S
O844   Cu856   1.964   .     S
O844   C847    1.300   .     A
N845   C860    1.375   .     A
N845   Cu855   2.034   .     S
N845   C858    1.375   .     A
N846   Cu856   2.034   .     S
N846   C859    1.379   .     A
N846   C857    1.379   .     A
C847   C886    1.451   .     S
C848   C885    1.451   .     S
O849   Cu855   1.967   .     S
O849   C853    1.307   .     A
O850   Cu856   1.967   .     S
O850   C854    1.306   .     A
O851   C854    1.307   .     A
O851   Cu855   1.967   .     S
O852   Cu856   1.967   .     S
O852   C853    1.306   .     A
C853   C877    1.481   .     S
C854   C878    1.481   .     S
Cu855  Cu856   2.706   .     S
C857   C887    1.484   .     S
C858   C890    1.484   .     S
C858   C1069   1.431   .     S
C859   C893    1.484   .     S
C860   C896    1.484   .     S
C860   C1067   1.431   .     S
C861   H879    1.082   .     S
C861   C886    1.400   .     A
C861   C1003   1.382   1_455 S
C862   C885    1.402   .     A
C862   H880    1.083   .     S
C862   C934    1.384   .     S
C863   C885    1.400   .     A
C863   H881    1.082   .     S
C863   C931    1.382   .     S
C864   C886    1.402   .     A
C864   H882    1.083   .     S
C864   C1002   1.384   1_455 S
C865   C883    1.395   .     A
C865   H869    1.084   .     S
C865   C873    1.400   .     A
C866   H870    1.084   .     S
C866   C884    1.394   .     A
C866   C874    1.388   .     A
C867   C884    1.395   .     A
C867   H871    1.084   .     S
C867   C875    1.400   .     A
C868   C883    1.394   .     A
C868   C876    1.388   .     A
C868   H872    1.084   .     S
C873   C877    1.425   .     A
C873   N899    1.438   .     S
C874   N902    1.431   .     S
C874   C878    1.420   .     A
C875   N905    1.437   .     S
C875   C878    1.425   .     A
C876   N908    1.431   .     S
C876   C877    1.420   .     A
C884   C253    1.465   1_556 S
C887   H888    1.074   .     S
C887   O889    1.221   .     D
C890   O892    1.221   .     D
C890   H891    1.075   .     S
C893   O895    1.221   .     D
C893   H894    1.074   .     S
C896   H897    1.075   .     S
C896   O898    1.221   .     D
N899   O900    1.302   .     A
N899   O901    1.301   .     A
N902   O903    1.301   .     A
N902   O904    1.301   .     A
N905   O906    1.302   .     A
N905   O907    1.301   .     A
N908   O910    1.302   .     A
N908   O909    1.302   .     A
O911   Cu925   1.964   .     S
O911   C917    1.299   .     A
O912   Cu926   1.964   .     S
O912   C918    1.300   .     A
O913   C918    1.299   .     A
O913   Cu925   1.964   .     S
O914   Cu926   1.964   .     S
O914   C917    1.300   .     A
N915   C930    1.375   .     A
N915   Cu925   2.034   .     S
N915   C928    1.375   .     A
N916   Cu926   2.034   .     S
N916   C929    1.379   .     A
N916   C927    1.379   .     A
C917   C956    1.451   .     S
C918   C955    1.451   .     S
O919   Cu925   1.967   .     S
O919   C923    1.307   .     A
O920   Cu926   1.967   .     S
O920   C924    1.306   .     A
O921   C924    1.307   .     A
O921   Cu925   1.967   .     S
O922   Cu926   1.967   .     S
O922   C923    1.306   .     A
C923   C947    1.481   .     S
C924   C948    1.481   .     S
Cu925  Cu926   2.706   .     S
C927   C957    1.484   .     S
C928   C960    1.484   .     S
C928   C1139   1.431   .     S
C929   C963    1.484   .     S
C930   C966    1.484   .     S
C930   C1137   1.431   .     S
C931   H949    1.082   .     S
C931   C956    1.400   .     A
C932   C955    1.402   .     A
C932   H950    1.083   .     S
C932   C1004   1.384   .     S
C933   C955    1.400   .     A
C933   H951    1.082   .     S
C933   C1001   1.382   .     S
C934   C956    1.402   .     A
C934   H952    1.083   .     S
C935   C953    1.395   .     A
C935   H939    1.084   .     S
C935   C943    1.400   .     A
C936   H940    1.084   .     S
C936   C954    1.394   .     A
C936   C944    1.388   .     A
C937   C954    1.395   .     A
C937   H941    1.084   .     S
C937   C945    1.400   .     A
C938   C953    1.394   .     A
C938   C946    1.388   .     A
C938   H942    1.084   .     S
C943   C947    1.425   .     A
C943   N969    1.438   .     S
C944   N972    1.431   .     S
C944   C948    1.420   .     A
C945   N975    1.437   .     S
C945   C948    1.425   .     A
C946   N978    1.431   .     S
C946   C947    1.420   .     A
C954   C323    1.465   1_556 S
C957   H958    1.074   .     S
C957   O959    1.221   .     D
C960   O962    1.221   .     D
C960   H961    1.075   .     S
C963   O965    1.221   .     D
C963   H964    1.074   .     S
C966   H967    1.075   .     S
C966   O968    1.221   .     D
N969   O970    1.302   .     A
N969   O971    1.301   .     A
N972   O973    1.301   .     A
N972   O974    1.301   .     A
N975   O976    1.302   .     A
N975   O977    1.301   .     A
N978   O980    1.302   .     A
N978   O979    1.302   .     A
O981   Cu995   1.964   .     S
O981   C987    1.299   .     A
O982   Cu996   1.964   .     S
O982   C988    1.300   .     A
O983   C988    1.299   .     A
O983   Cu995   1.964   .     S
O984   Cu996   1.964   .     S
O984   C987    1.300   .     A
N985   C1000   1.375   .     A
N985   Cu995   2.034   .     S
N985   C998    1.375   .     A
N986   Cu996   2.034   .     S
N986   C999    1.379   .     A
N986   C997    1.379   .     A
C987   C1026   1.451   .     S
C988   C1025   1.451   .     S
O989   Cu995   1.967   .     S
O989   C993    1.307   .     A
O990   Cu996   1.967   .     S
O990   C994    1.306   .     A
O991   C994    1.307   .     A
O991   Cu995   1.967   .     S
O992   Cu996   1.967   .     S
O992   C993    1.306   .     A
C993   C1017   1.481   .     S
C994   C1018   1.481   .     S
Cu995  Cu996   2.706   .     S
C997   C1027   1.484   .     S
C998   C1030   1.484   .     S
C998   C1209   1.431   .     S
C999   C1033   1.484   .     S
C1000  C1036   1.484   .     S
C1000  C1207   1.431   .     S
C1001  H1019   1.082   .     S
C1001  C1026   1.400   .     A
C1002  C1025   1.402   .     A
C1002  H1020   1.083   .     S
C1002  C864    1.384   1_655 S
C1003  C1025   1.400   .     A
C1003  H1021   1.082   .     S
C1003  C861    1.382   1_655 S
C1004  C1026   1.402   .     A
C1004  H1022   1.083   .     S
C1005  C1023   1.395   .     A
C1005  H1009   1.084   .     S
C1005  C1013   1.400   .     A
C1006  H1010   1.084   .     S
C1006  C1024   1.394   .     A
C1006  C1014   1.388   .     A
C1007  C1024   1.395   .     A
C1007  H1011   1.084   .     S
C1007  C1015   1.400   .     A
C1008  C1023   1.394   .     A
C1008  C1016   1.388   .     A
C1008  H1012   1.084   .     S
C1013  C1017   1.425   .     A
C1013  N1039   1.438   .     S
C1014  N1042   1.431   .     S
C1014  C1018   1.420   .     A
C1015  N1045   1.437   .     S
C1015  C1018   1.425   .     A
C1016  N1048   1.431   .     S
C1016  C1017   1.420   .     A
C1024  C393    1.465   1_556 S
C1027  H1028   1.074   .     S
C1027  O1029   1.221   .     D
C1030  O1032   1.221   .     D
C1030  H1031   1.075   .     S
C1033  O1035   1.221   .     D
C1033  H1034   1.074   .     S
C1036  H1037   1.075   .     S
C1036  O1038   1.221   .     D
N1039  O1040   1.302   .     A
N1039  O1041   1.301   .     A
N1042  O1043   1.301   .     A
N1042  O1044   1.301   .     A
N1045  O1046   1.302   .     A
N1045  O1047   1.301   .     A
N1048  O1050   1.302   .     A
N1048  O1049   1.302   .     A
O1051  Cu1065  1.964   .     S
O1051  C1057   1.299   .     A
O1052  Cu1066  1.964   .     S
O1052  C1058   1.300   .     A
O1053  C1058   1.299   .     A
O1053  Cu1065  1.964   .     S
O1054  Cu1066  1.964   .     S
O1054  C1057   1.300   .     A
N1055  C1070   1.375   .     A
N1055  Cu1065  2.034   .     S
N1055  C1068   1.375   .     A
N1056  Cu1066  2.034   .     S
N1056  C1069   1.379   .     A
N1056  C1067   1.379   .     A
C1057  C1096   1.451   .     S
C1058  C1095   1.451   .     S
O1059  Cu1065  1.967   .     S
O1059  C1063   1.307   .     A
O1060  Cu1066  1.967   .     S
O1060  C1064   1.306   .     A
O1061  C1064   1.307   .     A
O1061  Cu1065  1.967   .     S
O1062  Cu1066  1.967   .     S
O1062  C1063   1.306   .     A
C1063  C1087   1.481   .     S
C1064  C1088   1.481   .     S
Cu1065 Cu1066  2.706   .     S
C1067  C1097   1.484   .     S
C1068  C1100   1.484   .     S
C1068  C649    1.431   1_565 S
C1069  C1103   1.484   .     S
C1070  C1106   1.484   .     S
C1070  C647    1.431   1_565 S
C1071  H1089   1.082   .     S
C1071  C1096   1.400   .     A
C1071  C1213   1.382   1_455 S
C1072  C1095   1.402   .     A
C1072  H1090   1.083   .     S
C1072  C1144   1.384   .     S
C1073  C1095   1.400   .     A
C1073  H1091   1.082   .     S
C1073  C1141   1.382   .     S
C1074  C1096   1.402   .     A
C1074  H1092   1.083   .     S
C1074  C1212   1.384   1_455 S
C1075  C1093   1.395   .     A
C1075  H1079   1.084   .     S
C1075  C1083   1.400   .     A
C1076  H1080   1.084   .     S
C1076  C1094   1.394   .     A
C1076  C1084   1.388   .     A
C1077  C1094   1.395   .     A
C1077  H1081   1.084   .     S
C1077  C1085   1.400   .     A
C1078  C1093   1.394   .     A
C1078  C1086   1.388   .     A
C1078  H1082   1.084   .     S
C1083  C1087   1.425   .     A
C1083  N1109   1.438   .     S
C1084  N1112   1.431   .     S
C1084  C1088   1.420   .     A
C1085  N1115   1.437   .     S
C1085  C1088   1.425   .     A
C1086  N1118   1.431   .     S
C1086  C1087   1.420   .     A
C1094  C463    1.465   1_556 S
C1097  H1098   1.074   .     S
C1097  O1099   1.221   .     D
C1100  O1102   1.221   .     D
C1100  H1101   1.075   .     S
C1103  O1105   1.221   .     D
C1103  H1104   1.074   .     S
C1106  H1107   1.075   .     S
C1106  O1108   1.221   .     D
N1109  O1110   1.302   .     A
N1109  O1111   1.301   .     A
N1112  O1113   1.301   .     A
N1112  O1114   1.301   .     A
N1115  O1116   1.302   .     A
N1115  O1117   1.301   .     A
N1118  O1120   1.302   .     A
N1118  O1119   1.302   .     A
O1121  Cu1135  1.964   .     S
O1121  C1127   1.299   .     A
O1122  Cu1136  1.964   .     S
O1122  C1128   1.300   .     A
O1123  C1128   1.299   .     A
O1123  Cu1135  1.964   .     S
O1124  Cu1136  1.964   .     S
O1124  C1127   1.300   .     A
N1125  C1140   1.375   .     A
N1125  Cu1135  2.034   .     S
N1125  C1138   1.375   .     A
N1126  Cu1136  2.034   .     S
N1126  C1139   1.379   .     A
N1126  C1137   1.379   .     A
C1127  C1166   1.451   .     S
C1128  C1165   1.451   .     S
O1129  Cu1135  1.967   .     S
O1129  C1133   1.307   .     A
O1130  Cu1136  1.967   .     S
O1130  C1134   1.306   .     A
O1131  C1134   1.307   .     A
O1131  Cu1135  1.967   .     S
O1132  Cu1136  1.967   .     S
O1132  C1133   1.306   .     A
C1133  C1157   1.481   .     S
C1134  C1158   1.481   .     S
Cu1135 Cu1136  2.706   .     S
C1137  C1167   1.484   .     S
C1138  C1170   1.484   .     S
C1138  C719    1.431   1_565 S
C1139  C1173   1.484   .     S
C1140  C1176   1.484   .     S
C1140  C717    1.431   1_565 S
C1141  H1159   1.082   .     S
C1141  C1166   1.400   .     A
C1142  C1165   1.402   .     A
C1142  H1160   1.083   .     S
C1142  C1214   1.384   .     S
C1143  C1165   1.400   .     A
C1143  H1161   1.082   .     S
C1143  C1211   1.382   .     S
C1144  C1166   1.402   .     A
C1144  H1162   1.083   .     S
C1145  C1163   1.395   .     A
C1145  H1149   1.084   .     S
C1145  C1153   1.400   .     A
C1146  H1150   1.084   .     S
C1146  C1164   1.394   .     A
C1146  C1154   1.388   .     A
C1147  C1164   1.395   .     A
C1147  H1151   1.084   .     S
C1147  C1155   1.400   .     A
C1148  C1163   1.394   .     A
C1148  C1156   1.388   .     A
C1148  H1152   1.084   .     S
C1153  C1157   1.425   .     A
C1153  N1179   1.438   .     S
C1154  N1182   1.431   .     S
C1154  C1158   1.420   .     A
C1155  N1185   1.437   .     S
C1155  C1158   1.425   .     A
C1156  N1188   1.431   .     S
C1156  C1157   1.420   .     A
C1164  C533    1.465   1_556 S
C1167  H1168   1.074   .     S
C1167  O1169   1.221   .     D
C1170  O1172   1.221   .     D
C1170  H1171   1.075   .     S
C1173  O1175   1.221   .     D
C1173  H1174   1.074   .     S
C1176  H1177   1.075   .     S
C1176  O1178   1.221   .     D
N1179  O1180   1.302   .     A
N1179  O1181   1.301   .     A
N1182  O1183   1.301   .     A
N1182  O1184   1.301   .     A
N1185  O1186   1.302   .     A
N1185  O1187   1.301   .     A
N1188  O1190   1.302   .     A
N1188  O1189   1.302   .     A
O1191  Cu1205  1.964   .     S
O1191  C1197   1.299   .     A
O1192  Cu1206  1.964   .     S
O1192  C1198   1.300   .     A
O1193  C1198   1.299   .     A
O1193  Cu1205  1.964   .     S
O1194  Cu1206  1.964   .     S
O1194  C1197   1.300   .     A
N1195  C1210   1.375   .     A
N1195  Cu1205  2.034   .     S
N1195  C1208   1.375   .     A
N1196  Cu1206  2.034   .     S
N1196  C1209   1.379   .     A
N1196  C1207   1.379   .     A
C1197  C1236   1.451   .     S
C1198  C1235   1.451   .     S
O1199  Cu1205  1.967   .     S
O1199  C1203   1.307   .     A
O1200  Cu1206  1.967   .     S
O1200  C1204   1.306   .     A
O1201  C1204   1.307   .     A
O1201  Cu1205  1.967   .     S
O1202  Cu1206  1.967   .     S
O1202  C1203   1.306   .     A
C1203  C1227   1.481   .     S
C1204  C1228   1.481   .     S
Cu1205 Cu1206  2.706   .     S
C1207  C1237   1.484   .     S
C1208  C1240   1.484   .     S
C1208  C789    1.431   1_565 S
C1209  C1243   1.484   .     S
C1210  C1246   1.484   .     S
C1210  C787    1.431   1_565 S
C1211  H1229   1.082   .     S
C1211  C1236   1.400   .     A
C1212  C1235   1.402   .     A
C1212  H1230   1.083   .     S
C1212  C1074   1.384   1_655 S
C1213  C1235   1.400   .     A
C1213  H1231   1.082   .     S
C1213  C1071   1.382   1_655 S
C1214  C1236   1.402   .     A
C1214  H1232   1.083   .     S
C1215  C1233   1.395   .     A
C1215  H1219   1.084   .     S
C1215  C1223   1.400   .     A
C1216  H1220   1.084   .     S
C1216  C1234   1.394   .     A
C1216  C1224   1.388   .     A
C1217  C1234   1.395   .     A
C1217  H1221   1.084   .     S
C1217  C1225   1.400   .     A
C1218  C1233   1.394   .     A
C1218  C1226   1.388   .     A
C1218  H1222   1.084   .     S
C1223  C1227   1.425   .     A
C1223  N1249   1.438   .     S
C1224  N1252   1.431   .     S
C1224  C1228   1.420   .     A
C1225  N1255   1.437   .     S
C1225  C1228   1.425   .     A
C1226  N1258   1.431   .     S
C1226  C1227   1.420   .     A
C1234  C603    1.465   1_556 S
C1237  H1238   1.074   .     S
C1237  O1239   1.221   .     D
C1240  O1242   1.221   .     D
C1240  H1241   1.075   .     S
C1243  O1245   1.221   .     D
C1243  H1244   1.074   .     S
C1246  H1247   1.075   .     S
C1246  O1248   1.221   .     D
N1249  O1250   1.302   .     A
N1249  O1251   1.301   .     A
N1252  O1253   1.301   .     A
N1252  O1254   1.301   .     A
N1255  O1256   1.302   .     A
N1255  O1257   1.301   .     A
N1258  O1260   1.302   .     A
N1258  O1259   1.302   .     A
