data_str_m2_o1_o1_pcu_sym.18
_audit_creation_date              2020-01-03
_audit_creation_method            'Materials Studio'
_symmetry_space_group_name_H-M    'P1'
_symmetry_Int_Tables_number       1
_symmetry_cell_setting            triclinic
loop_
_symmetry_equiv_pos_as_xyz
  x,y,z
_cell_length_a                    31.9488
_cell_length_b                    29.2656
_cell_length_c                    29.0437
_cell_angle_alpha                 90.0000
_cell_angle_beta                  90.0000
_cell_angle_gamma                 90.0000
loop_
_atom_site_label
_atom_site_type_symbol
_atom_site_fract_x
_atom_site_fract_y
_atom_site_fract_z
_atom_site_U_iso_or_equiv
_atom_site_adp_type
_atom_site_occupancy
C1     C     0.05926   0.19051   0.16667   0.00000  Uiso   1.00
C2     C    -0.00000   0.29045   0.30862   0.00000  Uiso   1.00
C3     C     0.00000   0.29045   0.02471   0.00000  Uiso   1.00
C4     C     0.00000   0.20955   0.30862   0.00000  Uiso   1.00
C5     C     0.25000   0.45955   0.02471   0.00000  Uiso   1.00
C6     C     0.25000   0.04045   0.30862   0.00000  Uiso   1.00
C7     C     0.25000   0.04045   0.02471   0.00000  Uiso   1.00
C8     C     0.25000   0.45955   0.30862   0.00000  Uiso   1.00
C9     C     0.39102   0.14092   0.12484   0.00000  Uiso   1.00
C10    C     0.10898   0.35908   0.20849   0.00000  Uiso   1.00
C11    C     0.10898   0.35908   0.12484   0.00000  Uiso   1.00
C12    C     0.44074   0.30949   0.16667   0.00000  Uiso   1.00
C13    C     0.39102   0.14092   0.20849   0.00000  Uiso   1.00
C14    C     0.10898   0.14092   0.20849   0.00000  Uiso   1.00
C15    C     0.39102   0.35908   0.12484   0.00000  Uiso   1.00
C16    C     0.39102   0.35908   0.20849   0.00000  Uiso   1.00
C17    C     0.10898   0.14092   0.12484   0.00000  Uiso   1.00
C18    C     0.14102   0.39092   0.12484   0.00000  Uiso   1.00
C19    C     0.35898   0.10908   0.20849   0.00000  Uiso   1.00
C20    C     0.35898   0.10908   0.12484   0.00000  Uiso   1.00
C21    C     0.14102   0.39092   0.20849   0.00000  Uiso   1.00
C22    C     0.35898   0.39092   0.20849   0.00000  Uiso   1.00
C23    C     0.44074   0.19051   0.16667   0.00000  Uiso   1.00
C24    C     0.14102   0.10908   0.12484   0.00000  Uiso   1.00
C25    C     0.14102   0.10908   0.20849   0.00000  Uiso   1.00
C26    C     0.35898   0.39092   0.12484   0.00000  Uiso   1.00
C27    C     0.09281   0.34299   0.16667   0.00000  Uiso   1.00
C28    C     0.40719   0.15701   0.16667   0.00000  Uiso   1.00
C29    C     0.40719   0.34299   0.16667   0.00000  Uiso   1.00
C30    C     0.09281   0.15701   0.16667   0.00000  Uiso   1.00
C31    C     0.34281   0.09299   0.16667   0.00000  Uiso   1.00
C32    C     0.15719   0.40701   0.16667   0.00000  Uiso   1.00
C33    C     0.15719   0.09299   0.16667   0.00000  Uiso   1.00
C34    C     0.05926   0.30949   0.16667   0.00000  Uiso   1.00
C35    C     0.34281   0.40701   0.16667   0.00000  Uiso   1.00
C36    C    -0.00000   0.16333   0.04861   0.00000  Uiso   1.00
C37    C     0.00000   0.33667   0.28472   0.00000  Uiso   1.00
C38    C     0.00000   0.33667   0.04861   0.00000  Uiso   1.00
C39    C    -0.00000   0.16333   0.28472   0.00000  Uiso   1.00
C40    C     0.25000   0.41333   0.04861   0.00000  Uiso   1.00
C41    C     0.25000   0.08667   0.28472   0.00000  Uiso   1.00
C42    C     0.25000   0.08667   0.04861   0.00000  Uiso   1.00
C43    C     0.25000   0.41333   0.28472   0.00000  Uiso   1.00
C44    C     0.30926   0.44051   0.16667   0.00000  Uiso   1.00
C45    C     0.19074   0.05949   0.16667   0.00000  Uiso   1.00
C46    C     0.19074   0.44051   0.16667   0.00000  Uiso   1.00
C47    C     0.30926   0.05949   0.16667   0.00000  Uiso   1.00
C48    C     0.00000   0.20955   0.02471   0.00000  Uiso   1.00
Cu49   Cu    0.00000   0.25000   0.21355   0.00000  Uiso   1.00
Cu50   Cu    0.00000   0.25000   0.11978   0.00000  Uiso   1.00
Cu51   Cu    0.25000   0.00000   0.21355   0.00000  Uiso   1.00
Cu52   Cu    0.25000   0.00000   0.11978   0.00000  Uiso   1.00
H53    H     0.40301   0.15289   0.09211   0.00000  Uiso   1.00
H54    H     0.34699   0.09712   0.24122   0.00000  Uiso   1.00
H55    H     0.34699   0.09711   0.09211   0.00000  Uiso   1.00
H56    H     0.15301   0.40289   0.24122   0.00000  Uiso   1.00
H57    H     0.34699   0.40289   0.24122   0.00000  Uiso   1.00
H58    H     0.15301   0.09712   0.09211   0.00000  Uiso   1.00
H59    H     0.15301   0.09711   0.24122   0.00000  Uiso   1.00
H60    H     0.34699   0.40289   0.09211   0.00000  Uiso   1.00
H61    H     0.00000   0.16347   0.08586   0.00000  Uiso   1.00
H62    H     0.47161   0.14378   0.03885   0.00000  Uiso   1.00
H63    H     0.02839   0.14378   0.03885   0.00000  Uiso   1.00
H64    H     0.09699   0.34712   0.24122   0.00000  Uiso   1.00
H65    H    -0.00000   0.33653   0.24747   0.00000  Uiso   1.00
H66    H     0.47161   0.35622   0.29448   0.00000  Uiso   1.00
H67    H     0.02839   0.35622   0.29448   0.00000  Uiso   1.00
H68    H    -0.00000   0.33653   0.08586   0.00000  Uiso   1.00
H69    H     0.02839   0.35622   0.03885   0.00000  Uiso   1.00
H70    H     0.47161   0.35622   0.03885   0.00000  Uiso   1.00
H71    H     0.00000   0.16347   0.24747   0.00000  Uiso   1.00
H72    H     0.02839   0.14378   0.29448   0.00000  Uiso   1.00
H73    H     0.47161   0.14378   0.29448   0.00000  Uiso   1.00
H74    H     0.25000   0.41347   0.08586   0.00000  Uiso   1.00
H75    H     0.09699   0.34711   0.09211   0.00000  Uiso   1.00
H76    H     0.22161   0.39378   0.03885   0.00000  Uiso   1.00
H77    H     0.27839   0.39378   0.03885   0.00000  Uiso   1.00
H78    H     0.25000   0.08653   0.24747   0.00000  Uiso   1.00
H79    H     0.22161   0.10622   0.29448   0.00000  Uiso   1.00
H80    H     0.27839   0.10622   0.29448   0.00000  Uiso   1.00
H81    H     0.25000   0.08653   0.08586   0.00000  Uiso   1.00
H82    H     0.27839   0.10622   0.03885   0.00000  Uiso   1.00
H83    H     0.22161   0.10622   0.03885   0.00000  Uiso   1.00
H84    H     0.25000   0.41347   0.24747   0.00000  Uiso   1.00
H85    H     0.27839   0.39378   0.29448   0.00000  Uiso   1.00
H86    H     0.40301   0.15289   0.24122   0.00000  Uiso   1.00
H87    H     0.22161   0.39378   0.29448   0.00000  Uiso   1.00
H88    H     0.09699   0.15289   0.24122   0.00000  Uiso   1.00
H89    H     0.40301   0.34712   0.09211   0.00000  Uiso   1.00
H90    H     0.40301   0.34711   0.24122   0.00000  Uiso   1.00
H91    H     0.09699   0.15289   0.09211   0.00000  Uiso   1.00
H92    H     0.15301   0.40289   0.09211   0.00000  Uiso   1.00
N93    N     0.00000   0.25000   0.28402   0.00000  Uiso   1.00
N94    N     0.00000   0.25000   0.04931   0.00000  Uiso   1.00
N95    N     0.25000   0.00000   0.28402   0.00000  Uiso   1.00
N96    N     0.25000   0.00000   0.04931   0.00000  Uiso   1.00
O97    O     0.04508   0.20491   0.20625   0.00000  Uiso   1.00
O98    O     0.20491   0.04509   0.12709   0.00000  Uiso   1.00
O99    O     0.20491   0.04509   0.20625   0.00000  Uiso   1.00
O100   O     0.29508   0.45491   0.12709   0.00000  Uiso   1.00
O101   O     0.20491   0.45491   0.12709   0.00000  Uiso   1.00
O102   O     0.29508   0.04509   0.20625   0.00000  Uiso   1.00
O103   O     0.29508   0.04509   0.12709   0.00000  Uiso   1.00
O104   O     0.20491   0.45491   0.20625   0.00000  Uiso   1.00
O105   O     0.45491   0.29509   0.12709   0.00000  Uiso   1.00
O106   O     0.45491   0.29509   0.20625   0.00000  Uiso   1.00
O107   O     0.04508   0.20491   0.12709   0.00000  Uiso   1.00
O108   O     0.45491   0.20491   0.12709   0.00000  Uiso   1.00
O109   O     0.04508   0.29509   0.20625   0.00000  Uiso   1.00
O110   O     0.04508   0.29509   0.12709   0.00000  Uiso   1.00
O111   O     0.45491   0.20491   0.20625   0.00000  Uiso   1.00
O112   O     0.29508   0.45491   0.20625   0.00000  Uiso   1.00
C113   C     0.55926   0.19051   0.16667   0.00000  Uiso   1.00
C114   C     0.50000   0.29045   0.30862   0.00000  Uiso   1.00
C115   C     0.50000   0.29045   0.02471   0.00000  Uiso   1.00
C116   C     0.50000   0.20955   0.30862   0.00000  Uiso   1.00
C117   C     0.75000   0.45955   0.02471   0.00000  Uiso   1.00
C118   C     0.75000   0.04045   0.30862   0.00000  Uiso   1.00
C119   C     0.75000   0.04045   0.02471   0.00000  Uiso   1.00
C120   C     0.75000   0.45955   0.30862   0.00000  Uiso   1.00
C121   C     0.89102   0.14092   0.12484   0.00000  Uiso   1.00
C122   C     0.60898   0.35908   0.20849   0.00000  Uiso   1.00
C123   C     0.60898   0.35908   0.12484   0.00000  Uiso   1.00
C124   C     0.94074   0.30949   0.16667   0.00000  Uiso   1.00
C125   C     0.89102   0.14092   0.20849   0.00000  Uiso   1.00
C126   C     0.60898   0.14092   0.20849   0.00000  Uiso   1.00
C127   C     0.89102   0.35908   0.12484   0.00000  Uiso   1.00
C128   C     0.89102   0.35908   0.20849   0.00000  Uiso   1.00
C129   C     0.60898   0.14092   0.12484   0.00000  Uiso   1.00
C130   C     0.64102   0.39092   0.12484   0.00000  Uiso   1.00
C131   C     0.85898   0.10908   0.20849   0.00000  Uiso   1.00
C132   C     0.85898   0.10908   0.12484   0.00000  Uiso   1.00
C133   C     0.64102   0.39092   0.20849   0.00000  Uiso   1.00
C134   C     0.85898   0.39092   0.20849   0.00000  Uiso   1.00
C135   C     0.94074   0.19051   0.16667   0.00000  Uiso   1.00
C136   C     0.64102   0.10908   0.12484   0.00000  Uiso   1.00
C137   C     0.64102   0.10908   0.20849   0.00000  Uiso   1.00
C138   C     0.85898   0.39092   0.12484   0.00000  Uiso   1.00
C139   C     0.59281   0.34299   0.16667   0.00000  Uiso   1.00
C140   C     0.90719   0.15701   0.16667   0.00000  Uiso   1.00
C141   C     0.90719   0.34299   0.16667   0.00000  Uiso   1.00
C142   C     0.59281   0.15701   0.16667   0.00000  Uiso   1.00
C143   C     0.84281   0.09299   0.16667   0.00000  Uiso   1.00
C144   C     0.65719   0.40701   0.16667   0.00000  Uiso   1.00
C145   C     0.65719   0.09299   0.16667   0.00000  Uiso   1.00
C146   C     0.55926   0.30949   0.16667   0.00000  Uiso   1.00
C147   C     0.84281   0.40701   0.16667   0.00000  Uiso   1.00
C148   C     0.50000   0.16333   0.04861   0.00000  Uiso   1.00
C149   C     0.50000   0.33667   0.28472   0.00000  Uiso   1.00
C150   C     0.50000   0.33667   0.04861   0.00000  Uiso   1.00
C151   C     0.50000   0.16333   0.28472   0.00000  Uiso   1.00
C152   C     0.75000   0.41333   0.04861   0.00000  Uiso   1.00
C153   C     0.75000   0.08667   0.28472   0.00000  Uiso   1.00
C154   C     0.75000   0.08667   0.04861   0.00000  Uiso   1.00
C155   C     0.75000   0.41333   0.28472   0.00000  Uiso   1.00
C156   C     0.80926   0.44051   0.16667   0.00000  Uiso   1.00
C157   C     0.69074   0.05949   0.16667   0.00000  Uiso   1.00
C158   C     0.69074   0.44051   0.16667   0.00000  Uiso   1.00
C159   C     0.80926   0.05949   0.16667   0.00000  Uiso   1.00
C160   C     0.50000   0.20955   0.02471   0.00000  Uiso   1.00
Cu161  Cu    0.50000   0.25000   0.21355   0.00000  Uiso   1.00
Cu162  Cu    0.50000   0.25000   0.11978   0.00000  Uiso   1.00
Cu163  Cu    0.75000   0.00000   0.21355   0.00000  Uiso   1.00
Cu164  Cu    0.75000   0.00000   0.11978   0.00000  Uiso   1.00
H165   H     0.90301   0.15289   0.09211   0.00000  Uiso   1.00
H166   H     0.84699   0.09712   0.24122   0.00000  Uiso   1.00
H167   H     0.84699   0.09711   0.09211   0.00000  Uiso   1.00
H168   H     0.65301   0.40289   0.24122   0.00000  Uiso   1.00
H169   H     0.84699   0.40289   0.24122   0.00000  Uiso   1.00
H170   H     0.65301   0.09712   0.09211   0.00000  Uiso   1.00
H171   H     0.65301   0.09711   0.24122   0.00000  Uiso   1.00
H172   H     0.84699   0.40289   0.09211   0.00000  Uiso   1.00
H173   H     0.50000   0.16347   0.08586   0.00000  Uiso   1.00
H174   H     0.97161   0.14378   0.03885   0.00000  Uiso   1.00
H175   H     0.52839   0.14378   0.03885   0.00000  Uiso   1.00
H176   H     0.59699   0.34712   0.24122   0.00000  Uiso   1.00
H177   H     0.50000   0.33653   0.24747   0.00000  Uiso   1.00
H178   H     0.97161   0.35622   0.29448   0.00000  Uiso   1.00
H179   H     0.52839   0.35622   0.29448   0.00000  Uiso   1.00
H180   H     0.50000   0.33653   0.08586   0.00000  Uiso   1.00
H181   H     0.52839   0.35622   0.03885   0.00000  Uiso   1.00
H182   H     0.97161   0.35622   0.03885   0.00000  Uiso   1.00
H183   H     0.50000   0.16347   0.24747   0.00000  Uiso   1.00
H184   H     0.52839   0.14378   0.29448   0.00000  Uiso   1.00
H185   H     0.97161   0.14378   0.29448   0.00000  Uiso   1.00
H186   H     0.75000   0.41347   0.08586   0.00000  Uiso   1.00
H187   H     0.59699   0.34711   0.09211   0.00000  Uiso   1.00
H188   H     0.72161   0.39378   0.03885   0.00000  Uiso   1.00
H189   H     0.77839   0.39378   0.03885   0.00000  Uiso   1.00
H190   H     0.75000   0.08653   0.24747   0.00000  Uiso   1.00
H191   H     0.72161   0.10622   0.29448   0.00000  Uiso   1.00
H192   H     0.77839   0.10622   0.29448   0.00000  Uiso   1.00
H193   H     0.75000   0.08653   0.08586   0.00000  Uiso   1.00
H194   H     0.77839   0.10622   0.03885   0.00000  Uiso   1.00
H195   H     0.72161   0.10622   0.03885   0.00000  Uiso   1.00
H196   H     0.75000   0.41347   0.24747   0.00000  Uiso   1.00
H197   H     0.77839   0.39378   0.29448   0.00000  Uiso   1.00
H198   H     0.90301   0.15289   0.24122   0.00000  Uiso   1.00
H199   H     0.72161   0.39378   0.29448   0.00000  Uiso   1.00
H200   H     0.59699   0.15289   0.24122   0.00000  Uiso   1.00
H201   H     0.90301   0.34712   0.09211   0.00000  Uiso   1.00
H202   H     0.90301   0.34711   0.24122   0.00000  Uiso   1.00
H203   H     0.59699   0.15289   0.09211   0.00000  Uiso   1.00
H204   H     0.65301   0.40289   0.09211   0.00000  Uiso   1.00
N205   N     0.50000   0.25000   0.28402   0.00000  Uiso   1.00
N206   N     0.50000   0.25000   0.04931   0.00000  Uiso   1.00
N207   N     0.75000   0.00000   0.28402   0.00000  Uiso   1.00
N208   N     0.75000   0.00000   0.04931   0.00000  Uiso   1.00
O209   O     0.54508   0.20491   0.20625   0.00000  Uiso   1.00
O210   O     0.70491   0.04509   0.12709   0.00000  Uiso   1.00
O211   O     0.70491   0.04509   0.20625   0.00000  Uiso   1.00
O212   O     0.79508   0.45491   0.12709   0.00000  Uiso   1.00
O213   O     0.70491   0.45491   0.12709   0.00000  Uiso   1.00
O214   O     0.79508   0.04509   0.20625   0.00000  Uiso   1.00
O215   O     0.79508   0.04509   0.12709   0.00000  Uiso   1.00
O216   O     0.70491   0.45491   0.20625   0.00000  Uiso   1.00
O217   O     0.95491   0.29509   0.12709   0.00000  Uiso   1.00
O218   O     0.95491   0.29509   0.20625   0.00000  Uiso   1.00
O219   O     0.54508   0.20491   0.12709   0.00000  Uiso   1.00
O220   O     0.95491   0.20491   0.12709   0.00000  Uiso   1.00
O221   O     0.54508   0.29509   0.20625   0.00000  Uiso   1.00
O222   O     0.54508   0.29509   0.12709   0.00000  Uiso   1.00
O223   O     0.95491   0.20491   0.20625   0.00000  Uiso   1.00
O224   O     0.79508   0.45491   0.20625   0.00000  Uiso   1.00
C225   C     0.05926   0.69051   0.16667   0.00000  Uiso   1.00
C226   C    -0.00000   0.79045   0.30862   0.00000  Uiso   1.00
C227   C     0.00000   0.79045   0.02471   0.00000  Uiso   1.00
C228   C     0.00000   0.70955   0.30862   0.00000  Uiso   1.00
C229   C     0.25000   0.95955   0.02471   0.00000  Uiso   1.00
C230   C     0.25000   0.54045   0.30862   0.00000  Uiso   1.00
C231   C     0.25000   0.54045   0.02471   0.00000  Uiso   1.00
C232   C     0.25000   0.95955   0.30862   0.00000  Uiso   1.00
C233   C     0.39102   0.64092   0.12484   0.00000  Uiso   1.00
C234   C     0.10898   0.85908   0.20849   0.00000  Uiso   1.00
C235   C     0.10898   0.85908   0.12484   0.00000  Uiso   1.00
C236   C     0.44074   0.80949   0.16667   0.00000  Uiso   1.00
C237   C     0.39102   0.64092   0.20849   0.00000  Uiso   1.00
C238   C     0.10898   0.64092   0.20849   0.00000  Uiso   1.00
C239   C     0.39102   0.85908   0.12484   0.00000  Uiso   1.00
C240   C     0.39102   0.85908   0.20849   0.00000  Uiso   1.00
C241   C     0.10898   0.64092   0.12484   0.00000  Uiso   1.00
C242   C     0.14102   0.89092   0.12484   0.00000  Uiso   1.00
C243   C     0.35898   0.60908   0.20849   0.00000  Uiso   1.00
C244   C     0.35898   0.60908   0.12484   0.00000  Uiso   1.00
C245   C     0.14102   0.89092   0.20849   0.00000  Uiso   1.00
C246   C     0.35898   0.89092   0.20849   0.00000  Uiso   1.00
C247   C     0.44074   0.69051   0.16667   0.00000  Uiso   1.00
C248   C     0.14102   0.60908   0.12484   0.00000  Uiso   1.00
C249   C     0.14102   0.60908   0.20849   0.00000  Uiso   1.00
C250   C     0.35898   0.89092   0.12484   0.00000  Uiso   1.00
C251   C     0.09281   0.84299   0.16667   0.00000  Uiso   1.00
C252   C     0.40719   0.65701   0.16667   0.00000  Uiso   1.00
C253   C     0.40719   0.84299   0.16667   0.00000  Uiso   1.00
C254   C     0.09281   0.65701   0.16667   0.00000  Uiso   1.00
C255   C     0.34281   0.59299   0.16667   0.00000  Uiso   1.00
C256   C     0.15719   0.90701   0.16667   0.00000  Uiso   1.00
C257   C     0.15719   0.59299   0.16667   0.00000  Uiso   1.00
C258   C     0.05926   0.80949   0.16667   0.00000  Uiso   1.00
C259   C     0.34281   0.90701   0.16667   0.00000  Uiso   1.00
C260   C    -0.00000   0.66333   0.04861   0.00000  Uiso   1.00
C261   C     0.00000   0.83667   0.28472   0.00000  Uiso   1.00
C262   C     0.00000   0.83667   0.04861   0.00000  Uiso   1.00
C263   C    -0.00000   0.66333   0.28472   0.00000  Uiso   1.00
C264   C     0.25000   0.91333   0.04861   0.00000  Uiso   1.00
C265   C     0.25000   0.58667   0.28472   0.00000  Uiso   1.00
C266   C     0.25000   0.58667   0.04861   0.00000  Uiso   1.00
C267   C     0.25000   0.91333   0.28472   0.00000  Uiso   1.00
C268   C     0.30926   0.94051   0.16667   0.00000  Uiso   1.00
C269   C     0.19074   0.55949   0.16667   0.00000  Uiso   1.00
C270   C     0.19074   0.94051   0.16667   0.00000  Uiso   1.00
C271   C     0.30926   0.55949   0.16667   0.00000  Uiso   1.00
C272   C     0.00000   0.70955   0.02471   0.00000  Uiso   1.00
Cu273  Cu    0.00000   0.75000   0.21355   0.00000  Uiso   1.00
Cu274  Cu    0.00000   0.75000   0.11978   0.00000  Uiso   1.00
Cu275  Cu    0.25000   0.50000   0.21355   0.00000  Uiso   1.00
Cu276  Cu    0.25000   0.50000   0.11978   0.00000  Uiso   1.00
H277   H     0.40301   0.65289   0.09211   0.00000  Uiso   1.00
H278   H     0.34699   0.59712   0.24122   0.00000  Uiso   1.00
H279   H     0.34699   0.59711   0.09211   0.00000  Uiso   1.00
H280   H     0.15301   0.90289   0.24122   0.00000  Uiso   1.00
H281   H     0.34699   0.90289   0.24122   0.00000  Uiso   1.00
H282   H     0.15301   0.59712   0.09211   0.00000  Uiso   1.00
H283   H     0.15301   0.59711   0.24122   0.00000  Uiso   1.00
H284   H     0.34699   0.90289   0.09211   0.00000  Uiso   1.00
H285   H     0.00000   0.66347   0.08586   0.00000  Uiso   1.00
H286   H     0.47161   0.64378   0.03885   0.00000  Uiso   1.00
H287   H     0.02839   0.64378   0.03885   0.00000  Uiso   1.00
H288   H     0.09699   0.84712   0.24122   0.00000  Uiso   1.00
H289   H    -0.00000   0.83653   0.24747   0.00000  Uiso   1.00
H290   H     0.47161   0.85622   0.29448   0.00000  Uiso   1.00
H291   H     0.02839   0.85622   0.29448   0.00000  Uiso   1.00
H292   H    -0.00000   0.83653   0.08586   0.00000  Uiso   1.00
H293   H     0.02839   0.85622   0.03885   0.00000  Uiso   1.00
H294   H     0.47161   0.85622   0.03885   0.00000  Uiso   1.00
H295   H     0.00000   0.66347   0.24747   0.00000  Uiso   1.00
H296   H     0.02839   0.64378   0.29448   0.00000  Uiso   1.00
H297   H     0.47161   0.64378   0.29448   0.00000  Uiso   1.00
H298   H     0.25000   0.91347   0.08586   0.00000  Uiso   1.00
H299   H     0.09699   0.84711   0.09211   0.00000  Uiso   1.00
H300   H     0.22161   0.89378   0.03885   0.00000  Uiso   1.00
H301   H     0.27839   0.89378   0.03885   0.00000  Uiso   1.00
H302   H     0.25000   0.58653   0.24747   0.00000  Uiso   1.00
H303   H     0.22161   0.60622   0.29448   0.00000  Uiso   1.00
H304   H     0.27839   0.60622   0.29448   0.00000  Uiso   1.00
H305   H     0.25000   0.58653   0.08586   0.00000  Uiso   1.00
H306   H     0.27839   0.60622   0.03885   0.00000  Uiso   1.00
H307   H     0.22161   0.60622   0.03885   0.00000  Uiso   1.00
H308   H     0.25000   0.91347   0.24747   0.00000  Uiso   1.00
H309   H     0.27839   0.89378   0.29448   0.00000  Uiso   1.00
H310   H     0.40301   0.65289   0.24122   0.00000  Uiso   1.00
H311   H     0.22161   0.89378   0.29448   0.00000  Uiso   1.00
H312   H     0.09699   0.65289   0.24122   0.00000  Uiso   1.00
H313   H     0.40301   0.84712   0.09211   0.00000  Uiso   1.00
H314   H     0.40301   0.84711   0.24122   0.00000  Uiso   1.00
H315   H     0.09699   0.65289   0.09211   0.00000  Uiso   1.00
H316   H     0.15301   0.90289   0.09211   0.00000  Uiso   1.00
N317   N     0.00000   0.75000   0.28402   0.00000  Uiso   1.00
N318   N     0.00000   0.75000   0.04931   0.00000  Uiso   1.00
N319   N     0.25000   0.50000   0.28402   0.00000  Uiso   1.00
N320   N     0.25000   0.50000   0.04931   0.00000  Uiso   1.00
O321   O     0.04508   0.70491   0.20625   0.00000  Uiso   1.00
O322   O     0.20491   0.54509   0.12709   0.00000  Uiso   1.00
O323   O     0.20491   0.54509   0.20625   0.00000  Uiso   1.00
O324   O     0.29508   0.95491   0.12709   0.00000  Uiso   1.00
O325   O     0.20491   0.95491   0.12709   0.00000  Uiso   1.00
O326   O     0.29508   0.54509   0.20625   0.00000  Uiso   1.00
O327   O     0.29508   0.54509   0.12709   0.00000  Uiso   1.00
O328   O     0.20491   0.95491   0.20625   0.00000  Uiso   1.00
O329   O     0.45491   0.79509   0.12709   0.00000  Uiso   1.00
O330   O     0.45491   0.79509   0.20625   0.00000  Uiso   1.00
O331   O     0.04508   0.70491   0.12709   0.00000  Uiso   1.00
O332   O     0.45491   0.70491   0.12709   0.00000  Uiso   1.00
O333   O     0.04508   0.79509   0.20625   0.00000  Uiso   1.00
O334   O     0.04508   0.79509   0.12709   0.00000  Uiso   1.00
O335   O     0.45491   0.70491   0.20625   0.00000  Uiso   1.00
O336   O     0.29508   0.95491   0.20625   0.00000  Uiso   1.00
C337   C     0.55926   0.69051   0.16667   0.00000  Uiso   1.00
C338   C     0.50000   0.79045   0.30862   0.00000  Uiso   1.00
C339   C     0.50000   0.79045   0.02471   0.00000  Uiso   1.00
C340   C     0.50000   0.70955   0.30862   0.00000  Uiso   1.00
C341   C     0.75000   0.95955   0.02471   0.00000  Uiso   1.00
C342   C     0.75000   0.54045   0.30862   0.00000  Uiso   1.00
C343   C     0.75000   0.54045   0.02471   0.00000  Uiso   1.00
C344   C     0.75000   0.95955   0.30862   0.00000  Uiso   1.00
C345   C     0.89102   0.64092   0.12484   0.00000  Uiso   1.00
C346   C     0.60898   0.85908   0.20849   0.00000  Uiso   1.00
C347   C     0.60898   0.85908   0.12484   0.00000  Uiso   1.00
C348   C     0.94074   0.80949   0.16667   0.00000  Uiso   1.00
C349   C     0.89102   0.64092   0.20849   0.00000  Uiso   1.00
C350   C     0.60898   0.64092   0.20849   0.00000  Uiso   1.00
C351   C     0.89102   0.85908   0.12484   0.00000  Uiso   1.00
C352   C     0.89102   0.85908   0.20849   0.00000  Uiso   1.00
C353   C     0.60898   0.64092   0.12484   0.00000  Uiso   1.00
C354   C     0.64102   0.89092   0.12484   0.00000  Uiso   1.00
C355   C     0.85898   0.60908   0.20849   0.00000  Uiso   1.00
C356   C     0.85898   0.60908   0.12484   0.00000  Uiso   1.00
C357   C     0.64102   0.89092   0.20849   0.00000  Uiso   1.00
C358   C     0.85898   0.89092   0.20849   0.00000  Uiso   1.00
C359   C     0.94074   0.69051   0.16667   0.00000  Uiso   1.00
C360   C     0.64102   0.60908   0.12484   0.00000  Uiso   1.00
C361   C     0.64102   0.60908   0.20849   0.00000  Uiso   1.00
C362   C     0.85898   0.89092   0.12484   0.00000  Uiso   1.00
C363   C     0.59281   0.84299   0.16667   0.00000  Uiso   1.00
C364   C     0.90719   0.65701   0.16667   0.00000  Uiso   1.00
C365   C     0.90719   0.84299   0.16667   0.00000  Uiso   1.00
C366   C     0.59281   0.65701   0.16667   0.00000  Uiso   1.00
C367   C     0.84281   0.59299   0.16667   0.00000  Uiso   1.00
C368   C     0.65719   0.90701   0.16667   0.00000  Uiso   1.00
C369   C     0.65719   0.59299   0.16667   0.00000  Uiso   1.00
C370   C     0.55926   0.80949   0.16667   0.00000  Uiso   1.00
C371   C     0.84281   0.90701   0.16667   0.00000  Uiso   1.00
C372   C     0.50000   0.66333   0.04861   0.00000  Uiso   1.00
C373   C     0.50000   0.83667   0.28472   0.00000  Uiso   1.00
C374   C     0.50000   0.83667   0.04861   0.00000  Uiso   1.00
C375   C     0.50000   0.66333   0.28472   0.00000  Uiso   1.00
C376   C     0.75000   0.91333   0.04861   0.00000  Uiso   1.00
C377   C     0.75000   0.58667   0.28472   0.00000  Uiso   1.00
C378   C     0.75000   0.58667   0.04861   0.00000  Uiso   1.00
C379   C     0.75000   0.91333   0.28472   0.00000  Uiso   1.00
C380   C     0.80926   0.94051   0.16667   0.00000  Uiso   1.00
C381   C     0.69074   0.55949   0.16667   0.00000  Uiso   1.00
C382   C     0.69074   0.94051   0.16667   0.00000  Uiso   1.00
C383   C     0.80926   0.55949   0.16667   0.00000  Uiso   1.00
C384   C     0.50000   0.70955   0.02471   0.00000  Uiso   1.00
Cu385  Cu    0.50000   0.75000   0.21355   0.00000  Uiso   1.00
Cu386  Cu    0.50000   0.75000   0.11978   0.00000  Uiso   1.00
Cu387  Cu    0.75000   0.50000   0.21355   0.00000  Uiso   1.00
Cu388  Cu    0.75000   0.50000   0.11978   0.00000  Uiso   1.00
H389   H     0.90301   0.65289   0.09211   0.00000  Uiso   1.00
H390   H     0.84699   0.59712   0.24122   0.00000  Uiso   1.00
H391   H     0.84699   0.59711   0.09211   0.00000  Uiso   1.00
H392   H     0.65301   0.90289   0.24122   0.00000  Uiso   1.00
H393   H     0.84699   0.90289   0.24122   0.00000  Uiso   1.00
H394   H     0.65301   0.59712   0.09211   0.00000  Uiso   1.00
H395   H     0.65301   0.59711   0.24122   0.00000  Uiso   1.00
H396   H     0.84699   0.90289   0.09211   0.00000  Uiso   1.00
H397   H     0.50000   0.66347   0.08586   0.00000  Uiso   1.00
H398   H     0.97161   0.64378   0.03885   0.00000  Uiso   1.00
H399   H     0.52839   0.64378   0.03885   0.00000  Uiso   1.00
H400   H     0.59699   0.84712   0.24122   0.00000  Uiso   1.00
H401   H     0.50000   0.83653   0.24747   0.00000  Uiso   1.00
H402   H     0.97161   0.85622   0.29448   0.00000  Uiso   1.00
H403   H     0.52839   0.85622   0.29448   0.00000  Uiso   1.00
H404   H     0.50000   0.83653   0.08586   0.00000  Uiso   1.00
H405   H     0.52839   0.85622   0.03885   0.00000  Uiso   1.00
H406   H     0.97161   0.85622   0.03885   0.00000  Uiso   1.00
H407   H     0.50000   0.66347   0.24747   0.00000  Uiso   1.00
H408   H     0.52839   0.64378   0.29448   0.00000  Uiso   1.00
H409   H     0.97161   0.64378   0.29448   0.00000  Uiso   1.00
H410   H     0.75000   0.91347   0.08586   0.00000  Uiso   1.00
H411   H     0.59699   0.84711   0.09211   0.00000  Uiso   1.00
H412   H     0.72161   0.89378   0.03885   0.00000  Uiso   1.00
H413   H     0.77839   0.89378   0.03885   0.00000  Uiso   1.00
H414   H     0.75000   0.58653   0.24747   0.00000  Uiso   1.00
H415   H     0.72161   0.60622   0.29448   0.00000  Uiso   1.00
H416   H     0.77839   0.60622   0.29448   0.00000  Uiso   1.00
H417   H     0.75000   0.58653   0.08586   0.00000  Uiso   1.00
H418   H     0.77839   0.60622   0.03885   0.00000  Uiso   1.00
H419   H     0.72161   0.60622   0.03885   0.00000  Uiso   1.00
H420   H     0.75000   0.91347   0.24747   0.00000  Uiso   1.00
H421   H     0.77839   0.89378   0.29448   0.00000  Uiso   1.00
H422   H     0.90301   0.65289   0.24122   0.00000  Uiso   1.00
H423   H     0.72161   0.89378   0.29448   0.00000  Uiso   1.00
H424   H     0.59699   0.65289   0.24122   0.00000  Uiso   1.00
H425   H     0.90301   0.84712   0.09211   0.00000  Uiso   1.00
H426   H     0.90301   0.84711   0.24122   0.00000  Uiso   1.00
H427   H     0.59699   0.65289   0.09211   0.00000  Uiso   1.00
H428   H     0.65301   0.90289   0.09211   0.00000  Uiso   1.00
N429   N     0.50000   0.75000   0.28402   0.00000  Uiso   1.00
N430   N     0.50000   0.75000   0.04931   0.00000  Uiso   1.00
N431   N     0.75000   0.50000   0.28402   0.00000  Uiso   1.00
N432   N     0.75000   0.50000   0.04931   0.00000  Uiso   1.00
O433   O     0.54508   0.70491   0.20625   0.00000  Uiso   1.00
O434   O     0.70491   0.54509   0.12709   0.00000  Uiso   1.00
O435   O     0.70491   0.54509   0.20625   0.00000  Uiso   1.00
O436   O     0.79508   0.95491   0.12709   0.00000  Uiso   1.00
O437   O     0.70491   0.95491   0.12709   0.00000  Uiso   1.00
O438   O     0.79508   0.54509   0.20625   0.00000  Uiso   1.00
O439   O     0.79508   0.54509   0.12709   0.00000  Uiso   1.00
O440   O     0.70491   0.95491   0.20625   0.00000  Uiso   1.00
O441   O     0.95491   0.79509   0.12709   0.00000  Uiso   1.00
O442   O     0.95491   0.79509   0.20625   0.00000  Uiso   1.00
O443   O     0.54508   0.70491   0.12709   0.00000  Uiso   1.00
O444   O     0.95491   0.70491   0.12709   0.00000  Uiso   1.00
O445   O     0.54508   0.79509   0.20625   0.00000  Uiso   1.00
O446   O     0.54508   0.79509   0.12709   0.00000  Uiso   1.00
O447   O     0.95491   0.70491   0.20625   0.00000  Uiso   1.00
O448   O     0.79508   0.95491   0.20625   0.00000  Uiso   1.00
C449   C     0.05926   0.19051   0.50000   0.00000  Uiso   1.00
C450   C    -0.00000   0.29045   0.64195   0.00000  Uiso   1.00
C451   C     0.00000   0.29045   0.35805   0.00000  Uiso   1.00
C452   C     0.00000   0.20955   0.64195   0.00000  Uiso   1.00
C453   C     0.25000   0.45955   0.35805   0.00000  Uiso   1.00
C454   C     0.25000   0.04045   0.64195   0.00000  Uiso   1.00
C455   C     0.25000   0.04045   0.35805   0.00000  Uiso   1.00
C456   C     0.25000   0.45955   0.64195   0.00000  Uiso   1.00
C457   C     0.39102   0.14092   0.45817   0.00000  Uiso   1.00
C458   C     0.10898   0.35908   0.54183   0.00000  Uiso   1.00
C459   C     0.10898   0.35908   0.45817   0.00000  Uiso   1.00
C460   C     0.44074   0.30949   0.50000   0.00000  Uiso   1.00
C461   C     0.39102   0.14092   0.54183   0.00000  Uiso   1.00
C462   C     0.10898   0.14092   0.54183   0.00000  Uiso   1.00
C463   C     0.39102   0.35908   0.45817   0.00000  Uiso   1.00
C464   C     0.39102   0.35908   0.54183   0.00000  Uiso   1.00
C465   C     0.10898   0.14092   0.45817   0.00000  Uiso   1.00
C466   C     0.14102   0.39092   0.45817   0.00000  Uiso   1.00
C467   C     0.35898   0.10908   0.54183   0.00000  Uiso   1.00
C468   C     0.35898   0.10908   0.45817   0.00000  Uiso   1.00
C469   C     0.14102   0.39092   0.54183   0.00000  Uiso   1.00
C470   C     0.35898   0.39092   0.54183   0.00000  Uiso   1.00
C471   C     0.44074   0.19051   0.50000   0.00000  Uiso   1.00
C472   C     0.14102   0.10908   0.45817   0.00000  Uiso   1.00
C473   C     0.14102   0.10908   0.54183   0.00000  Uiso   1.00
C474   C     0.35898   0.39092   0.45817   0.00000  Uiso   1.00
C475   C     0.09281   0.34299   0.50000   0.00000  Uiso   1.00
C476   C     0.40719   0.15701   0.50000   0.00000  Uiso   1.00
C477   C     0.40719   0.34299   0.50000   0.00000  Uiso   1.00
C478   C     0.09281   0.15701   0.50000   0.00000  Uiso   1.00
C479   C     0.34281   0.09299   0.50000   0.00000  Uiso   1.00
C480   C     0.15719   0.40701   0.50000   0.00000  Uiso   1.00
C481   C     0.15719   0.09299   0.50000   0.00000  Uiso   1.00
C482   C     0.05926   0.30949   0.50000   0.00000  Uiso   1.00
C483   C     0.34281   0.40701   0.50000   0.00000  Uiso   1.00
C484   C    -0.00000   0.16333   0.38194   0.00000  Uiso   1.00
C485   C     0.00000   0.33667   0.61806   0.00000  Uiso   1.00
C486   C     0.00000   0.33667   0.38194   0.00000  Uiso   1.00
C487   C    -0.00000   0.16333   0.61806   0.00000  Uiso   1.00
C488   C     0.25000   0.41333   0.38194   0.00000  Uiso   1.00
C489   C     0.25000   0.08667   0.61806   0.00000  Uiso   1.00
C490   C     0.25000   0.08667   0.38194   0.00000  Uiso   1.00
C491   C     0.25000   0.41333   0.61806   0.00000  Uiso   1.00
C492   C     0.30926   0.44051   0.50000   0.00000  Uiso   1.00
C493   C     0.19074   0.05949   0.50000   0.00000  Uiso   1.00
C494   C     0.19074   0.44051   0.50000   0.00000  Uiso   1.00
C495   C     0.30926   0.05949   0.50000   0.00000  Uiso   1.00
C496   C     0.00000   0.20955   0.35805   0.00000  Uiso   1.00
Cu497  Cu    0.00000   0.25000   0.54689   0.00000  Uiso   1.00
Cu498  Cu    0.00000   0.25000   0.45311   0.00000  Uiso   1.00
Cu499  Cu    0.25000   0.00000   0.54689   0.00000  Uiso   1.00
Cu500  Cu    0.25000   0.00000   0.45311   0.00000  Uiso   1.00
H501   H     0.40301   0.15289   0.42544   0.00000  Uiso   1.00
H502   H     0.34699   0.09712   0.57456   0.00000  Uiso   1.00
H503   H     0.34699   0.09711   0.42544   0.00000  Uiso   1.00
H504   H     0.15301   0.40289   0.57456   0.00000  Uiso   1.00
H505   H     0.34699   0.40289   0.57456   0.00000  Uiso   1.00
H506   H     0.15301   0.09712   0.42544   0.00000  Uiso   1.00
H507   H     0.15301   0.09711   0.57456   0.00000  Uiso   1.00
H508   H     0.34699   0.40289   0.42544   0.00000  Uiso   1.00
H509   H     0.00000   0.16347   0.41920   0.00000  Uiso   1.00
H510   H     0.47161   0.14378   0.37218   0.00000  Uiso   1.00
H511   H     0.02839   0.14378   0.37218   0.00000  Uiso   1.00
H512   H     0.09699   0.34712   0.57456   0.00000  Uiso   1.00
H513   H    -0.00000   0.33653   0.58080   0.00000  Uiso   1.00
H514   H     0.47161   0.35622   0.62782   0.00000  Uiso   1.00
H515   H     0.02839   0.35622   0.62782   0.00000  Uiso   1.00
H516   H    -0.00000   0.33653   0.41920   0.00000  Uiso   1.00
H517   H     0.02839   0.35622   0.37218   0.00000  Uiso   1.00
H518   H     0.47161   0.35622   0.37218   0.00000  Uiso   1.00
H519   H     0.00000   0.16347   0.58080   0.00000  Uiso   1.00
H520   H     0.02839   0.14378   0.62782   0.00000  Uiso   1.00
H521   H     0.47161   0.14378   0.62782   0.00000  Uiso   1.00
H522   H     0.25000   0.41347   0.41920   0.00000  Uiso   1.00
H523   H     0.09699   0.34711   0.42544   0.00000  Uiso   1.00
H524   H     0.22161   0.39378   0.37218   0.00000  Uiso   1.00
H525   H     0.27839   0.39378   0.37218   0.00000  Uiso   1.00
H526   H     0.25000   0.08653   0.58080   0.00000  Uiso   1.00
H527   H     0.22161   0.10622   0.62782   0.00000  Uiso   1.00
H528   H     0.27839   0.10622   0.62782   0.00000  Uiso   1.00
H529   H     0.25000   0.08653   0.41920   0.00000  Uiso   1.00
H530   H     0.27839   0.10622   0.37218   0.00000  Uiso   1.00
H531   H     0.22161   0.10622   0.37218   0.00000  Uiso   1.00
H532   H     0.25000   0.41347   0.58080   0.00000  Uiso   1.00
H533   H     0.27839   0.39378   0.62782   0.00000  Uiso   1.00
H534   H     0.40301   0.15289   0.57456   0.00000  Uiso   1.00
H535   H     0.22161   0.39378   0.62782   0.00000  Uiso   1.00
H536   H     0.09699   0.15289   0.57456   0.00000  Uiso   1.00
H537   H     0.40301   0.34712   0.42544   0.00000  Uiso   1.00
H538   H     0.40301   0.34711   0.57456   0.00000  Uiso   1.00
H539   H     0.09699   0.15289   0.42544   0.00000  Uiso   1.00
H540   H     0.15301   0.40289   0.42544   0.00000  Uiso   1.00
N541   N     0.00000   0.25000   0.61736   0.00000  Uiso   1.00
N542   N     0.00000   0.25000   0.38264   0.00000  Uiso   1.00
N543   N     0.25000   0.00000   0.61736   0.00000  Uiso   1.00
N544   N     0.25000   0.00000   0.38264   0.00000  Uiso   1.00
O545   O     0.04508   0.20491   0.53958   0.00000  Uiso   1.00
O546   O     0.20491   0.04509   0.46042   0.00000  Uiso   1.00
O547   O     0.20491   0.04509   0.53958   0.00000  Uiso   1.00
O548   O     0.29508   0.45491   0.46042   0.00000  Uiso   1.00
O549   O     0.20491   0.45491   0.46042   0.00000  Uiso   1.00
O550   O     0.29508   0.04509   0.53958   0.00000  Uiso   1.00
O551   O     0.29508   0.04509   0.46042   0.00000  Uiso   1.00
O552   O     0.20491   0.45491   0.53958   0.00000  Uiso   1.00
O553   O     0.45491   0.29509   0.46042   0.00000  Uiso   1.00
O554   O     0.45491   0.29509   0.53958   0.00000  Uiso   1.00
O555   O     0.04508   0.20491   0.46042   0.00000  Uiso   1.00
O556   O     0.45491   0.20491   0.46042   0.00000  Uiso   1.00
O557   O     0.04508   0.29509   0.53958   0.00000  Uiso   1.00
O558   O     0.04508   0.29509   0.46042   0.00000  Uiso   1.00
O559   O     0.45491   0.20491   0.53958   0.00000  Uiso   1.00
O560   O     0.29508   0.45491   0.53958   0.00000  Uiso   1.00
C561   C     0.55926   0.19051   0.50000   0.00000  Uiso   1.00
C562   C     0.50000   0.29045   0.64195   0.00000  Uiso   1.00
C563   C     0.50000   0.29045   0.35805   0.00000  Uiso   1.00
C564   C     0.50000   0.20955   0.64195   0.00000  Uiso   1.00
C565   C     0.75000   0.45955   0.35805   0.00000  Uiso   1.00
C566   C     0.75000   0.04045   0.64195   0.00000  Uiso   1.00
C567   C     0.75000   0.04045   0.35805   0.00000  Uiso   1.00
C568   C     0.75000   0.45955   0.64195   0.00000  Uiso   1.00
C569   C     0.89102   0.14092   0.45817   0.00000  Uiso   1.00
C570   C     0.60898   0.35908   0.54183   0.00000  Uiso   1.00
C571   C     0.60898   0.35908   0.45817   0.00000  Uiso   1.00
C572   C     0.94074   0.30949   0.50000   0.00000  Uiso   1.00
C573   C     0.89102   0.14092   0.54183   0.00000  Uiso   1.00
C574   C     0.60898   0.14092   0.54183   0.00000  Uiso   1.00
C575   C     0.89102   0.35908   0.45817   0.00000  Uiso   1.00
C576   C     0.89102   0.35908   0.54183   0.00000  Uiso   1.00
C577   C     0.60898   0.14092   0.45817   0.00000  Uiso   1.00
C578   C     0.64102   0.39092   0.45817   0.00000  Uiso   1.00
C579   C     0.85898   0.10908   0.54183   0.00000  Uiso   1.00
C580   C     0.85898   0.10908   0.45817   0.00000  Uiso   1.00
C581   C     0.64102   0.39092   0.54183   0.00000  Uiso   1.00
C582   C     0.85898   0.39092   0.54183   0.00000  Uiso   1.00
C583   C     0.94074   0.19051   0.50000   0.00000  Uiso   1.00
C584   C     0.64102   0.10908   0.45817   0.00000  Uiso   1.00
C585   C     0.64102   0.10908   0.54183   0.00000  Uiso   1.00
C586   C     0.85898   0.39092   0.45817   0.00000  Uiso   1.00
C587   C     0.59281   0.34299   0.50000   0.00000  Uiso   1.00
C588   C     0.90719   0.15701   0.50000   0.00000  Uiso   1.00
C589   C     0.90719   0.34299   0.50000   0.00000  Uiso   1.00
C590   C     0.59281   0.15701   0.50000   0.00000  Uiso   1.00
C591   C     0.84281   0.09299   0.50000   0.00000  Uiso   1.00
C592   C     0.65719   0.40701   0.50000   0.00000  Uiso   1.00
C593   C     0.65719   0.09299   0.50000   0.00000  Uiso   1.00
C594   C     0.55926   0.30949   0.50000   0.00000  Uiso   1.00
C595   C     0.84281   0.40701   0.50000   0.00000  Uiso   1.00
C596   C     0.50000   0.16333   0.38194   0.00000  Uiso   1.00
C597   C     0.50000   0.33667   0.61806   0.00000  Uiso   1.00
C598   C     0.50000   0.33667   0.38194   0.00000  Uiso   1.00
C599   C     0.50000   0.16333   0.61806   0.00000  Uiso   1.00
C600   C     0.75000   0.41333   0.38194   0.00000  Uiso   1.00
C601   C     0.75000   0.08667   0.61806   0.00000  Uiso   1.00
C602   C     0.75000   0.08667   0.38194   0.00000  Uiso   1.00
C603   C     0.75000   0.41333   0.61806   0.00000  Uiso   1.00
C604   C     0.80926   0.44051   0.50000   0.00000  Uiso   1.00
C605   C     0.69074   0.05949   0.50000   0.00000  Uiso   1.00
C606   C     0.69074   0.44051   0.50000   0.00000  Uiso   1.00
C607   C     0.80926   0.05949   0.50000   0.00000  Uiso   1.00
C608   C     0.50000   0.20955   0.35805   0.00000  Uiso   1.00
Cu609  Cu    0.50000   0.25000   0.54689   0.00000  Uiso   1.00
Cu610  Cu    0.50000   0.25000   0.45311   0.00000  Uiso   1.00
Cu611  Cu    0.75000   0.00000   0.54689   0.00000  Uiso   1.00
Cu612  Cu    0.75000   0.00000   0.45311   0.00000  Uiso   1.00
H613   H     0.90301   0.15289   0.42544   0.00000  Uiso   1.00
H614   H     0.84699   0.09712   0.57456   0.00000  Uiso   1.00
H615   H     0.84699   0.09711   0.42544   0.00000  Uiso   1.00
H616   H     0.65301   0.40289   0.57456   0.00000  Uiso   1.00
H617   H     0.84699   0.40289   0.57456   0.00000  Uiso   1.00
H618   H     0.65301   0.09712   0.42544   0.00000  Uiso   1.00
H619   H     0.65301   0.09711   0.57456   0.00000  Uiso   1.00
H620   H     0.84699   0.40289   0.42544   0.00000  Uiso   1.00
H621   H     0.50000   0.16347   0.41920   0.00000  Uiso   1.00
H622   H     0.97161   0.14378   0.37218   0.00000  Uiso   1.00
H623   H     0.52839   0.14378   0.37218   0.00000  Uiso   1.00
H624   H     0.59699   0.34712   0.57456   0.00000  Uiso   1.00
H625   H     0.50000   0.33653   0.58080   0.00000  Uiso   1.00
H626   H     0.97161   0.35622   0.62782   0.00000  Uiso   1.00
H627   H     0.52839   0.35622   0.62782   0.00000  Uiso   1.00
H628   H     0.50000   0.33653   0.41920   0.00000  Uiso   1.00
H629   H     0.52839   0.35622   0.37218   0.00000  Uiso   1.00
H630   H     0.97161   0.35622   0.37218   0.00000  Uiso   1.00
H631   H     0.50000   0.16347   0.58080   0.00000  Uiso   1.00
H632   H     0.52839   0.14378   0.62782   0.00000  Uiso   1.00
H633   H     0.97161   0.14378   0.62782   0.00000  Uiso   1.00
H634   H     0.75000   0.41347   0.41920   0.00000  Uiso   1.00
H635   H     0.59699   0.34711   0.42544   0.00000  Uiso   1.00
H636   H     0.72161   0.39378   0.37218   0.00000  Uiso   1.00
H637   H     0.77839   0.39378   0.37218   0.00000  Uiso   1.00
H638   H     0.75000   0.08653   0.58080   0.00000  Uiso   1.00
H639   H     0.72161   0.10622   0.62782   0.00000  Uiso   1.00
H640   H     0.77839   0.10622   0.62782   0.00000  Uiso   1.00
H641   H     0.75000   0.08653   0.41920   0.00000  Uiso   1.00
H642   H     0.77839   0.10622   0.37218   0.00000  Uiso   1.00
H643   H     0.72161   0.10622   0.37218   0.00000  Uiso   1.00
H644   H     0.75000   0.41347   0.58080   0.00000  Uiso   1.00
H645   H     0.77839   0.39378   0.62782   0.00000  Uiso   1.00
H646   H     0.90301   0.15289   0.57456   0.00000  Uiso   1.00
H647   H     0.72161   0.39378   0.62782   0.00000  Uiso   1.00
H648   H     0.59699   0.15289   0.57456   0.00000  Uiso   1.00
H649   H     0.90301   0.34712   0.42544   0.00000  Uiso   1.00
H650   H     0.90301   0.34711   0.57456   0.00000  Uiso   1.00
H651   H     0.59699   0.15289   0.42544   0.00000  Uiso   1.00
H652   H     0.65301   0.40289   0.42544   0.00000  Uiso   1.00
N653   N     0.50000   0.25000   0.61736   0.00000  Uiso   1.00
N654   N     0.50000   0.25000   0.38264   0.00000  Uiso   1.00
N655   N     0.75000   0.00000   0.61736   0.00000  Uiso   1.00
N656   N     0.75000   0.00000   0.38264   0.00000  Uiso   1.00
O657   O     0.54508   0.20491   0.53958   0.00000  Uiso   1.00
O658   O     0.70491   0.04509   0.46042   0.00000  Uiso   1.00
O659   O     0.70491   0.04509   0.53958   0.00000  Uiso   1.00
O660   O     0.79508   0.45491   0.46042   0.00000  Uiso   1.00
O661   O     0.70491   0.45491   0.46042   0.00000  Uiso   1.00
O662   O     0.79508   0.04509   0.53958   0.00000  Uiso   1.00
O663   O     0.79508   0.04509   0.46042   0.00000  Uiso   1.00
O664   O     0.70491   0.45491   0.53958   0.00000  Uiso   1.00
O665   O     0.95491   0.29509   0.46042   0.00000  Uiso   1.00
O666   O     0.95491   0.29509   0.53958   0.00000  Uiso   1.00
O667   O     0.54508   0.20491   0.46042   0.00000  Uiso   1.00
O668   O     0.95491   0.20491   0.46042   0.00000  Uiso   1.00
O669   O     0.54508   0.29509   0.53958   0.00000  Uiso   1.00
O670   O     0.54508   0.29509   0.46042   0.00000  Uiso   1.00
O671   O     0.95491   0.20491   0.53958   0.00000  Uiso   1.00
O672   O     0.79508   0.45491   0.53958   0.00000  Uiso   1.00
C673   C     0.05926   0.69051   0.50000   0.00000  Uiso   1.00
C674   C    -0.00000   0.79045   0.64195   0.00000  Uiso   1.00
C675   C     0.00000   0.79045   0.35805   0.00000  Uiso   1.00
C676   C     0.00000   0.70955   0.64195   0.00000  Uiso   1.00
C677   C     0.25000   0.95955   0.35805   0.00000  Uiso   1.00
C678   C     0.25000   0.54045   0.64195   0.00000  Uiso   1.00
C679   C     0.25000   0.54045   0.35805   0.00000  Uiso   1.00
C680   C     0.25000   0.95955   0.64195   0.00000  Uiso   1.00
C681   C     0.39102   0.64092   0.45817   0.00000  Uiso   1.00
C682   C     0.10898   0.85908   0.54183   0.00000  Uiso   1.00
C683   C     0.10898   0.85908   0.45817   0.00000  Uiso   1.00
C684   C     0.44074   0.80949   0.50000   0.00000  Uiso   1.00
C685   C     0.39102   0.64092   0.54183   0.00000  Uiso   1.00
C686   C     0.10898   0.64092   0.54183   0.00000  Uiso   1.00
C687   C     0.39102   0.85908   0.45817   0.00000  Uiso   1.00
C688   C     0.39102   0.85908   0.54183   0.00000  Uiso   1.00
C689   C     0.10898   0.64092   0.45817   0.00000  Uiso   1.00
C690   C     0.14102   0.89092   0.45817   0.00000  Uiso   1.00
C691   C     0.35898   0.60908   0.54183   0.00000  Uiso   1.00
C692   C     0.35898   0.60908   0.45817   0.00000  Uiso   1.00
C693   C     0.14102   0.89092   0.54183   0.00000  Uiso   1.00
C694   C     0.35898   0.89092   0.54183   0.00000  Uiso   1.00
C695   C     0.44074   0.69051   0.50000   0.00000  Uiso   1.00
C696   C     0.14102   0.60908   0.45817   0.00000  Uiso   1.00
C697   C     0.14102   0.60908   0.54183   0.00000  Uiso   1.00
C698   C     0.35898   0.89092   0.45817   0.00000  Uiso   1.00
C699   C     0.09281   0.84299   0.50000   0.00000  Uiso   1.00
C700   C     0.40719   0.65701   0.50000   0.00000  Uiso   1.00
C701   C     0.40719   0.84299   0.50000   0.00000  Uiso   1.00
C702   C     0.09281   0.65701   0.50000   0.00000  Uiso   1.00
C703   C     0.34281   0.59299   0.50000   0.00000  Uiso   1.00
C704   C     0.15719   0.90701   0.50000   0.00000  Uiso   1.00
C705   C     0.15719   0.59299   0.50000   0.00000  Uiso   1.00
C706   C     0.05926   0.80949   0.50000   0.00000  Uiso   1.00
C707   C     0.34281   0.90701   0.50000   0.00000  Uiso   1.00
C708   C    -0.00000   0.66333   0.38194   0.00000  Uiso   1.00
C709   C     0.00000   0.83667   0.61806   0.00000  Uiso   1.00
C710   C     0.00000   0.83667   0.38194   0.00000  Uiso   1.00
C711   C    -0.00000   0.66333   0.61806   0.00000  Uiso   1.00
C712   C     0.25000   0.91333   0.38194   0.00000  Uiso   1.00
C713   C     0.25000   0.58667   0.61806   0.00000  Uiso   1.00
C714   C     0.25000   0.58667   0.38194   0.00000  Uiso   1.00
C715   C     0.25000   0.91333   0.61806   0.00000  Uiso   1.00
C716   C     0.30926   0.94051   0.50000   0.00000  Uiso   1.00
C717   C     0.19074   0.55949   0.50000   0.00000  Uiso   1.00
C718   C     0.19074   0.94051   0.50000   0.00000  Uiso   1.00
C719   C     0.30926   0.55949   0.50000   0.00000  Uiso   1.00
C720   C     0.00000   0.70955   0.35805   0.00000  Uiso   1.00
Cu721  Cu    0.00000   0.75000   0.54689   0.00000  Uiso   1.00
Cu722  Cu    0.00000   0.75000   0.45311   0.00000  Uiso   1.00
Cu723  Cu    0.25000   0.50000   0.54689   0.00000  Uiso   1.00
Cu724  Cu    0.25000   0.50000   0.45311   0.00000  Uiso   1.00
H725   H     0.40301   0.65289   0.42544   0.00000  Uiso   1.00
H726   H     0.34699   0.59712   0.57456   0.00000  Uiso   1.00
H727   H     0.34699   0.59711   0.42544   0.00000  Uiso   1.00
H728   H     0.15301   0.90289   0.57456   0.00000  Uiso   1.00
H729   H     0.34699   0.90289   0.57456   0.00000  Uiso   1.00
H730   H     0.15301   0.59712   0.42544   0.00000  Uiso   1.00
H731   H     0.15301   0.59711   0.57456   0.00000  Uiso   1.00
H732   H     0.34699   0.90289   0.42544   0.00000  Uiso   1.00
H733   H     0.00000   0.66347   0.41920   0.00000  Uiso   1.00
H734   H     0.47161   0.64378   0.37218   0.00000  Uiso   1.00
H735   H     0.02839   0.64378   0.37218   0.00000  Uiso   1.00
H736   H     0.09699   0.84712   0.57456   0.00000  Uiso   1.00
H737   H    -0.00000   0.83653   0.58080   0.00000  Uiso   1.00
H738   H     0.47161   0.85622   0.62782   0.00000  Uiso   1.00
H739   H     0.02839   0.85622   0.62782   0.00000  Uiso   1.00
H740   H    -0.00000   0.83653   0.41920   0.00000  Uiso   1.00
H741   H     0.02839   0.85622   0.37218   0.00000  Uiso   1.00
H742   H     0.47161   0.85622   0.37218   0.00000  Uiso   1.00
H743   H     0.00000   0.66347   0.58080   0.00000  Uiso   1.00
H744   H     0.02839   0.64378   0.62782   0.00000  Uiso   1.00
H745   H     0.47161   0.64378   0.62782   0.00000  Uiso   1.00
H746   H     0.25000   0.91347   0.41920   0.00000  Uiso   1.00
H747   H     0.09699   0.84711   0.42544   0.00000  Uiso   1.00
H748   H     0.22161   0.89378   0.37218   0.00000  Uiso   1.00
H749   H     0.27839   0.89378   0.37218   0.00000  Uiso   1.00
H750   H     0.25000   0.58653   0.58080   0.00000  Uiso   1.00
H751   H     0.22161   0.60622   0.62782   0.00000  Uiso   1.00
H752   H     0.27839   0.60622   0.62782   0.00000  Uiso   1.00
H753   H     0.25000   0.58653   0.41920   0.00000  Uiso   1.00
H754   H     0.27839   0.60622   0.37218   0.00000  Uiso   1.00
H755   H     0.22161   0.60622   0.37218   0.00000  Uiso   1.00
H756   H     0.25000   0.91347   0.58080   0.00000  Uiso   1.00
H757   H     0.27839   0.89378   0.62782   0.00000  Uiso   1.00
H758   H     0.40301   0.65289   0.57456   0.00000  Uiso   1.00
H759   H     0.22161   0.89378   0.62782   0.00000  Uiso   1.00
H760   H     0.09699   0.65289   0.57456   0.00000  Uiso   1.00
H761   H     0.40301   0.84712   0.42544   0.00000  Uiso   1.00
H762   H     0.40301   0.84711   0.57456   0.00000  Uiso   1.00
H763   H     0.09699   0.65289   0.42544   0.00000  Uiso   1.00
H764   H     0.15301   0.90289   0.42544   0.00000  Uiso   1.00
N765   N     0.00000   0.75000   0.61736   0.00000  Uiso   1.00
N766   N     0.00000   0.75000   0.38264   0.00000  Uiso   1.00
N767   N     0.25000   0.50000   0.61736   0.00000  Uiso   1.00
N768   N     0.25000   0.50000   0.38264   0.00000  Uiso   1.00
O769   O     0.04508   0.70491   0.53958   0.00000  Uiso   1.00
O770   O     0.20491   0.54509   0.46042   0.00000  Uiso   1.00
O771   O     0.20491   0.54509   0.53958   0.00000  Uiso   1.00
O772   O     0.29508   0.95491   0.46042   0.00000  Uiso   1.00
O773   O     0.20491   0.95491   0.46042   0.00000  Uiso   1.00
O774   O     0.29508   0.54509   0.53958   0.00000  Uiso   1.00
O775   O     0.29508   0.54509   0.46042   0.00000  Uiso   1.00
O776   O     0.20491   0.95491   0.53958   0.00000  Uiso   1.00
O777   O     0.45491   0.79509   0.46042   0.00000  Uiso   1.00
O778   O     0.45491   0.79509   0.53958   0.00000  Uiso   1.00
O779   O     0.04508   0.70491   0.46042   0.00000  Uiso   1.00
O780   O     0.45491   0.70491   0.46042   0.00000  Uiso   1.00
O781   O     0.04508   0.79509   0.53958   0.00000  Uiso   1.00
O782   O     0.04508   0.79509   0.46042   0.00000  Uiso   1.00
O783   O     0.45491   0.70491   0.53958   0.00000  Uiso   1.00
O784   O     0.29508   0.95491   0.53958   0.00000  Uiso   1.00
C785   C     0.55926   0.69051   0.50000   0.00000  Uiso   1.00
C786   C     0.50000   0.79045   0.64195   0.00000  Uiso   1.00
C787   C     0.50000   0.79045   0.35805   0.00000  Uiso   1.00
C788   C     0.50000   0.70955   0.64195   0.00000  Uiso   1.00
C789   C     0.75000   0.95955   0.35805   0.00000  Uiso   1.00
C790   C     0.75000   0.54045   0.64195   0.00000  Uiso   1.00
C791   C     0.75000   0.54045   0.35805   0.00000  Uiso   1.00
C792   C     0.75000   0.95955   0.64195   0.00000  Uiso   1.00
C793   C     0.89102   0.64092   0.45817   0.00000  Uiso   1.00
C794   C     0.60898   0.85908   0.54183   0.00000  Uiso   1.00
C795   C     0.60898   0.85908   0.45817   0.00000  Uiso   1.00
C796   C     0.94074   0.80949   0.50000   0.00000  Uiso   1.00
C797   C     0.89102   0.64092   0.54183   0.00000  Uiso   1.00
C798   C     0.60898   0.64092   0.54183   0.00000  Uiso   1.00
C799   C     0.89102   0.85908   0.45817   0.00000  Uiso   1.00
C800   C     0.89102   0.85908   0.54183   0.00000  Uiso   1.00
C801   C     0.60898   0.64092   0.45817   0.00000  Uiso   1.00
C802   C     0.64102   0.89092   0.45817   0.00000  Uiso   1.00
C803   C     0.85898   0.60908   0.54183   0.00000  Uiso   1.00
C804   C     0.85898   0.60908   0.45817   0.00000  Uiso   1.00
C805   C     0.64102   0.89092   0.54183   0.00000  Uiso   1.00
C806   C     0.85898   0.89092   0.54183   0.00000  Uiso   1.00
C807   C     0.94074   0.69051   0.50000   0.00000  Uiso   1.00
C808   C     0.64102   0.60908   0.45817   0.00000  Uiso   1.00
C809   C     0.64102   0.60908   0.54183   0.00000  Uiso   1.00
C810   C     0.85898   0.89092   0.45817   0.00000  Uiso   1.00
C811   C     0.59281   0.84299   0.50000   0.00000  Uiso   1.00
C812   C     0.90719   0.65701   0.50000   0.00000  Uiso   1.00
C813   C     0.90719   0.84299   0.50000   0.00000  Uiso   1.00
C814   C     0.59281   0.65701   0.50000   0.00000  Uiso   1.00
C815   C     0.84281   0.59299   0.50000   0.00000  Uiso   1.00
C816   C     0.65719   0.90701   0.50000   0.00000  Uiso   1.00
C817   C     0.65719   0.59299   0.50000   0.00000  Uiso   1.00
C818   C     0.55926   0.80949   0.50000   0.00000  Uiso   1.00
C819   C     0.84281   0.90701   0.50000   0.00000  Uiso   1.00
C820   C     0.50000   0.66333   0.38194   0.00000  Uiso   1.00
C821   C     0.50000   0.83667   0.61806   0.00000  Uiso   1.00
C822   C     0.50000   0.83667   0.38194   0.00000  Uiso   1.00
C823   C     0.50000   0.66333   0.61806   0.00000  Uiso   1.00
C824   C     0.75000   0.91333   0.38194   0.00000  Uiso   1.00
C825   C     0.75000   0.58667   0.61806   0.00000  Uiso   1.00
C826   C     0.75000   0.58667   0.38194   0.00000  Uiso   1.00
C827   C     0.75000   0.91333   0.61806   0.00000  Uiso   1.00
C828   C     0.80926   0.94051   0.50000   0.00000  Uiso   1.00
C829   C     0.69074   0.55949   0.50000   0.00000  Uiso   1.00
C830   C     0.69074   0.94051   0.50000   0.00000  Uiso   1.00
C831   C     0.80926   0.55949   0.50000   0.00000  Uiso   1.00
C832   C     0.50000   0.70955   0.35805   0.00000  Uiso   1.00
Cu833  Cu    0.50000   0.75000   0.54689   0.00000  Uiso   1.00
Cu834  Cu    0.50000   0.75000   0.45311   0.00000  Uiso   1.00
Cu835  Cu    0.75000   0.50000   0.54689   0.00000  Uiso   1.00
Cu836  Cu    0.75000   0.50000   0.45311   0.00000  Uiso   1.00
H837   H     0.90301   0.65289   0.42544   0.00000  Uiso   1.00
H838   H     0.84699   0.59712   0.57456   0.00000  Uiso   1.00
H839   H     0.84699   0.59711   0.42544   0.00000  Uiso   1.00
H840   H     0.65301   0.90289   0.57456   0.00000  Uiso   1.00
H841   H     0.84699   0.90289   0.57456   0.00000  Uiso   1.00
H842   H     0.65301   0.59712   0.42544   0.00000  Uiso   1.00
H843   H     0.65301   0.59711   0.57456   0.00000  Uiso   1.00
H844   H     0.84699   0.90289   0.42544   0.00000  Uiso   1.00
H845   H     0.50000   0.66347   0.41920   0.00000  Uiso   1.00
H846   H     0.97161   0.64378   0.37218   0.00000  Uiso   1.00
H847   H     0.52839   0.64378   0.37218   0.00000  Uiso   1.00
H848   H     0.59699   0.84712   0.57456   0.00000  Uiso   1.00
H849   H     0.50000   0.83653   0.58080   0.00000  Uiso   1.00
H850   H     0.97161   0.85622   0.62782   0.00000  Uiso   1.00
H851   H     0.52839   0.85622   0.62782   0.00000  Uiso   1.00
H852   H     0.50000   0.83653   0.41920   0.00000  Uiso   1.00
H853   H     0.52839   0.85622   0.37218   0.00000  Uiso   1.00
H854   H     0.97161   0.85622   0.37218   0.00000  Uiso   1.00
H855   H     0.50000   0.66347   0.58080   0.00000  Uiso   1.00
H856   H     0.52839   0.64378   0.62782   0.00000  Uiso   1.00
H857   H     0.97161   0.64378   0.62782   0.00000  Uiso   1.00
H858   H     0.75000   0.91347   0.41920   0.00000  Uiso   1.00
H859   H     0.59699   0.84711   0.42544   0.00000  Uiso   1.00
H860   H     0.72161   0.89378   0.37218   0.00000  Uiso   1.00
H861   H     0.77839   0.89378   0.37218   0.00000  Uiso   1.00
H862   H     0.75000   0.58653   0.58080   0.00000  Uiso   1.00
H863   H     0.72161   0.60622   0.62782   0.00000  Uiso   1.00
H864   H     0.77839   0.60622   0.62782   0.00000  Uiso   1.00
H865   H     0.75000   0.58653   0.41920   0.00000  Uiso   1.00
H866   H     0.77839   0.60622   0.37218   0.00000  Uiso   1.00
H867   H     0.72161   0.60622   0.37218   0.00000  Uiso   1.00
H868   H     0.75000   0.91347   0.58080   0.00000  Uiso   1.00
H869   H     0.77839   0.89378   0.62782   0.00000  Uiso   1.00
H870   H     0.90301   0.65289   0.57456   0.00000  Uiso   1.00
H871   H     0.72161   0.89378   0.62782   0.00000  Uiso   1.00
H872   H     0.59699   0.65289   0.57456   0.00000  Uiso   1.00
H873   H     0.90301   0.84712   0.42544   0.00000  Uiso   1.00
H874   H     0.90301   0.84711   0.57456   0.00000  Uiso   1.00
H875   H     0.59699   0.65289   0.42544   0.00000  Uiso   1.00
H876   H     0.65301   0.90289   0.42544   0.00000  Uiso   1.00
N877   N     0.50000   0.75000   0.61736   0.00000  Uiso   1.00
N878   N     0.50000   0.75000   0.38264   0.00000  Uiso   1.00
N879   N     0.75000   0.50000   0.61736   0.00000  Uiso   1.00
N880   N     0.75000   0.50000   0.38264   0.00000  Uiso   1.00
O881   O     0.54508   0.70491   0.53958   0.00000  Uiso   1.00
O882   O     0.70491   0.54509   0.46042   0.00000  Uiso   1.00
O883   O     0.70491   0.54509   0.53958   0.00000  Uiso   1.00
O884   O     0.79508   0.95491   0.46042   0.00000  Uiso   1.00
O885   O     0.70491   0.95491   0.46042   0.00000  Uiso   1.00
O886   O     0.79508   0.54509   0.53958   0.00000  Uiso   1.00
O887   O     0.79508   0.54509   0.46042   0.00000  Uiso   1.00
O888   O     0.70491   0.95491   0.53958   0.00000  Uiso   1.00
O889   O     0.95491   0.79509   0.46042   0.00000  Uiso   1.00
O890   O     0.95491   0.79509   0.53958   0.00000  Uiso   1.00
O891   O     0.54508   0.70491   0.46042   0.00000  Uiso   1.00
O892   O     0.95491   0.70491   0.46042   0.00000  Uiso   1.00
O893   O     0.54508   0.79509   0.53958   0.00000  Uiso   1.00
O894   O     0.54508   0.79509   0.46042   0.00000  Uiso   1.00
O895   O     0.95491   0.70491   0.53958   0.00000  Uiso   1.00
O896   O     0.79508   0.95491   0.53958   0.00000  Uiso   1.00
C897   C     0.05926   0.19051   0.83333   0.00000  Uiso   1.00
C898   C    -0.00000   0.29045   0.97529   0.00000  Uiso   1.00
C899   C     0.00000   0.29045   0.69138   0.00000  Uiso   1.00
C900   C     0.00000   0.20955   0.97529   0.00000  Uiso   1.00
C901   C     0.25000   0.45955   0.69138   0.00000  Uiso   1.00
C902   C     0.25000   0.04045   0.97529   0.00000  Uiso   1.00
C903   C     0.25000   0.04045   0.69138   0.00000  Uiso   1.00
C904   C     0.25000   0.45955   0.97529   0.00000  Uiso   1.00
C905   C     0.39102   0.14092   0.79151   0.00000  Uiso   1.00
C906   C     0.10898   0.35908   0.87516   0.00000  Uiso   1.00
C907   C     0.10898   0.35908   0.79151   0.00000  Uiso   1.00
C908   C     0.44074   0.30949   0.83333   0.00000  Uiso   1.00
C909   C     0.39102   0.14092   0.87516   0.00000  Uiso   1.00
C910   C     0.10898   0.14092   0.87516   0.00000  Uiso   1.00
C911   C     0.39102   0.35908   0.79151   0.00000  Uiso   1.00
C912   C     0.39102   0.35908   0.87516   0.00000  Uiso   1.00
C913   C     0.10898   0.14092   0.79151   0.00000  Uiso   1.00
C914   C     0.14102   0.39092   0.79151   0.00000  Uiso   1.00
C915   C     0.35898   0.10908   0.87516   0.00000  Uiso   1.00
C916   C     0.35898   0.10908   0.79151   0.00000  Uiso   1.00
C917   C     0.14102   0.39092   0.87516   0.00000  Uiso   1.00
C918   C     0.35898   0.39092   0.87516   0.00000  Uiso   1.00
C919   C     0.44074   0.19051   0.83333   0.00000  Uiso   1.00
C920   C     0.14102   0.10908   0.79151   0.00000  Uiso   1.00
C921   C     0.14102   0.10908   0.87516   0.00000  Uiso   1.00
C922   C     0.35898   0.39092   0.79151   0.00000  Uiso   1.00
C923   C     0.09281   0.34299   0.83333   0.00000  Uiso   1.00
C924   C     0.40719   0.15701   0.83333   0.00000  Uiso   1.00
C925   C     0.40719   0.34299   0.83333   0.00000  Uiso   1.00
C926   C     0.09281   0.15701   0.83333   0.00000  Uiso   1.00
C927   C     0.34281   0.09299   0.83333   0.00000  Uiso   1.00
C928   C     0.15719   0.40701   0.83333   0.00000  Uiso   1.00
C929   C     0.15719   0.09299   0.83333   0.00000  Uiso   1.00
C930   C     0.05926   0.30949   0.83333   0.00000  Uiso   1.00
C931   C     0.34281   0.40701   0.83333   0.00000  Uiso   1.00
C932   C    -0.00000   0.16333   0.71528   0.00000  Uiso   1.00
C933   C     0.00000   0.33667   0.95139   0.00000  Uiso   1.00
C934   C     0.00000   0.33667   0.71528   0.00000  Uiso   1.00
C935   C    -0.00000   0.16333   0.95139   0.00000  Uiso   1.00
C936   C     0.25000   0.41333   0.71528   0.00000  Uiso   1.00
C937   C     0.25000   0.08667   0.95139   0.00000  Uiso   1.00
C938   C     0.25000   0.08667   0.71528   0.00000  Uiso   1.00
C939   C     0.25000   0.41333   0.95139   0.00000  Uiso   1.00
C940   C     0.30926   0.44051   0.83333   0.00000  Uiso   1.00
C941   C     0.19074   0.05949   0.83333   0.00000  Uiso   1.00
C942   C     0.19074   0.44051   0.83333   0.00000  Uiso   1.00
C943   C     0.30926   0.05949   0.83333   0.00000  Uiso   1.00
C944   C     0.00000   0.20955   0.69138   0.00000  Uiso   1.00
Cu945  Cu    0.00000   0.25000   0.88022   0.00000  Uiso   1.00
Cu946  Cu    0.00000   0.25000   0.78645   0.00000  Uiso   1.00
Cu947  Cu    0.25000   0.00000   0.88022   0.00000  Uiso   1.00
Cu948  Cu    0.25000   0.00000   0.78645   0.00000  Uiso   1.00
H949   H     0.40301   0.15289   0.75878   0.00000  Uiso   1.00
H950   H     0.34699   0.09712   0.90789   0.00000  Uiso   1.00
H951   H     0.34699   0.09711   0.75878   0.00000  Uiso   1.00
H952   H     0.15301   0.40289   0.90789   0.00000  Uiso   1.00
H953   H     0.34699   0.40289   0.90789   0.00000  Uiso   1.00
H954   H     0.15301   0.09712   0.75878   0.00000  Uiso   1.00
H955   H     0.15301   0.09711   0.90789   0.00000  Uiso   1.00
H956   H     0.34699   0.40289   0.75878   0.00000  Uiso   1.00
H957   H     0.00000   0.16347   0.75253   0.00000  Uiso   1.00
H958   H     0.47161   0.14378   0.70552   0.00000  Uiso   1.00
H959   H     0.02839   0.14378   0.70552   0.00000  Uiso   1.00
H960   H     0.09699   0.34712   0.90789   0.00000  Uiso   1.00
H961   H    -0.00000   0.33653   0.91414   0.00000  Uiso   1.00
H962   H     0.47161   0.35622   0.96115   0.00000  Uiso   1.00
H963   H     0.02839   0.35622   0.96115   0.00000  Uiso   1.00
H964   H    -0.00000   0.33653   0.75253   0.00000  Uiso   1.00
H965   H     0.02839   0.35622   0.70552   0.00000  Uiso   1.00
H966   H     0.47161   0.35622   0.70552   0.00000  Uiso   1.00
H967   H     0.00000   0.16347   0.91414   0.00000  Uiso   1.00
H968   H     0.02839   0.14378   0.96115   0.00000  Uiso   1.00
H969   H     0.47161   0.14378   0.96115   0.00000  Uiso   1.00
H970   H     0.25000   0.41347   0.75253   0.00000  Uiso   1.00
H971   H     0.09699   0.34711   0.75878   0.00000  Uiso   1.00
H972   H     0.22161   0.39378   0.70552   0.00000  Uiso   1.00
H973   H     0.27839   0.39378   0.70552   0.00000  Uiso   1.00
H974   H     0.25000   0.08653   0.91414   0.00000  Uiso   1.00
H975   H     0.22161   0.10622   0.96115   0.00000  Uiso   1.00
H976   H     0.27839   0.10622   0.96115   0.00000  Uiso   1.00
H977   H     0.25000   0.08653   0.75253   0.00000  Uiso   1.00
H978   H     0.27839   0.10622   0.70552   0.00000  Uiso   1.00
H979   H     0.22161   0.10622   0.70552   0.00000  Uiso   1.00
H980   H     0.25000   0.41347   0.91414   0.00000  Uiso   1.00
H981   H     0.27839   0.39378   0.96115   0.00000  Uiso   1.00
H982   H     0.40301   0.15289   0.90789   0.00000  Uiso   1.00
H983   H     0.22161   0.39378   0.96115   0.00000  Uiso   1.00
H984   H     0.09699   0.15289   0.90789   0.00000  Uiso   1.00
H985   H     0.40301   0.34712   0.75878   0.00000  Uiso   1.00
H986   H     0.40301   0.34711   0.90789   0.00000  Uiso   1.00
H987   H     0.09699   0.15289   0.75878   0.00000  Uiso   1.00
H988   H     0.15301   0.40289   0.75878   0.00000  Uiso   1.00
N989   N     0.00000   0.25000   0.95069   0.00000  Uiso   1.00
N990   N     0.00000   0.25000   0.71598   0.00000  Uiso   1.00
N991   N     0.25000   0.00000   0.95069   0.00000  Uiso   1.00
N992   N     0.25000   0.00000   0.71598   0.00000  Uiso   1.00
O993   O     0.04508   0.20491   0.87291   0.00000  Uiso   1.00
O994   O     0.20491   0.04509   0.79375   0.00000  Uiso   1.00
O995   O     0.20491   0.04509   0.87291   0.00000  Uiso   1.00
O996   O     0.29508   0.45491   0.79375   0.00000  Uiso   1.00
O997   O     0.20491   0.45491   0.79375   0.00000  Uiso   1.00
O998   O     0.29508   0.04509   0.87291   0.00000  Uiso   1.00
O999   O     0.29508   0.04509   0.79375   0.00000  Uiso   1.00
O1000  O     0.20491   0.45491   0.87291   0.00000  Uiso   1.00
O1001  O     0.45491   0.29509   0.79375   0.00000  Uiso   1.00
O1002  O     0.45491   0.29509   0.87291   0.00000  Uiso   1.00
O1003  O     0.04508   0.20491   0.79375   0.00000  Uiso   1.00
O1004  O     0.45491   0.20491   0.79375   0.00000  Uiso   1.00
O1005  O     0.04508   0.29509   0.87291   0.00000  Uiso   1.00
O1006  O     0.04508   0.29509   0.79375   0.00000  Uiso   1.00
O1007  O     0.45491   0.20491   0.87291   0.00000  Uiso   1.00
O1008  O     0.29508   0.45491   0.87291   0.00000  Uiso   1.00
C1009  C     0.55926   0.19051   0.83333   0.00000  Uiso   1.00
C1010  C     0.50000   0.29045   0.97529   0.00000  Uiso   1.00
C1011  C     0.50000   0.29045   0.69138   0.00000  Uiso   1.00
C1012  C     0.50000   0.20955   0.97529   0.00000  Uiso   1.00
C1013  C     0.75000   0.45955   0.69138   0.00000  Uiso   1.00
C1014  C     0.75000   0.04045   0.97529   0.00000  Uiso   1.00
C1015  C     0.75000   0.04045   0.69138   0.00000  Uiso   1.00
C1016  C     0.75000   0.45955   0.97529   0.00000  Uiso   1.00
C1017  C     0.89102   0.14092   0.79151   0.00000  Uiso   1.00
C1018  C     0.60898   0.35908   0.87516   0.00000  Uiso   1.00
C1019  C     0.60898   0.35908   0.79151   0.00000  Uiso   1.00
C1020  C     0.94074   0.30949   0.83333   0.00000  Uiso   1.00
C1021  C     0.89102   0.14092   0.87516   0.00000  Uiso   1.00
C1022  C     0.60898   0.14092   0.87516   0.00000  Uiso   1.00
C1023  C     0.89102   0.35908   0.79151   0.00000  Uiso   1.00
C1024  C     0.89102   0.35908   0.87516   0.00000  Uiso   1.00
C1025  C     0.60898   0.14092   0.79151   0.00000  Uiso   1.00
C1026  C     0.64102   0.39092   0.79151   0.00000  Uiso   1.00
C1027  C     0.85898   0.10908   0.87516   0.00000  Uiso   1.00
C1028  C     0.85898   0.10908   0.79151   0.00000  Uiso   1.00
C1029  C     0.64102   0.39092   0.87516   0.00000  Uiso   1.00
C1030  C     0.85898   0.39092   0.87516   0.00000  Uiso   1.00
C1031  C     0.94074   0.19051   0.83333   0.00000  Uiso   1.00
C1032  C     0.64102   0.10908   0.79151   0.00000  Uiso   1.00
C1033  C     0.64102   0.10908   0.87516   0.00000  Uiso   1.00
C1034  C     0.85898   0.39092   0.79151   0.00000  Uiso   1.00
C1035  C     0.59281   0.34299   0.83333   0.00000  Uiso   1.00
C1036  C     0.90719   0.15701   0.83333   0.00000  Uiso   1.00
C1037  C     0.90719   0.34299   0.83333   0.00000  Uiso   1.00
C1038  C     0.59281   0.15701   0.83333   0.00000  Uiso   1.00
C1039  C     0.84281   0.09299   0.83333   0.00000  Uiso   1.00
C1040  C     0.65719   0.40701   0.83333   0.00000  Uiso   1.00
C1041  C     0.65719   0.09299   0.83333   0.00000  Uiso   1.00
C1042  C     0.55926   0.30949   0.83333   0.00000  Uiso   1.00
C1043  C     0.84281   0.40701   0.83333   0.00000  Uiso   1.00
C1044  C     0.50000   0.16333   0.71528   0.00000  Uiso   1.00
C1045  C     0.50000   0.33667   0.95139   0.00000  Uiso   1.00
C1046  C     0.50000   0.33667   0.71528   0.00000  Uiso   1.00
C1047  C     0.50000   0.16333   0.95139   0.00000  Uiso   1.00
C1048  C     0.75000   0.41333   0.71528   0.00000  Uiso   1.00
C1049  C     0.75000   0.08667   0.95139   0.00000  Uiso   1.00
C1050  C     0.75000   0.08667   0.71528   0.00000  Uiso   1.00
C1051  C     0.75000   0.41333   0.95139   0.00000  Uiso   1.00
C1052  C     0.80926   0.44051   0.83333   0.00000  Uiso   1.00
C1053  C     0.69074   0.05949   0.83333   0.00000  Uiso   1.00
C1054  C     0.69074   0.44051   0.83333   0.00000  Uiso   1.00
C1055  C     0.80926   0.05949   0.83333   0.00000  Uiso   1.00
C1056  C     0.50000   0.20955   0.69138   0.00000  Uiso   1.00
Cu1057 Cu    0.50000   0.25000   0.88022   0.00000  Uiso   1.00
Cu1058 Cu    0.50000   0.25000   0.78645   0.00000  Uiso   1.00
Cu1059 Cu    0.75000   0.00000   0.88022   0.00000  Uiso   1.00
Cu1060 Cu    0.75000   0.00000   0.78645   0.00000  Uiso   1.00
H1061  H     0.90301   0.15289   0.75878   0.00000  Uiso   1.00
H1062  H     0.84699   0.09712   0.90789   0.00000  Uiso   1.00
H1063  H     0.84699   0.09711   0.75878   0.00000  Uiso   1.00
H1064  H     0.65301   0.40289   0.90789   0.00000  Uiso   1.00
H1065  H     0.84699   0.40289   0.90789   0.00000  Uiso   1.00
H1066  H     0.65301   0.09712   0.75878   0.00000  Uiso   1.00
H1067  H     0.65301   0.09711   0.90789   0.00000  Uiso   1.00
H1068  H     0.84699   0.40289   0.75878   0.00000  Uiso   1.00
H1069  H     0.50000   0.16347   0.75253   0.00000  Uiso   1.00
H1070  H     0.97161   0.14378   0.70552   0.00000  Uiso   1.00
H1071  H     0.52839   0.14378   0.70552   0.00000  Uiso   1.00
H1072  H     0.59699   0.34712   0.90789   0.00000  Uiso   1.00
H1073  H     0.50000   0.33653   0.91414   0.00000  Uiso   1.00
H1074  H     0.97161   0.35622   0.96115   0.00000  Uiso   1.00
H1075  H     0.52839   0.35622   0.96115   0.00000  Uiso   1.00
H1076  H     0.50000   0.33653   0.75253   0.00000  Uiso   1.00
H1077  H     0.52839   0.35622   0.70552   0.00000  Uiso   1.00
H1078  H     0.97161   0.35622   0.70552   0.00000  Uiso   1.00
H1079  H     0.50000   0.16347   0.91414   0.00000  Uiso   1.00
H1080  H     0.52839   0.14378   0.96115   0.00000  Uiso   1.00
H1081  H     0.97161   0.14378   0.96115   0.00000  Uiso   1.00
H1082  H     0.75000   0.41347   0.75253   0.00000  Uiso   1.00
H1083  H     0.59699   0.34711   0.75878   0.00000  Uiso   1.00
H1084  H     0.72161   0.39378   0.70552   0.00000  Uiso   1.00
H1085  H     0.77839   0.39378   0.70552   0.00000  Uiso   1.00
H1086  H     0.75000   0.08653   0.91414   0.00000  Uiso   1.00
H1087  H     0.72161   0.10622   0.96115   0.00000  Uiso   1.00
H1088  H     0.77839   0.10622   0.96115   0.00000  Uiso   1.00
H1089  H     0.75000   0.08653   0.75253   0.00000  Uiso   1.00
H1090  H     0.77839   0.10622   0.70552   0.00000  Uiso   1.00
H1091  H     0.72161   0.10622   0.70552   0.00000  Uiso   1.00
H1092  H     0.75000   0.41347   0.91414   0.00000  Uiso   1.00
H1093  H     0.77839   0.39378   0.96115   0.00000  Uiso   1.00
H1094  H     0.90301   0.15289   0.90789   0.00000  Uiso   1.00
H1095  H     0.72161   0.39378   0.96115   0.00000  Uiso   1.00
H1096  H     0.59699   0.15289   0.90789   0.00000  Uiso   1.00
H1097  H     0.90301   0.34712   0.75878   0.00000  Uiso   1.00
H1098  H     0.90301   0.34711   0.90789   0.00000  Uiso   1.00
H1099  H     0.59699   0.15289   0.75878   0.00000  Uiso   1.00
H1100  H     0.65301   0.40289   0.75878   0.00000  Uiso   1.00
N1101  N     0.50000   0.25000   0.95069   0.00000  Uiso   1.00
N1102  N     0.50000   0.25000   0.71598   0.00000  Uiso   1.00
N1103  N     0.75000   0.00000   0.95069   0.00000  Uiso   1.00
N1104  N     0.75000   0.00000   0.71598   0.00000  Uiso   1.00
O1105  O     0.54508   0.20491   0.87291   0.00000  Uiso   1.00
O1106  O     0.70491   0.04509   0.79375   0.00000  Uiso   1.00
O1107  O     0.70491   0.04509   0.87291   0.00000  Uiso   1.00
O1108  O     0.79508   0.45491   0.79375   0.00000  Uiso   1.00
O1109  O     0.70491   0.45491   0.79375   0.00000  Uiso   1.00
O1110  O     0.79508   0.04509   0.87291   0.00000  Uiso   1.00
O1111  O     0.79508   0.04509   0.79375   0.00000  Uiso   1.00
O1112  O     0.70491   0.45491   0.87291   0.00000  Uiso   1.00
O1113  O     0.95491   0.29509   0.79375   0.00000  Uiso   1.00
O1114  O     0.95491   0.29509   0.87291   0.00000  Uiso   1.00
O1115  O     0.54508   0.20491   0.79375   0.00000  Uiso   1.00
O1116  O     0.95491   0.20491   0.79375   0.00000  Uiso   1.00
O1117  O     0.54508   0.29509   0.87291   0.00000  Uiso   1.00
O1118  O     0.54508   0.29509   0.79375   0.00000  Uiso   1.00
O1119  O     0.95491   0.20491   0.87291   0.00000  Uiso   1.00
O1120  O     0.79508   0.45491   0.87291   0.00000  Uiso   1.00
C1121  C     0.05926   0.69051   0.83333   0.00000  Uiso   1.00
C1122  C    -0.00000   0.79045   0.97529   0.00000  Uiso   1.00
C1123  C     0.00000   0.79045   0.69138   0.00000  Uiso   1.00
C1124  C     0.00000   0.70955   0.97529   0.00000  Uiso   1.00
C1125  C     0.25000   0.95955   0.69138   0.00000  Uiso   1.00
C1126  C     0.25000   0.54045   0.97529   0.00000  Uiso   1.00
C1127  C     0.25000   0.54045   0.69138   0.00000  Uiso   1.00
C1128  C     0.25000   0.95955   0.97529   0.00000  Uiso   1.00
C1129  C     0.39102   0.64092   0.79151   0.00000  Uiso   1.00
C1130  C     0.10898   0.85908   0.87516   0.00000  Uiso   1.00
C1131  C     0.10898   0.85908   0.79151   0.00000  Uiso   1.00
C1132  C     0.44074   0.80949   0.83333   0.00000  Uiso   1.00
C1133  C     0.39102   0.64092   0.87516   0.00000  Uiso   1.00
C1134  C     0.10898   0.64092   0.87516   0.00000  Uiso   1.00
C1135  C     0.39102   0.85908   0.79151   0.00000  Uiso   1.00
C1136  C     0.39102   0.85908   0.87516   0.00000  Uiso   1.00
C1137  C     0.10898   0.64092   0.79151   0.00000  Uiso   1.00
C1138  C     0.14102   0.89092   0.79151   0.00000  Uiso   1.00
C1139  C     0.35898   0.60908   0.87516   0.00000  Uiso   1.00
C1140  C     0.35898   0.60908   0.79151   0.00000  Uiso   1.00
C1141  C     0.14102   0.89092   0.87516   0.00000  Uiso   1.00
C1142  C     0.35898   0.89092   0.87516   0.00000  Uiso   1.00
C1143  C     0.44074   0.69051   0.83333   0.00000  Uiso   1.00
C1144  C     0.14102   0.60908   0.79151   0.00000  Uiso   1.00
C1145  C     0.14102   0.60908   0.87516   0.00000  Uiso   1.00
C1146  C     0.35898   0.89092   0.79151   0.00000  Uiso   1.00
C1147  C     0.09281   0.84299   0.83333   0.00000  Uiso   1.00
C1148  C     0.40719   0.65701   0.83333   0.00000  Uiso   1.00
C1149  C     0.40719   0.84299   0.83333   0.00000  Uiso   1.00
C1150  C     0.09281   0.65701   0.83333   0.00000  Uiso   1.00
C1151  C     0.34281   0.59299   0.83333   0.00000  Uiso   1.00
C1152  C     0.15719   0.90701   0.83333   0.00000  Uiso   1.00
C1153  C     0.15719   0.59299   0.83333   0.00000  Uiso   1.00
C1154  C     0.05926   0.80949   0.83333   0.00000  Uiso   1.00
C1155  C     0.34281   0.90701   0.83333   0.00000  Uiso   1.00
C1156  C    -0.00000   0.66333   0.71528   0.00000  Uiso   1.00
C1157  C     0.00000   0.83667   0.95139   0.00000  Uiso   1.00
C1158  C     0.00000   0.83667   0.71528   0.00000  Uiso   1.00
C1159  C    -0.00000   0.66333   0.95139   0.00000  Uiso   1.00
C1160  C     0.25000   0.91333   0.71528   0.00000  Uiso   1.00
C1161  C     0.25000   0.58667   0.95139   0.00000  Uiso   1.00
C1162  C     0.25000   0.58667   0.71528   0.00000  Uiso   1.00
C1163  C     0.25000   0.91333   0.95139   0.00000  Uiso   1.00
C1164  C     0.30926   0.94051   0.83333   0.00000  Uiso   1.00
C1165  C     0.19074   0.55949   0.83333   0.00000  Uiso   1.00
C1166  C     0.19074   0.94051   0.83333   0.00000  Uiso   1.00
C1167  C     0.30926   0.55949   0.83333   0.00000  Uiso   1.00
C1168  C     0.00000   0.70955   0.69138   0.00000  Uiso   1.00
Cu1169 Cu    0.00000   0.75000   0.88022   0.00000  Uiso   1.00
Cu1170 Cu    0.00000   0.75000   0.78645   0.00000  Uiso   1.00
Cu1171 Cu    0.25000   0.50000   0.88022   0.00000  Uiso   1.00
Cu1172 Cu    0.25000   0.50000   0.78645   0.00000  Uiso   1.00
H1173  H     0.40301   0.65289   0.75878   0.00000  Uiso   1.00
H1174  H     0.34699   0.59712   0.90789   0.00000  Uiso   1.00
H1175  H     0.34699   0.59711   0.75878   0.00000  Uiso   1.00
H1176  H     0.15301   0.90289   0.90789   0.00000  Uiso   1.00
H1177  H     0.34699   0.90289   0.90789   0.00000  Uiso   1.00
H1178  H     0.15301   0.59712   0.75878   0.00000  Uiso   1.00
H1179  H     0.15301   0.59711   0.90789   0.00000  Uiso   1.00
H1180  H     0.34699   0.90289   0.75878   0.00000  Uiso   1.00
H1181  H     0.00000   0.66347   0.75253   0.00000  Uiso   1.00
H1182  H     0.47161   0.64378   0.70552   0.00000  Uiso   1.00
H1183  H     0.02839   0.64378   0.70552   0.00000  Uiso   1.00
H1184  H     0.09699   0.84712   0.90789   0.00000  Uiso   1.00
H1185  H    -0.00000   0.83653   0.91414   0.00000  Uiso   1.00
H1186  H     0.47161   0.85622   0.96115   0.00000  Uiso   1.00
H1187  H     0.02839   0.85622   0.96115   0.00000  Uiso   1.00
H1188  H    -0.00000   0.83653   0.75253   0.00000  Uiso   1.00
H1189  H     0.02839   0.85622   0.70552   0.00000  Uiso   1.00
H1190  H     0.47161   0.85622   0.70552   0.00000  Uiso   1.00
H1191  H     0.00000   0.66347   0.91414   0.00000  Uiso   1.00
H1192  H     0.02839   0.64378   0.96115   0.00000  Uiso   1.00
H1193  H     0.47161   0.64378   0.96115   0.00000  Uiso   1.00
H1194  H     0.25000   0.91347   0.75253   0.00000  Uiso   1.00
H1195  H     0.09699   0.84711   0.75878   0.00000  Uiso   1.00
H1196  H     0.22161   0.89378   0.70552   0.00000  Uiso   1.00
H1197  H     0.27839   0.89378   0.70552   0.00000  Uiso   1.00
H1198  H     0.25000   0.58653   0.91414   0.00000  Uiso   1.00
H1199  H     0.22161   0.60622   0.96115   0.00000  Uiso   1.00
H1200  H     0.27839   0.60622   0.96115   0.00000  Uiso   1.00
H1201  H     0.25000   0.58653   0.75253   0.00000  Uiso   1.00
H1202  H     0.27839   0.60622   0.70552   0.00000  Uiso   1.00
H1203  H     0.22161   0.60622   0.70552   0.00000  Uiso   1.00
H1204  H     0.25000   0.91347   0.91414   0.00000  Uiso   1.00
H1205  H     0.27839   0.89378   0.96115   0.00000  Uiso   1.00
H1206  H     0.40301   0.65289   0.90789   0.00000  Uiso   1.00
H1207  H     0.22161   0.89378   0.96115   0.00000  Uiso   1.00
H1208  H     0.09699   0.65289   0.90789   0.00000  Uiso   1.00
H1209  H     0.40301   0.84712   0.75878   0.00000  Uiso   1.00
H1210  H     0.40301   0.84711   0.90789   0.00000  Uiso   1.00
H1211  H     0.09699   0.65289   0.75878   0.00000  Uiso   1.00
H1212  H     0.15301   0.90289   0.75878   0.00000  Uiso   1.00
N1213  N     0.00000   0.75000   0.95069   0.00000  Uiso   1.00
N1214  N     0.00000   0.75000   0.71598   0.00000  Uiso   1.00
N1215  N     0.25000   0.50000   0.95069   0.00000  Uiso   1.00
N1216  N     0.25000   0.50000   0.71598   0.00000  Uiso   1.00
O1217  O     0.04508   0.70491   0.87291   0.00000  Uiso   1.00
O1218  O     0.20491   0.54509   0.79375   0.00000  Uiso   1.00
O1219  O     0.20491   0.54509   0.87291   0.00000  Uiso   1.00
O1220  O     0.29508   0.95491   0.79375   0.00000  Uiso   1.00
O1221  O     0.20491   0.95491   0.79375   0.00000  Uiso   1.00
O1222  O     0.29508   0.54509   0.87291   0.00000  Uiso   1.00
O1223  O     0.29508   0.54509   0.79375   0.00000  Uiso   1.00
O1224  O     0.20491   0.95491   0.87291   0.00000  Uiso   1.00
O1225  O     0.45491   0.79509   0.79375   0.00000  Uiso   1.00
O1226  O     0.45491   0.79509   0.87291   0.00000  Uiso   1.00
O1227  O     0.04508   0.70491   0.79375   0.00000  Uiso   1.00
O1228  O     0.45491   0.70491   0.79375   0.00000  Uiso   1.00
O1229  O     0.04508   0.79509   0.87291   0.00000  Uiso   1.00
O1230  O     0.04508   0.79509   0.79375   0.00000  Uiso   1.00
O1231  O     0.45491   0.70491   0.87291   0.00000  Uiso   1.00
O1232  O     0.29508   0.95491   0.87291   0.00000  Uiso   1.00
C1233  C     0.55926   0.69051   0.83333   0.00000  Uiso   1.00
C1234  C     0.50000   0.79045   0.97529   0.00000  Uiso   1.00
C1235  C     0.50000   0.79045   0.69138   0.00000  Uiso   1.00
C1236  C     0.50000   0.70955   0.97529   0.00000  Uiso   1.00
C1237  C     0.75000   0.95955   0.69138   0.00000  Uiso   1.00
C1238  C     0.75000   0.54045   0.97529   0.00000  Uiso   1.00
C1239  C     0.75000   0.54045   0.69138   0.00000  Uiso   1.00
C1240  C     0.75000   0.95955   0.97529   0.00000  Uiso   1.00
C1241  C     0.89102   0.64092   0.79151   0.00000  Uiso   1.00
C1242  C     0.60898   0.85908   0.87516   0.00000  Uiso   1.00
C1243  C     0.60898   0.85908   0.79151   0.00000  Uiso   1.00
C1244  C     0.94074   0.80949   0.83333   0.00000  Uiso   1.00
C1245  C     0.89102   0.64092   0.87516   0.00000  Uiso   1.00
C1246  C     0.60898   0.64092   0.87516   0.00000  Uiso   1.00
C1247  C     0.89102   0.85908   0.79151   0.00000  Uiso   1.00
C1248  C     0.89102   0.85908   0.87516   0.00000  Uiso   1.00
C1249  C     0.60898   0.64092   0.79151   0.00000  Uiso   1.00
C1250  C     0.64102   0.89092   0.79151   0.00000  Uiso   1.00
C1251  C     0.85898   0.60908   0.87516   0.00000  Uiso   1.00
C1252  C     0.85898   0.60908   0.79151   0.00000  Uiso   1.00
C1253  C     0.64102   0.89092   0.87516   0.00000  Uiso   1.00
C1254  C     0.85898   0.89092   0.87516   0.00000  Uiso   1.00
C1255  C     0.94074   0.69051   0.83333   0.00000  Uiso   1.00
C1256  C     0.64102   0.60908   0.79151   0.00000  Uiso   1.00
C1257  C     0.64102   0.60908   0.87516   0.00000  Uiso   1.00
C1258  C     0.85898   0.89092   0.79151   0.00000  Uiso   1.00
C1259  C     0.59281   0.84299   0.83333   0.00000  Uiso   1.00
C1260  C     0.90719   0.65701   0.83333   0.00000  Uiso   1.00
C1261  C     0.90719   0.84299   0.83333   0.00000  Uiso   1.00
C1262  C     0.59281   0.65701   0.83333   0.00000  Uiso   1.00
C1263  C     0.84281   0.59299   0.83333   0.00000  Uiso   1.00
C1264  C     0.65719   0.90701   0.83333   0.00000  Uiso   1.00
C1265  C     0.65719   0.59299   0.83333   0.00000  Uiso   1.00
C1266  C     0.55926   0.80949   0.83333   0.00000  Uiso   1.00
C1267  C     0.84281   0.90701   0.83333   0.00000  Uiso   1.00
C1268  C     0.50000   0.66333   0.71528   0.00000  Uiso   1.00
C1269  C     0.50000   0.83667   0.95139   0.00000  Uiso   1.00
C1270  C     0.50000   0.83667   0.71528   0.00000  Uiso   1.00
C1271  C     0.50000   0.66333   0.95139   0.00000  Uiso   1.00
C1272  C     0.75000   0.91333   0.71528   0.00000  Uiso   1.00
C1273  C     0.75000   0.58667   0.95139   0.00000  Uiso   1.00
C1274  C     0.75000   0.58667   0.71528   0.00000  Uiso   1.00
C1275  C     0.75000   0.91333   0.95139   0.00000  Uiso   1.00
C1276  C     0.80926   0.94051   0.83333   0.00000  Uiso   1.00
C1277  C     0.69074   0.55949   0.83333   0.00000  Uiso   1.00
C1278  C     0.69074   0.94051   0.83333   0.00000  Uiso   1.00
C1279  C     0.80926   0.55949   0.83333   0.00000  Uiso   1.00
C1280  C     0.50000   0.70955   0.69138   0.00000  Uiso   1.00
Cu1281 Cu    0.50000   0.75000   0.88022   0.00000  Uiso   1.00
Cu1282 Cu    0.50000   0.75000   0.78645   0.00000  Uiso   1.00
Cu1283 Cu    0.75000   0.50000   0.88022   0.00000  Uiso   1.00
Cu1284 Cu    0.75000   0.50000   0.78645   0.00000  Uiso   1.00
H1285  H     0.90301   0.65289   0.75878   0.00000  Uiso   1.00
H1286  H     0.84699   0.59712   0.90789   0.00000  Uiso   1.00
H1287  H     0.84699   0.59711   0.75878   0.00000  Uiso   1.00
H1288  H     0.65301   0.90289   0.90789   0.00000  Uiso   1.00
H1289  H     0.84699   0.90289   0.90789   0.00000  Uiso   1.00
H1290  H     0.65301   0.59712   0.75878   0.00000  Uiso   1.00
H1291  H     0.65301   0.59711   0.90789   0.00000  Uiso   1.00
H1292  H     0.84699   0.90289   0.75878   0.00000  Uiso   1.00
H1293  H     0.50000   0.66347   0.75253   0.00000  Uiso   1.00
H1294  H     0.97161   0.64378   0.70552   0.00000  Uiso   1.00
H1295  H     0.52839   0.64378   0.70552   0.00000  Uiso   1.00
H1296  H     0.59699   0.84712   0.90789   0.00000  Uiso   1.00
H1297  H     0.50000   0.83653   0.91414   0.00000  Uiso   1.00
H1298  H     0.97161   0.85622   0.96115   0.00000  Uiso   1.00
H1299  H     0.52839   0.85622   0.96115   0.00000  Uiso   1.00
H1300  H     0.50000   0.83653   0.75253   0.00000  Uiso   1.00
H1301  H     0.52839   0.85622   0.70552   0.00000  Uiso   1.00
H1302  H     0.97161   0.85622   0.70552   0.00000  Uiso   1.00
H1303  H     0.50000   0.66347   0.91414   0.00000  Uiso   1.00
H1304  H     0.52839   0.64378   0.96115   0.00000  Uiso   1.00
H1305  H     0.97161   0.64378   0.96115   0.00000  Uiso   1.00
H1306  H     0.75000   0.91347   0.75253   0.00000  Uiso   1.00
H1307  H     0.59699   0.84711   0.75878   0.00000  Uiso   1.00
H1308  H     0.72161   0.89378   0.70552   0.00000  Uiso   1.00
H1309  H     0.77839   0.89378   0.70552   0.00000  Uiso   1.00
H1310  H     0.75000   0.58653   0.91414   0.00000  Uiso   1.00
H1311  H     0.72161   0.60622   0.96115   0.00000  Uiso   1.00
H1312  H     0.77839   0.60622   0.96115   0.00000  Uiso   1.00
H1313  H     0.75000   0.58653   0.75253   0.00000  Uiso   1.00
H1314  H     0.77839   0.60622   0.70552   0.00000  Uiso   1.00
H1315  H     0.72161   0.60622   0.70552   0.00000  Uiso   1.00
H1316  H     0.75000   0.91347   0.91414   0.00000  Uiso   1.00
H1317  H     0.77839   0.89378   0.96115   0.00000  Uiso   1.00
H1318  H     0.90301   0.65289   0.90789   0.00000  Uiso   1.00
H1319  H     0.72161   0.89378   0.96115   0.00000  Uiso   1.00
H1320  H     0.59699   0.65289   0.90789   0.00000  Uiso   1.00
H1321  H     0.90301   0.84712   0.75878   0.00000  Uiso   1.00
H1322  H     0.90301   0.84711   0.90789   0.00000  Uiso   1.00
H1323  H     0.59699   0.65289   0.75878   0.00000  Uiso   1.00
H1324  H     0.65301   0.90289   0.75878   0.00000  Uiso   1.00
N1325  N     0.50000   0.75000   0.95069   0.00000  Uiso   1.00
N1326  N     0.50000   0.75000   0.71598   0.00000  Uiso   1.00
N1327  N     0.75000   0.50000   0.95069   0.00000  Uiso   1.00
N1328  N     0.75000   0.50000   0.71598   0.00000  Uiso   1.00
O1329  O     0.54508   0.70491   0.87291   0.00000  Uiso   1.00
O1330  O     0.70491   0.54509   0.79375   0.00000  Uiso   1.00
O1331  O     0.70491   0.54509   0.87291   0.00000  Uiso   1.00
O1332  O     0.79508   0.95491   0.79375   0.00000  Uiso   1.00
O1333  O     0.70491   0.95491   0.79375   0.00000  Uiso   1.00
O1334  O     0.79508   0.54509   0.87291   0.00000  Uiso   1.00
O1335  O     0.79508   0.54509   0.79375   0.00000  Uiso   1.00
O1336  O     0.70491   0.95491   0.87291   0.00000  Uiso   1.00
O1337  O     0.95491   0.79509   0.79375   0.00000  Uiso   1.00
O1338  O     0.95491   0.79509   0.87291   0.00000  Uiso   1.00
O1339  O     0.54508   0.70491   0.79375   0.00000  Uiso   1.00
O1340  O     0.95491   0.70491   0.79375   0.00000  Uiso   1.00
O1341  O     0.54508   0.79509   0.87291   0.00000  Uiso   1.00
O1342  O     0.54508   0.79509   0.79375   0.00000  Uiso   1.00
O1343  O     0.95491   0.70491   0.87291   0.00000  Uiso   1.00
O1344  O     0.79508   0.95491   0.87291   0.00000  Uiso   1.00
loop_
_geom_bond_atom_site_label_1
_geom_bond_atom_site_label_2
_geom_bond_distance
_geom_bond_site_symmetry_2
_ccdc_geom_bond_type
C1     O97     1.305   .     A
C1     O107    1.305   .     A
C1     C30     1.453   .     S
C2     C451    1.436   .     S
C2     C37     1.520   .     S
C2     N93     1.383   .     S
C3     C38     1.520   .     S
C3     N94     1.383   .     A
C3     C898    1.436   1_554 S
C4     N93     1.383   .     A
C4     C39     1.520   .     S
C4     C496    1.436   .     S
C5     C40     1.520   .     S
C5     C904    1.436   1_554 S
C5     N320    1.383   .     S
C6     C41     1.520   .     S
C6     N95     1.383   .     A
C6     C455    1.436   .     S
C7     C42     1.520   .     S
C7     N96     1.383   .     A
C7     C902    1.436   1_554 S
C8     C43     1.520   .     S
C8     C453    1.436   .     S
C8     N319    1.383   .     S
C9     C20     1.384   .     A
C9     H53     1.083   .     S
C9     C28     1.402   .     A
C10    C27     1.402   .     A
C10    C21     1.384   .     A
C10    H64     1.083   .     S
C11    C18     1.384   .     A
C11    C27     1.402   .     A
C11    H75     1.083   .     S
C12    C29     1.453   .     S
C12    O105    1.305   .     A
C12    O106    1.305   .     A
C13    H86     1.083   .     S
C13    C28     1.402   .     A
C13    C19     1.384   .     A
C14    C30     1.402   .     A
C14    C25     1.384   .     A
C14    H88     1.083   .     S
C15    C29     1.402   .     A
C15    C26     1.384   .     A
C15    H89     1.083   .     S
C16    H90     1.083   .     S
C16    C22     1.384   .     A
C16    C29     1.402   .     A
C17    C30     1.402   .     A
C17    C24     1.384   .     A
C17    H91     1.083   .     S
C18    H92     1.083   .     S
C18    C32     1.402   .     A
C19    C31     1.402   .     A
C19    H54     1.083   .     S
C20    H55     1.083   .     S
C20    C31     1.402   .     A
C21    C32     1.402   .     A
C21    H56     1.083   .     S
C22    C35     1.402   .     A
C22    H57     1.083   .     S
C23    C28     1.453   .     S
C23    O111    1.305   .     A
C23    O108    1.305   .     A
C24    C33     1.402   .     A
C24    H58     1.083   .     S
C25    H59     1.083   .     S
C25    C33     1.402   .     A
C26    C35     1.402   .     A
C26    H60     1.083   .     S
C27    C34     1.453   .     S
C31    C47     1.453   .     S
C32    C46     1.453   .     S
C33    C45     1.453   .     S
C34    O110    1.305   .     A
C34    O109    1.305   .     A
C35    C44     1.453   .     S
C36    H174    1.109   1_455 S
C36    C48     1.520   .     S
C36    H61     1.082   .     S
C36    H63     1.109   .     S
C37    H67     1.109   .     S
C37    H65     1.082   .     S
C37    H178    1.109   1_455 S
C38    H69     1.109   .     S
C38    H68     1.082   .     S
C38    H182    1.109   1_455 S
C39    H185    1.109   1_455 S
C39    H71     1.082   .     S
C39    H72     1.109   .     S
C40    H76     1.109   .     S
C40    H74     1.082   .     S
C40    H77     1.109   .     S
C41    H80     1.109   .     S
C41    H78     1.082   .     S
C41    H79     1.109   .     S
C42    H82     1.109   .     S
C42    H81     1.082   .     S
C42    H83     1.109   .     S
C43    H84     1.082   .     S
C43    H85     1.109   .     S
C43    H87     1.109   .     S
C44    O112    1.305   .     A
C44    O100    1.305   .     A
C45    O98     1.305   .     A
C45    O99     1.305   .     A
C46    O101    1.305   .     A
C46    O104    1.305   .     A
C47    O102    1.305   .     A
C47    O103    1.305   .     A
C48    N94     1.383   .     A
C48    C900    1.436   1_554 S
Cu49   O109    1.965   .     S
Cu49   O97     1.965   .     S
Cu49   Cu50    2.724   .     S
Cu49   N93     2.047   .     S
Cu49   O218    1.965   1_455 S
Cu49   O223    1.965   1_455 S
Cu50   O110    1.965   .     S
Cu50   N94     2.047   .     S
Cu50   O107    1.965   .     S
Cu50   O217    1.965   1_455 S
Cu50   O220    1.965   1_455 S
Cu51   O102    1.965   .     S
Cu51   O99     1.965   .     S
Cu51   Cu52    2.724   .     S
Cu51   N95     2.047   .     S
Cu51   O328    1.965   1_545 S
Cu51   O336    1.965   1_545 S
Cu52   O103    1.965   .     S
Cu52   N96     2.047   .     S
Cu52   O98     1.965   .     S
Cu52   O324    1.965   1_545 S
Cu52   O325    1.965   1_545 S
H62    C148    1.109   .     S
H66    C149    1.109   .     S
H70    C150    1.109   .     S
H73    C151    1.109   .     S
N95    C232    1.383   1_545 S
N96    C229    1.383   1_545 S
O100   Cu276   1.965   .     S
O101   Cu276   1.965   .     S
O104   Cu275   1.965   .     S
O105   Cu162   1.965   .     S
O106   Cu161   1.965   .     S
O108   Cu162   1.965   .     S
O111   Cu161   1.965   .     S
O112   Cu275   1.965   .     S
C113   O209    1.305   .     A
C113   O219    1.305   .     A
C113   C142    1.453   .     S
C114   C563    1.436   .     S
C114   C149    1.520   .     S
C114   N205    1.383   .     S
C115   C150    1.520   .     S
C115   N206    1.383   .     A
C115   C1010   1.436   1_554 S
C116   N205    1.383   .     A
C116   C151    1.520   .     S
C116   C608    1.436   .     S
C117   C152    1.520   .     S
C117   C1016   1.436   1_554 S
C117   N432    1.383   .     S
C118   C153    1.520   .     S
C118   N207    1.383   .     A
C118   C567    1.436   .     S
C119   C154    1.520   .     S
C119   N208    1.383   .     A
C119   C1014   1.436   1_554 S
C120   C155    1.520   .     S
C120   C565    1.436   .     S
C120   N431    1.383   .     S
C121   C132    1.384   .     A
C121   H165    1.083   .     S
C121   C140    1.402   .     A
C122   C139    1.402   .     A
C122   C133    1.384   .     A
C122   H176    1.083   .     S
C123   C130    1.384   .     A
C123   C139    1.402   .     A
C123   H187    1.083   .     S
C124   C141    1.453   .     S
C124   O217    1.305   .     A
C124   O218    1.305   .     A
C125   H198    1.083   .     S
C125   C140    1.402   .     A
C125   C131    1.384   .     A
C126   C142    1.402   .     A
C126   C137    1.384   .     A
C126   H200    1.083   .     S
C127   C141    1.402   .     A
C127   C138    1.384   .     A
C127   H201    1.083   .     S
C128   H202    1.083   .     S
C128   C134    1.384   .     A
C128   C141    1.402   .     A
C129   C142    1.402   .     A
C129   C136    1.384   .     A
C129   H203    1.083   .     S
C130   H204    1.083   .     S
C130   C144    1.402   .     A
C131   C143    1.402   .     A
C131   H166    1.083   .     S
C132   H167    1.083   .     S
C132   C143    1.402   .     A
C133   C144    1.402   .     A
C133   H168    1.083   .     S
C134   C147    1.402   .     A
C134   H169    1.083   .     S
C135   C140    1.453   .     S
C135   O223    1.305   .     A
C135   O220    1.305   .     A
C136   C145    1.402   .     A
C136   H170    1.083   .     S
C137   H171    1.083   .     S
C137   C145    1.402   .     A
C138   C147    1.402   .     A
C138   H172    1.083   .     S
C139   C146    1.453   .     S
C143   C159    1.453   .     S
C144   C158    1.453   .     S
C145   C157    1.453   .     S
C146   O222    1.305   .     A
C146   O221    1.305   .     A
C147   C156    1.453   .     S
C148   C160    1.520   .     S
C148   H173    1.082   .     S
C148   H175    1.109   .     S
C149   H179    1.109   .     S
C149   H177    1.082   .     S
C150   H181    1.109   .     S
C150   H180    1.082   .     S
C151   H183    1.082   .     S
C151   H184    1.109   .     S
C152   H188    1.109   .     S
C152   H186    1.082   .     S
C152   H189    1.109   .     S
C153   H192    1.109   .     S
C153   H190    1.082   .     S
C153   H191    1.109   .     S
C154   H194    1.109   .     S
C154   H193    1.082   .     S
C154   H195    1.109   .     S
C155   H196    1.082   .     S
C155   H197    1.109   .     S
C155   H199    1.109   .     S
C156   O224    1.305   .     A
C156   O212    1.305   .     A
C157   O210    1.305   .     A
C157   O211    1.305   .     A
C158   O213    1.305   .     A
C158   O216    1.305   .     A
C159   O214    1.305   .     A
C159   O215    1.305   .     A
C160   N206    1.383   .     A
C160   C1012   1.436   1_554 S
Cu161  O221    1.965   .     S
Cu161  O209    1.965   .     S
Cu161  Cu162   2.724   .     S
Cu161  N205    2.047   .     S
Cu162  O222    1.965   .     S
Cu162  N206    2.047   .     S
Cu162  O219    1.965   .     S
Cu163  O214    1.965   .     S
Cu163  O211    1.965   .     S
Cu163  Cu164   2.724   .     S
Cu163  N207    2.047   .     S
Cu163  O440    1.965   1_545 S
Cu163  O448    1.965   1_545 S
Cu164  O215    1.965   .     S
Cu164  N208    2.047   .     S
Cu164  O210    1.965   .     S
Cu164  O436    1.965   1_545 S
Cu164  O437    1.965   1_545 S
H174   C36     1.109   1_655 S
H178   C37     1.109   1_655 S
H182   C38     1.109   1_655 S
H185   C39     1.109   1_655 S
N207   C344    1.383   1_545 S
N208   C341    1.383   1_545 S
O212   Cu388   1.965   .     S
O213   Cu388   1.965   .     S
O216   Cu387   1.965   .     S
O217   Cu50    1.965   1_655 S
O218   Cu49    1.965   1_655 S
O220   Cu50    1.965   1_655 S
O223   Cu49    1.965   1_655 S
O224   Cu387   1.965   .     S
C225   O321    1.305   .     A
C225   O331    1.305   .     A
C225   C254    1.453   .     S
C226   C675    1.436   .     S
C226   C261    1.520   .     S
C226   N317    1.383   .     S
C227   C262    1.520   .     S
C227   N318    1.383   .     A
C227   C1122   1.436   1_554 S
C228   N317    1.383   .     A
C228   C263    1.520   .     S
C228   C720    1.436   .     S
C229   C264    1.520   .     S
C229   C1128   1.436   1_554 S
C229   N96     1.383   1_565 S
C230   C265    1.520   .     S
C230   N319    1.383   .     A
C230   C679    1.436   .     S
C231   C266    1.520   .     S
C231   N320    1.383   .     A
C231   C1126   1.436   1_554 S
C232   C267    1.520   .     S
C232   C677    1.436   .     S
C232   N95     1.383   1_565 S
C233   C244    1.384   .     A
C233   H277    1.083   .     S
C233   C252    1.402   .     A
C234   C251    1.402   .     A
C234   C245    1.384   .     A
C234   H288    1.083   .     S
C235   C242    1.384   .     A
C235   C251    1.402   .     A
C235   H299    1.083   .     S
C236   C253    1.453   .     S
C236   O329    1.305   .     A
C236   O330    1.305   .     A
C237   H310    1.083   .     S
C237   C252    1.402   .     A
C237   C243    1.384   .     A
C238   C254    1.402   .     A
C238   C249    1.384   .     A
C238   H312    1.083   .     S
C239   C253    1.402   .     A
C239   C250    1.384   .     A
C239   H313    1.083   .     S
C240   H314    1.083   .     S
C240   C246    1.384   .     A
C240   C253    1.402   .     A
C241   C254    1.402   .     A
C241   C248    1.384   .     A
C241   H315    1.083   .     S
C242   H316    1.083   .     S
C242   C256    1.402   .     A
C243   C255    1.402   .     A
C243   H278    1.083   .     S
C244   H279    1.083   .     S
C244   C255    1.402   .     A
C245   C256    1.402   .     A
C245   H280    1.083   .     S
C246   C259    1.402   .     A
C246   H281    1.083   .     S
C247   C252    1.453   .     S
C247   O335    1.305   .     A
C247   O332    1.305   .     A
C248   C257    1.402   .     A
C248   H282    1.083   .     S
C249   H283    1.083   .     S
C249   C257    1.402   .     A
C250   C259    1.402   .     A
C250   H284    1.083   .     S
C251   C258    1.453   .     S
C255   C271    1.453   .     S
C256   C270    1.453   .     S
C257   C269    1.453   .     S
C258   O334    1.305   .     A
C258   O333    1.305   .     A
C259   C268    1.453   .     S
C260   H398    1.109   1_455 S
C260   C272    1.520   .     S
C260   H285    1.082   .     S
C260   H287    1.109   .     S
C261   H291    1.109   .     S
C261   H289    1.082   .     S
C261   H402    1.109   1_455 S
C262   H293    1.109   .     S
C262   H292    1.082   .     S
C262   H406    1.109   1_455 S
C263   H409    1.109   1_455 S
C263   H295    1.082   .     S
C263   H296    1.109   .     S
C264   H300    1.109   .     S
C264   H298    1.082   .     S
C264   H301    1.109   .     S
C265   H304    1.109   .     S
C265   H302    1.082   .     S
C265   H303    1.109   .     S
C266   H306    1.109   .     S
C266   H305    1.082   .     S
C266   H307    1.109   .     S
C267   H308    1.082   .     S
C267   H309    1.109   .     S
C267   H311    1.109   .     S
C268   O336    1.305   .     A
C268   O324    1.305   .     A
C269   O322    1.305   .     A
C269   O323    1.305   .     A
C270   O325    1.305   .     A
C270   O328    1.305   .     A
C271   O326    1.305   .     A
C271   O327    1.305   .     A
C272   N318    1.383   .     A
C272   C1124   1.436   1_554 S
Cu273  O333    1.965   .     S
Cu273  O321    1.965   .     S
Cu273  Cu274   2.724   .     S
Cu273  N317    2.047   .     S
Cu273  O442    1.965   1_455 S
Cu273  O447    1.965   1_455 S
Cu274  O334    1.965   .     S
Cu274  N318    2.047   .     S
Cu274  O331    1.965   .     S
Cu274  O441    1.965   1_455 S
Cu274  O444    1.965   1_455 S
Cu275  O326    1.965   .     S
Cu275  O323    1.965   .     S
Cu275  Cu276   2.724   .     S
Cu275  N319    2.047   .     S
Cu276  O327    1.965   .     S
Cu276  N320    2.047   .     S
Cu276  O322    1.965   .     S
H286   C372    1.109   .     S
H290   C373    1.109   .     S
H294   C374    1.109   .     S
H297   C375    1.109   .     S
O324   Cu52    1.965   1_565 S
O325   Cu52    1.965   1_565 S
O328   Cu51    1.965   1_565 S
O329   Cu386   1.965   .     S
O330   Cu385   1.965   .     S
O332   Cu386   1.965   .     S
O335   Cu385   1.965   .     S
O336   Cu51    1.965   1_565 S
C337   O433    1.305   .     A
C337   O443    1.305   .     A
C337   C366    1.453   .     S
C338   C787    1.436   .     S
C338   C373    1.520   .     S
C338   N429    1.383   .     S
C339   C374    1.520   .     S
C339   N430    1.383   .     A
C339   C1234   1.436   1_554 S
C340   N429    1.383   .     A
C340   C375    1.520   .     S
C340   C832    1.436   .     S
C341   C376    1.520   .     S
C341   C1240   1.436   1_554 S
C341   N208    1.383   1_565 S
C342   C377    1.520   .     S
C342   N431    1.383   .     A
C342   C791    1.436   .     S
C343   C378    1.520   .     S
C343   N432    1.383   .     A
C343   C1238   1.436   1_554 S
C344   C379    1.520   .     S
C344   C789    1.436   .     S
C344   N207    1.383   1_565 S
C345   C356    1.384   .     A
C345   H389    1.083   .     S
C345   C364    1.402   .     A
C346   C363    1.402   .     A
C346   C357    1.384   .     A
C346   H400    1.083   .     S
C347   C354    1.384   .     A
C347   C363    1.402   .     A
C347   H411    1.083   .     S
C348   C365    1.453   .     S
C348   O441    1.305   .     A
C348   O442    1.305   .     A
C349   H422    1.083   .     S
C349   C364    1.402   .     A
C349   C355    1.384   .     A
C350   C366    1.402   .     A
C350   C361    1.384   .     A
C350   H424    1.083   .     S
C351   C365    1.402   .     A
C351   C362    1.384   .     A
C351   H425    1.083   .     S
C352   H426    1.083   .     S
C352   C358    1.384   .     A
C352   C365    1.402   .     A
C353   C366    1.402   .     A
C353   C360    1.384   .     A
C353   H427    1.083   .     S
C354   H428    1.083   .     S
C354   C368    1.402   .     A
C355   C367    1.402   .     A
C355   H390    1.083   .     S
C356   H391    1.083   .     S
C356   C367    1.402   .     A
C357   C368    1.402   .     A
C357   H392    1.083   .     S
C358   C371    1.402   .     A
C358   H393    1.083   .     S
C359   C364    1.453   .     S
C359   O447    1.305   .     A
C359   O444    1.305   .     A
C360   C369    1.402   .     A
C360   H394    1.083   .     S
C361   H395    1.083   .     S
C361   C369    1.402   .     A
C362   C371    1.402   .     A
C362   H396    1.083   .     S
C363   C370    1.453   .     S
C367   C383    1.453   .     S
C368   C382    1.453   .     S
C369   C381    1.453   .     S
C370   O446    1.305   .     A
C370   O445    1.305   .     A
C371   C380    1.453   .     S
C372   C384    1.520   .     S
C372   H397    1.082   .     S
C372   H399    1.109   .     S
C373   H403    1.109   .     S
C373   H401    1.082   .     S
C374   H405    1.109   .     S
C374   H404    1.082   .     S
C375   H407    1.082   .     S
C375   H408    1.109   .     S
C376   H412    1.109   .     S
C376   H410    1.082   .     S
C376   H413    1.109   .     S
C377   H416    1.109   .     S
C377   H414    1.082   .     S
C377   H415    1.109   .     S
C378   H418    1.109   .     S
C378   H417    1.082   .     S
C378   H419    1.109   .     S
C379   H420    1.082   .     S
C379   H421    1.109   .     S
C379   H423    1.109   .     S
C380   O448    1.305   .     A
C380   O436    1.305   .     A
C381   O434    1.305   .     A
C381   O435    1.305   .     A
C382   O437    1.305   .     A
C382   O440    1.305   .     A
C383   O438    1.305   .     A
C383   O439    1.305   .     A
C384   N430    1.383   .     A
C384   C1236   1.436   1_554 S
Cu385  O445    1.965   .     S
Cu385  O433    1.965   .     S
Cu385  Cu386   2.724   .     S
Cu385  N429    2.047   .     S
Cu386  O446    1.965   .     S
Cu386  N430    2.047   .     S
Cu386  O443    1.965   .     S
Cu387  O438    1.965   .     S
Cu387  O435    1.965   .     S
Cu387  Cu388   2.724   .     S
Cu387  N431    2.047   .     S
Cu388  O439    1.965   .     S
Cu388  N432    2.047   .     S
Cu388  O434    1.965   .     S
H398   C260    1.109   1_655 S
H402   C261    1.109   1_655 S
H406   C262    1.109   1_655 S
H409   C263    1.109   1_655 S
O436   Cu164   1.965   1_565 S
O437   Cu164   1.965   1_565 S
O440   Cu163   1.965   1_565 S
O441   Cu274   1.965   1_655 S
O442   Cu273   1.965   1_655 S
O444   Cu274   1.965   1_655 S
O447   Cu273   1.965   1_655 S
O448   Cu163   1.965   1_565 S
C449   O545    1.305   .     A
C449   O555    1.305   .     A
C449   C478    1.453   .     S
C450   C899    1.436   .     S
C450   C485    1.520   .     S
C450   N541    1.383   .     S
C451   C486    1.520   .     S
C451   N542    1.383   .     A
C452   N541    1.383   .     A
C452   C487    1.520   .     S
C452   C944    1.436   .     S
C453   C488    1.520   .     S
C453   N768    1.383   .     S
C454   C489    1.520   .     S
C454   N543    1.383   .     A
C454   C903    1.436   .     S
C455   C490    1.520   .     S
C455   N544    1.383   .     A
C456   C491    1.520   .     S
C456   C901    1.436   .     S
C456   N767    1.383   .     S
C457   C468    1.384   .     A
C457   H501    1.083   .     S
C457   C476    1.402   .     A
C458   C475    1.402   .     A
C458   C469    1.384   .     A
C458   H512    1.083   .     S
C459   C466    1.384   .     A
C459   C475    1.402   .     A
C459   H523    1.083   .     S
C460   C477    1.453   .     S
C460   O553    1.305   .     A
C460   O554    1.305   .     A
C461   H534    1.083   .     S
C461   C476    1.402   .     A
C461   C467    1.384   .     A
C462   C478    1.402   .     A
C462   C473    1.384   .     A
C462   H536    1.083   .     S
C463   C477    1.402   .     A
C463   C474    1.384   .     A
C463   H537    1.083   .     S
C464   H538    1.083   .     S
C464   C470    1.384   .     A
C464   C477    1.402   .     A
C465   C478    1.402   .     A
C465   C472    1.384   .     A
C465   H539    1.083   .     S
C466   H540    1.083   .     S
C466   C480    1.402   .     A
C467   C479    1.402   .     A
C467   H502    1.083   .     S
C468   H503    1.083   .     S
C468   C479    1.402   .     A
C469   C480    1.402   .     A
C469   H504    1.083   .     S
C470   C483    1.402   .     A
C470   H505    1.083   .     S
C471   C476    1.453   .     S
C471   O559    1.305   .     A
C471   O556    1.305   .     A
C472   C481    1.402   .     A
C472   H506    1.083   .     S
C473   H507    1.083   .     S
C473   C481    1.402   .     A
C474   C483    1.402   .     A
C474   H508    1.083   .     S
C475   C482    1.453   .     S
C479   C495    1.453   .     S
C480   C494    1.453   .     S
C481   C493    1.453   .     S
C482   O558    1.305   .     A
C482   O557    1.305   .     A
C483   C492    1.453   .     S
C484   H622    1.109   1_455 S
C484   C496    1.520   .     S
C484   H509    1.082   .     S
C484   H511    1.109   .     S
C485   H515    1.109   .     S
C485   H513    1.082   .     S
C485   H626    1.109   1_455 S
C486   H517    1.109   .     S
C486   H516    1.082   .     S
C486   H630    1.109   1_455 S
C487   H633    1.109   1_455 S
C487   H519    1.082   .     S
C487   H520    1.109   .     S
C488   H524    1.109   .     S
C488   H522    1.082   .     S
C488   H525    1.109   .     S
C489   H528    1.109   .     S
C489   H526    1.082   .     S
C489   H527    1.109   .     S
C490   H530    1.109   .     S
C490   H529    1.082   .     S
C490   H531    1.109   .     S
C491   H532    1.082   .     S
C491   H533    1.109   .     S
C491   H535    1.109   .     S
C492   O560    1.305   .     A
C492   O548    1.305   .     A
C493   O546    1.305   .     A
C493   O547    1.305   .     A
C494   O549    1.305   .     A
C494   O552    1.305   .     A
C495   O550    1.305   .     A
C495   O551    1.305   .     A
C496   N542    1.383   .     A
Cu497  O557    1.965   .     S
Cu497  O545    1.965   .     S
Cu497  Cu498   2.724   .     S
Cu497  N541    2.047   .     S
Cu497  O666    1.965   1_455 S
Cu497  O671    1.965   1_455 S
Cu498  O558    1.965   .     S
Cu498  N542    2.047   .     S
Cu498  O555    1.965   .     S
Cu498  O665    1.965   1_455 S
Cu498  O668    1.965   1_455 S
Cu499  O550    1.965   .     S
Cu499  O547    1.965   .     S
Cu499  Cu500   2.724   .     S
Cu499  N543    2.047   .     S
Cu499  O776    1.965   1_545 S
Cu499  O784    1.965   1_545 S
Cu500  O551    1.965   .     S
Cu500  N544    2.047   .     S
Cu500  O546    1.965   .     S
Cu500  O772    1.965   1_545 S
Cu500  O773    1.965   1_545 S
H510   C596    1.109   .     S
H514   C597    1.109   .     S
H518   C598    1.109   .     S
H521   C599    1.109   .     S
N543   C680    1.383   1_545 S
N544   C677    1.383   1_545 S
O548   Cu724   1.965   .     S
O549   Cu724   1.965   .     S
O552   Cu723   1.965   .     S
O553   Cu610   1.965   .     S
O554   Cu609   1.965   .     S
O556   Cu610   1.965   .     S
O559   Cu609   1.965   .     S
O560   Cu723   1.965   .     S
C561   O657    1.305   .     A
C561   O667    1.305   .     A
C561   C590    1.453   .     S
C562   C1011   1.436   .     S
C562   C597    1.520   .     S
C562   N653    1.383   .     S
C563   C598    1.520   .     S
C563   N654    1.383   .     A
C564   N653    1.383   .     A
C564   C599    1.520   .     S
C564   C1056   1.436   .     S
C565   C600    1.520   .     S
C565   N880    1.383   .     S
C566   C601    1.520   .     S
C566   N655    1.383   .     A
C566   C1015   1.436   .     S
C567   C602    1.520   .     S
C567   N656    1.383   .     A
C568   C603    1.520   .     S
C568   C1013   1.436   .     S
C568   N879    1.383   .     S
C569   C580    1.384   .     A
C569   H613    1.083   .     S
C569   C588    1.402   .     A
C570   C587    1.402   .     A
C570   C581    1.384   .     A
C570   H624    1.083   .     S
C571   C578    1.384   .     A
C571   C587    1.402   .     A
C571   H635    1.083   .     S
C572   C589    1.453   .     S
C572   O665    1.305   .     A
C572   O666    1.305   .     A
C573   H646    1.083   .     S
C573   C588    1.402   .     A
C573   C579    1.384   .     A
C574   C590    1.402   .     A
C574   C585    1.384   .     A
C574   H648    1.083   .     S
C575   C589    1.402   .     A
C575   C586    1.384   .     A
C575   H649    1.083   .     S
C576   H650    1.083   .     S
C576   C582    1.384   .     A
C576   C589    1.402   .     A
C577   C590    1.402   .     A
C577   C584    1.384   .     A
C577   H651    1.083   .     S
C578   H652    1.083   .     S
C578   C592    1.402   .     A
C579   C591    1.402   .     A
C579   H614    1.083   .     S
C580   H615    1.083   .     S
C580   C591    1.402   .     A
C581   C592    1.402   .     A
C581   H616    1.083   .     S
C582   C595    1.402   .     A
C582   H617    1.083   .     S
C583   C588    1.453   .     S
C583   O671    1.305   .     A
C583   O668    1.305   .     A
C584   C593    1.402   .     A
C584   H618    1.083   .     S
C585   H619    1.083   .     S
C585   C593    1.402   .     A
C586   C595    1.402   .     A
C586   H620    1.083   .     S
C587   C594    1.453   .     S
C591   C607    1.453   .     S
C592   C606    1.453   .     S
C593   C605    1.453   .     S
C594   O670    1.305   .     A
C594   O669    1.305   .     A
C595   C604    1.453   .     S
C596   C608    1.520   .     S
C596   H621    1.082   .     S
C596   H623    1.109   .     S
C597   H627    1.109   .     S
C597   H625    1.082   .     S
C598   H629    1.109   .     S
C598   H628    1.082   .     S
C599   H631    1.082   .     S
C599   H632    1.109   .     S
C600   H636    1.109   .     S
C600   H634    1.082   .     S
C600   H637    1.109   .     S
C601   H640    1.109   .     S
C601   H638    1.082   .     S
C601   H639    1.109   .     S
C602   H642    1.109   .     S
C602   H641    1.082   .     S
C602   H643    1.109   .     S
C603   H644    1.082   .     S
C603   H645    1.109   .     S
C603   H647    1.109   .     S
C604   O672    1.305   .     A
C604   O660    1.305   .     A
C605   O658    1.305   .     A
C605   O659    1.305   .     A
C606   O661    1.305   .     A
C606   O664    1.305   .     A
C607   O662    1.305   .     A
C607   O663    1.305   .     A
C608   N654    1.383   .     A
Cu609  O669    1.965   .     S
Cu609  O657    1.965   .     S
Cu609  Cu610   2.724   .     S
Cu609  N653    2.047   .     S
Cu610  O670    1.965   .     S
Cu610  N654    2.047   .     S
Cu610  O667    1.965   .     S
Cu611  O662    1.965   .     S
Cu611  O659    1.965   .     S
Cu611  Cu612   2.724   .     S
Cu611  N655    2.047   .     S
Cu611  O888    1.965   1_545 S
Cu611  O896    1.965   1_545 S
Cu612  O663    1.965   .     S
Cu612  N656    2.047   .     S
Cu612  O658    1.965   .     S
Cu612  O884    1.965   1_545 S
Cu612  O885    1.965   1_545 S
H622   C484    1.109   1_655 S
H626   C485    1.109   1_655 S
H630   C486    1.109   1_655 S
H633   C487    1.109   1_655 S
N655   C792    1.383   1_545 S
N656   C789    1.383   1_545 S
O660   Cu836   1.965   .     S
O661   Cu836   1.965   .     S
O664   Cu835   1.965   .     S
O665   Cu498   1.965   1_655 S
O666   Cu497   1.965   1_655 S
O668   Cu498   1.965   1_655 S
O671   Cu497   1.965   1_655 S
O672   Cu835   1.965   .     S
C673   O769    1.305   .     A
C673   O779    1.305   .     A
C673   C702    1.453   .     S
C674   C1123   1.436   .     S
C674   C709    1.520   .     S
C674   N765    1.383   .     S
C675   C710    1.520   .     S
C675   N766    1.383   .     A
C676   N765    1.383   .     A
C676   C711    1.520   .     S
C676   C1168   1.436   .     S
C677   C712    1.520   .     S
C677   N544    1.383   1_565 S
C678   C713    1.520   .     S
C678   N767    1.383   .     A
C678   C1127   1.436   .     S
C679   C714    1.520   .     S
C679   N768    1.383   .     A
C680   C715    1.520   .     S
C680   C1125   1.436   .     S
C680   N543    1.383   1_565 S
C681   C692    1.384   .     A
C681   H725    1.083   .     S
C681   C700    1.402   .     A
C682   C699    1.402   .     A
C682   C693    1.384   .     A
C682   H736    1.083   .     S
C683   C690    1.384   .     A
C683   C699    1.402   .     A
C683   H747    1.083   .     S
C684   C701    1.453   .     S
C684   O777    1.305   .     A
C684   O778    1.305   .     A
C685   H758    1.083   .     S
C685   C700    1.402   .     A
C685   C691    1.384   .     A
C686   C702    1.402   .     A
C686   C697    1.384   .     A
C686   H760    1.083   .     S
C687   C701    1.402   .     A
C687   C698    1.384   .     A
C687   H761    1.083   .     S
C688   H762    1.083   .     S
C688   C694    1.384   .     A
C688   C701    1.402   .     A
C689   C702    1.402   .     A
C689   C696    1.384   .     A
C689   H763    1.083   .     S
C690   H764    1.083   .     S
C690   C704    1.402   .     A
C691   C703    1.402   .     A
C691   H726    1.083   .     S
C692   H727    1.083   .     S
C692   C703    1.402   .     A
C693   C704    1.402   .     A
C693   H728    1.083   .     S
C694   C707    1.402   .     A
C694   H729    1.083   .     S
C695   C700    1.453   .     S
C695   O783    1.305   .     A
C695   O780    1.305   .     A
C696   C705    1.402   .     A
C696   H730    1.083   .     S
C697   H731    1.083   .     S
C697   C705    1.402   .     A
C698   C707    1.402   .     A
C698   H732    1.083   .     S
C699   C706    1.453   .     S
C703   C719    1.453   .     S
C704   C718    1.453   .     S
C705   C717    1.453   .     S
C706   O782    1.305   .     A
C706   O781    1.305   .     A
C707   C716    1.453   .     S
C708   H846    1.109   1_455 S
C708   C720    1.520   .     S
C708   H733    1.082   .     S
C708   H735    1.109   .     S
C709   H739    1.109   .     S
C709   H737    1.082   .     S
C709   H850    1.109   1_455 S
C710   H741    1.109   .     S
C710   H740    1.082   .     S
C710   H854    1.109   1_455 S
C711   H857    1.109   1_455 S
C711   H743    1.082   .     S
C711   H744    1.109   .     S
C712   H748    1.109   .     S
C712   H746    1.082   .     S
C712   H749    1.109   .     S
C713   H752    1.109   .     S
C713   H750    1.082   .     S
C713   H751    1.109   .     S
C714   H754    1.109   .     S
C714   H753    1.082   .     S
C714   H755    1.109   .     S
C715   H756    1.082   .     S
C715   H757    1.109   .     S
C715   H759    1.109   .     S
C716   O784    1.305   .     A
C716   O772    1.305   .     A
C717   O770    1.305   .     A
C717   O771    1.305   .     A
C718   O773    1.305   .     A
C718   O776    1.305   .     A
C719   O774    1.305   .     A
C719   O775    1.305   .     A
C720   N766    1.383   .     A
Cu721  O781    1.965   .     S
Cu721  O769    1.965   .     S
Cu721  Cu722   2.724   .     S
Cu721  N765    2.047   .     S
Cu721  O890    1.965   1_455 S
Cu721  O895    1.965   1_455 S
Cu722  O782    1.965   .     S
Cu722  N766    2.047   .     S
Cu722  O779    1.965   .     S
Cu722  O889    1.965   1_455 S
Cu722  O892    1.965   1_455 S
Cu723  O774    1.965   .     S
Cu723  O771    1.965   .     S
Cu723  Cu724   2.724   .     S
Cu723  N767    2.047   .     S
Cu724  O775    1.965   .     S
Cu724  N768    2.047   .     S
Cu724  O770    1.965   .     S
H734   C820    1.109   .     S
H738   C821    1.109   .     S
H742   C822    1.109   .     S
H745   C823    1.109   .     S
O772   Cu500   1.965   1_565 S
O773   Cu500   1.965   1_565 S
O776   Cu499   1.965   1_565 S
O777   Cu834   1.965   .     S
O778   Cu833   1.965   .     S
O780   Cu834   1.965   .     S
O783   Cu833   1.965   .     S
O784   Cu499   1.965   1_565 S
C785   O881    1.305   .     A
C785   O891    1.305   .     A
C785   C814    1.453   .     S
C786   C1235   1.436   .     S
C786   C821    1.520   .     S
C786   N877    1.383   .     S
C787   C822    1.520   .     S
C787   N878    1.383   .     A
C788   N877    1.383   .     A
C788   C823    1.520   .     S
C788   C1280   1.436   .     S
C789   C824    1.520   .     S
C789   N656    1.383   1_565 S
C790   C825    1.520   .     S
C790   N879    1.383   .     A
C790   C1239   1.436   .     S
C791   C826    1.520   .     S
C791   N880    1.383   .     A
C792   C827    1.520   .     S
C792   C1237   1.436   .     S
C792   N655    1.383   1_565 S
C793   C804    1.384   .     A
C793   H837    1.083   .     S
C793   C812    1.402   .     A
C794   C811    1.402   .     A
C794   C805    1.384   .     A
C794   H848    1.083   .     S
C795   C802    1.384   .     A
C795   C811    1.402   .     A
C795   H859    1.083   .     S
C796   C813    1.453   .     S
C796   O889    1.305   .     A
C796   O890    1.305   .     A
C797   H870    1.083   .     S
C797   C812    1.402   .     A
C797   C803    1.384   .     A
C798   C814    1.402   .     A
C798   C809    1.384   .     A
C798   H872    1.083   .     S
C799   C813    1.402   .     A
C799   C810    1.384   .     A
C799   H873    1.083   .     S
C800   H874    1.083   .     S
C800   C806    1.384   .     A
C800   C813    1.402   .     A
C801   C814    1.402   .     A
C801   C808    1.384   .     A
C801   H875    1.083   .     S
C802   H876    1.083   .     S
C802   C816    1.402   .     A
C803   C815    1.402   .     A
C803   H838    1.083   .     S
C804   H839    1.083   .     S
C804   C815    1.402   .     A
C805   C816    1.402   .     A
C805   H840    1.083   .     S
C806   C819    1.402   .     A
C806   H841    1.083   .     S
C807   C812    1.453   .     S
C807   O895    1.305   .     A
C807   O892    1.305   .     A
C808   C817    1.402   .     A
C808   H842    1.083   .     S
C809   H843    1.083   .     S
C809   C817    1.402   .     A
C810   C819    1.402   .     A
C810   H844    1.083   .     S
C811   C818    1.453   .     S
C815   C831    1.453   .     S
C816   C830    1.453   .     S
C817   C829    1.453   .     S
C818   O894    1.305   .     A
C818   O893    1.305   .     A
C819   C828    1.453   .     S
C820   C832    1.520   .     S
C820   H845    1.082   .     S
C820   H847    1.109   .     S
C821   H851    1.109   .     S
C821   H849    1.082   .     S
C822   H853    1.109   .     S
C822   H852    1.082   .     S
C823   H855    1.082   .     S
C823   H856    1.109   .     S
C824   H860    1.109   .     S
C824   H858    1.082   .     S
C824   H861    1.109   .     S
C825   H864    1.109   .     S
C825   H862    1.082   .     S
C825   H863    1.109   .     S
C826   H866    1.109   .     S
C826   H865    1.082   .     S
C826   H867    1.109   .     S
C827   H868    1.082   .     S
C827   H869    1.109   .     S
C827   H871    1.109   .     S
C828   O896    1.305   .     A
C828   O884    1.305   .     A
C829   O882    1.305   .     A
C829   O883    1.305   .     A
C830   O885    1.305   .     A
C830   O888    1.305   .     A
C831   O886    1.305   .     A
C831   O887    1.305   .     A
C832   N878    1.383   .     A
Cu833  O893    1.965   .     S
Cu833  O881    1.965   .     S
Cu833  Cu834   2.724   .     S
Cu833  N877    2.047   .     S
Cu834  O894    1.965   .     S
Cu834  N878    2.047   .     S
Cu834  O891    1.965   .     S
Cu835  O886    1.965   .     S
Cu835  O883    1.965   .     S
Cu835  Cu836   2.724   .     S
Cu835  N879    2.047   .     S
Cu836  O887    1.965   .     S
Cu836  N880    2.047   .     S
Cu836  O882    1.965   .     S
H846   C708    1.109   1_655 S
H850   C709    1.109   1_655 S
H854   C710    1.109   1_655 S
H857   C711    1.109   1_655 S
O884   Cu612   1.965   1_565 S
O885   Cu612   1.965   1_565 S
O888   Cu611   1.965   1_565 S
O889   Cu722   1.965   1_655 S
O890   Cu721   1.965   1_655 S
O892   Cu722   1.965   1_655 S
O895   Cu721   1.965   1_655 S
O896   Cu611   1.965   1_565 S
C897   O993    1.305   .     A
C897   O1003   1.305   .     A
C897   C926    1.453   .     S
C898   C3      1.436   1_556 S
C898   C933    1.520   .     S
C898   N989    1.383   .     S
C899   C934    1.520   .     S
C899   N990    1.383   .     A
C900   N989    1.383   .     A
C900   C935    1.520   .     S
C900   C48     1.436   1_556 S
C901   C936    1.520   .     S
C901   N1216   1.383   .     S
C902   C937    1.520   .     S
C902   N991    1.383   .     A
C902   C7      1.436   1_556 S
C903   C938    1.520   .     S
C903   N992    1.383   .     A
C904   C939    1.520   .     S
C904   C5      1.436   1_556 S
C904   N1215   1.383   .     S
C905   C916    1.384   .     A
C905   H949    1.083   .     S
C905   C924    1.402   .     A
C906   C923    1.402   .     A
C906   C917    1.384   .     A
C906   H960    1.083   .     S
C907   C914    1.384   .     A
C907   C923    1.402   .     A
C907   H971    1.083   .     S
C908   C925    1.453   .     S
C908   O1001   1.305   .     A
C908   O1002   1.305   .     A
C909   H982    1.083   .     S
C909   C924    1.402   .     A
C909   C915    1.384   .     A
C910   C926    1.402   .     A
C910   C921    1.384   .     A
C910   H984    1.083   .     S
C911   C925    1.402   .     A
C911   C922    1.384   .     A
C911   H985    1.083   .     S
C912   H986    1.083   .     S
C912   C918    1.384   .     A
C912   C925    1.402   .     A
C913   C926    1.402   .     A
C913   C920    1.384   .     A
C913   H987    1.083   .     S
C914   H988    1.083   .     S
C914   C928    1.402   .     A
C915   C927    1.402   .     A
C915   H950    1.083   .     S
C916   H951    1.083   .     S
C916   C927    1.402   .     A
C917   C928    1.402   .     A
C917   H952    1.083   .     S
C918   C931    1.402   .     A
C918   H953    1.083   .     S
C919   C924    1.453   .     S
C919   O1007   1.305   .     A
C919   O1004   1.305   .     A
C920   C929    1.402   .     A
C920   H954    1.083   .     S
C921   H955    1.083   .     S
C921   C929    1.402   .     A
C922   C931    1.402   .     A
C922   H956    1.083   .     S
C923   C930    1.453   .     S
C927   C943    1.453   .     S
C928   C942    1.453   .     S
C929   C941    1.453   .     S
C930   O1006   1.305   .     A
C930   O1005   1.305   .     A
C931   C940    1.453   .     S
C932   H1070   1.109   1_455 S
C932   C944    1.520   .     S
C932   H957    1.082   .     S
C932   H959    1.109   .     S
C933   H963    1.109   .     S
C933   H961    1.082   .     S
C933   H1074   1.109   1_455 S
C934   H965    1.109   .     S
C934   H964    1.082   .     S
C934   H1078   1.109   1_455 S
C935   H1081   1.109   1_455 S
C935   H967    1.082   .     S
C935   H968    1.109   .     S
C936   H972    1.109   .     S
C936   H970    1.082   .     S
C936   H973    1.109   .     S
C937   H976    1.109   .     S
C937   H974    1.082   .     S
C937   H975    1.109   .     S
C938   H978    1.109   .     S
C938   H977    1.082   .     S
C938   H979    1.109   .     S
C939   H980    1.082   .     S
C939   H981    1.109   .     S
C939   H983    1.109   .     S
C940   O1008   1.305   .     A
C940   O996    1.305   .     A
C941   O994    1.305   .     A
C941   O995    1.305   .     A
C942   O997    1.305   .     A
C942   O1000   1.305   .     A
C943   O998    1.305   .     A
C943   O999    1.305   .     A
C944   N990    1.383   .     A
Cu945  O1005   1.965   .     S
Cu945  O993    1.965   .     S
Cu945  Cu946   2.724   .     S
Cu945  N989    2.047   .     S
Cu945  O1114   1.965   1_455 S
Cu945  O1119   1.965   1_455 S
Cu946  O1006   1.965   .     S
Cu946  N990    2.047   .     S
Cu946  O1003   1.965   .     S
Cu946  O1113   1.965   1_455 S
Cu946  O1116   1.965   1_455 S
Cu947  O998    1.965   .     S
Cu947  O995    1.965   .     S
Cu947  Cu948   2.724   .     S
Cu947  N991    2.047   .     S
Cu947  O1224   1.965   1_545 S
Cu947  O1232   1.965   1_545 S
Cu948  O999    1.965   .     S
Cu948  N992    2.047   .     S
Cu948  O994    1.965   .     S
Cu948  O1220   1.965   1_545 S
Cu948  O1221   1.965   1_545 S
H958   C1044   1.109   .     S
H962   C1045   1.109   .     S
H966   C1046   1.109   .     S
H969   C1047   1.109   .     S
N991   C1128   1.383   1_545 S
N992   C1125   1.383   1_545 S
O996   Cu1172  1.965   .     S
O997   Cu1172  1.965   .     S
O1000  Cu1171  1.965   .     S
O1001  Cu1058  1.965   .     S
O1002  Cu1057  1.965   .     S
O1004  Cu1058  1.965   .     S
O1007  Cu1057  1.965   .     S
O1008  Cu1171  1.965   .     S
C1009  O1105   1.305   .     A
C1009  O1115   1.305   .     A
C1009  C1038   1.453   .     S
C1010  C115    1.436   1_556 S
C1010  C1045   1.520   .     S
C1010  N1101   1.383   .     S
C1011  C1046   1.520   .     S
C1011  N1102   1.383   .     A
C1012  N1101   1.383   .     A
C1012  C1047   1.520   .     S
C1012  C160    1.436   1_556 S
C1013  C1048   1.520   .     S
C1013  N1328   1.383   .     S
C1014  C1049   1.520   .     S
C1014  N1103   1.383   .     A
C1014  C119    1.436   1_556 S
C1015  C1050   1.520   .     S
C1015  N1104   1.383   .     A
C1016  C1051   1.520   .     S
C1016  C117    1.436   1_556 S
C1016  N1327   1.383   .     S
C1017  C1028   1.384   .     A
C1017  H1061   1.083   .     S
C1017  C1036   1.402   .     A
C1018  C1035   1.402   .     A
C1018  C1029   1.384   .     A
C1018  H1072   1.083   .     S
C1019  C1026   1.384   .     A
C1019  C1035   1.402   .     A
C1019  H1083   1.083   .     S
C1020  C1037   1.453   .     S
C1020  O1113   1.305   .     A
C1020  O1114   1.305   .     A
C1021  H1094   1.083   .     S
C1021  C1036   1.402   .     A
C1021  C1027   1.384   .     A
C1022  C1038   1.402   .     A
C1022  C1033   1.384   .     A
C1022  H1096   1.083   .     S
C1023  C1037   1.402   .     A
C1023  C1034   1.384   .     A
C1023  H1097   1.083   .     S
C1024  H1098   1.083   .     S
C1024  C1030   1.384   .     A
C1024  C1037   1.402   .     A
C1025  C1038   1.402   .     A
C1025  C1032   1.384   .     A
C1025  H1099   1.083   .     S
C1026  H1100   1.083   .     S
C1026  C1040   1.402   .     A
C1027  C1039   1.402   .     A
C1027  H1062   1.083   .     S
C1028  H1063   1.083   .     S
C1028  C1039   1.402   .     A
C1029  C1040   1.402   .     A
C1029  H1064   1.083   .     S
C1030  C1043   1.402   .     A
C1030  H1065   1.083   .     S
C1031  C1036   1.453   .     S
C1031  O1119   1.305   .     A
C1031  O1116   1.305   .     A
C1032  C1041   1.402   .     A
C1032  H1066   1.083   .     S
C1033  H1067   1.083   .     S
C1033  C1041   1.402   .     A
C1034  C1043   1.402   .     A
C1034  H1068   1.083   .     S
C1035  C1042   1.453   .     S
C1039  C1055   1.453   .     S
C1040  C1054   1.453   .     S
C1041  C1053   1.453   .     S
C1042  O1118   1.305   .     A
C1042  O1117   1.305   .     A
C1043  C1052   1.453   .     S
C1044  C1056   1.520   .     S
C1044  H1069   1.082   .     S
C1044  H1071   1.109   .     S
C1045  H1075   1.109   .     S
C1045  H1073   1.082   .     S
C1046  H1077   1.109   .     S
C1046  H1076   1.082   .     S
C1047  H1079   1.082   .     S
C1047  H1080   1.109   .     S
C1048  H1084   1.109   .     S
C1048  H1082   1.082   .     S
C1048  H1085   1.109   .     S
C1049  H1088   1.109   .     S
C1049  H1086   1.082   .     S
C1049  H1087   1.109   .     S
C1050  H1090   1.109   .     S
C1050  H1089   1.082   .     S
C1050  H1091   1.109   .     S
C1051  H1092   1.082   .     S
C1051  H1093   1.109   .     S
C1051  H1095   1.109   .     S
C1052  O1120   1.305   .     A
C1052  O1108   1.305   .     A
C1053  O1106   1.305   .     A
C1053  O1107   1.305   .     A
C1054  O1109   1.305   .     A
C1054  O1112   1.305   .     A
C1055  O1110   1.305   .     A
C1055  O1111   1.305   .     A
C1056  N1102   1.383   .     A
Cu1057 O1117   1.965   .     S
Cu1057 O1105   1.965   .     S
Cu1057 Cu1058  2.724   .     S
Cu1057 N1101   2.047   .     S
Cu1058 O1118   1.965   .     S
Cu1058 N1102   2.047   .     S
Cu1058 O1115   1.965   .     S
Cu1059 O1110   1.965   .     S
Cu1059 O1107   1.965   .     S
Cu1059 Cu1060  2.724   .     S
Cu1059 N1103   2.047   .     S
Cu1059 O1336   1.965   1_545 S
Cu1059 O1344   1.965   1_545 S
Cu1060 O1111   1.965   .     S
Cu1060 N1104   2.047   .     S
Cu1060 O1106   1.965   .     S
Cu1060 O1332   1.965   1_545 S
Cu1060 O1333   1.965   1_545 S
H1070  C932    1.109   1_655 S
H1074  C933    1.109   1_655 S
H1078  C934    1.109   1_655 S
H1081  C935    1.109   1_655 S
N1103  C1240   1.383   1_545 S
N1104  C1237   1.383   1_545 S
O1108  Cu1284  1.965   .     S
O1109  Cu1284  1.965   .     S
O1112  Cu1283  1.965   .     S
O1113  Cu946   1.965   1_655 S
O1114  Cu945   1.965   1_655 S
O1116  Cu946   1.965   1_655 S
O1119  Cu945   1.965   1_655 S
O1120  Cu1283  1.965   .     S
C1121  O1217   1.305   .     A
C1121  O1227   1.305   .     A
C1121  C1150   1.453   .     S
C1122  C227    1.436   1_556 S
C1122  C1157   1.520   .     S
C1122  N1213   1.383   .     S
C1123  C1158   1.520   .     S
C1123  N1214   1.383   .     A
C1124  N1213   1.383   .     A
C1124  C1159   1.520   .     S
C1124  C272    1.436   1_556 S
C1125  C1160   1.520   .     S
C1125  N992    1.383   1_565 S
C1126  C1161   1.520   .     S
C1126  N1215   1.383   .     A
C1126  C231    1.436   1_556 S
C1127  C1162   1.520   .     S
C1127  N1216   1.383   .     A
C1128  C1163   1.520   .     S
C1128  C229    1.436   1_556 S
C1128  N991    1.383   1_565 S
C1129  C1140   1.384   .     A
C1129  H1173   1.083   .     S
C1129  C1148   1.402   .     A
C1130  C1147   1.402   .     A
C1130  C1141   1.384   .     A
C1130  H1184   1.083   .     S
C1131  C1138   1.384   .     A
C1131  C1147   1.402   .     A
C1131  H1195   1.083   .     S
C1132  C1149   1.453   .     S
C1132  O1225   1.305   .     A
C1132  O1226   1.305   .     A
C1133  H1206   1.083   .     S
C1133  C1148   1.402   .     A
C1133  C1139   1.384   .     A
C1134  C1150   1.402   .     A
C1134  C1145   1.384   .     A
C1134  H1208   1.083   .     S
C1135  C1149   1.402   .     A
C1135  C1146   1.384   .     A
C1135  H1209   1.083   .     S
C1136  H1210   1.083   .     S
C1136  C1142   1.384   .     A
C1136  C1149   1.402   .     A
C1137  C1150   1.402   .     A
C1137  C1144   1.384   .     A
C1137  H1211   1.083   .     S
C1138  H1212   1.083   .     S
C1138  C1152   1.402   .     A
C1139  C1151   1.402   .     A
C1139  H1174   1.083   .     S
C1140  H1175   1.083   .     S
C1140  C1151   1.402   .     A
C1141  C1152   1.402   .     A
C1141  H1176   1.083   .     S
C1142  C1155   1.402   .     A
C1142  H1177   1.083   .     S
C1143  C1148   1.453   .     S
C1143  O1231   1.305   .     A
C1143  O1228   1.305   .     A
C1144  C1153   1.402   .     A
C1144  H1178   1.083   .     S
C1145  H1179   1.083   .     S
C1145  C1153   1.402   .     A
C1146  C1155   1.402   .     A
C1146  H1180   1.083   .     S
C1147  C1154   1.453   .     S
C1151  C1167   1.453   .     S
C1152  C1166   1.453   .     S
C1153  C1165   1.453   .     S
C1154  O1230   1.305   .     A
C1154  O1229   1.305   .     A
C1155  C1164   1.453   .     S
C1156  H1294   1.109   1_455 S
C1156  C1168   1.520   .     S
C1156  H1181   1.082   .     S
C1156  H1183   1.109   .     S
C1157  H1187   1.109   .     S
C1157  H1185   1.082   .     S
C1157  H1298   1.109   1_455 S
C1158  H1189   1.109   .     S
C1158  H1188   1.082   .     S
C1158  H1302   1.109   1_455 S
C1159  H1305   1.109   1_455 S
C1159  H1191   1.082   .     S
C1159  H1192   1.109   .     S
C1160  H1196   1.109   .     S
C1160  H1194   1.082   .     S
C1160  H1197   1.109   .     S
C1161  H1200   1.109   .     S
C1161  H1198   1.082   .     S
C1161  H1199   1.109   .     S
C1162  H1202   1.109   .     S
C1162  H1201   1.082   .     S
C1162  H1203   1.109   .     S
C1163  H1204   1.082   .     S
C1163  H1205   1.109   .     S
C1163  H1207   1.109   .     S
C1164  O1232   1.305   .     A
C1164  O1220   1.305   .     A
C1165  O1218   1.305   .     A
C1165  O1219   1.305   .     A
C1166  O1221   1.305   .     A
C1166  O1224   1.305   .     A
C1167  O1222   1.305   .     A
C1167  O1223   1.305   .     A
C1168  N1214   1.383   .     A
Cu1169 O1229   1.965   .     S
Cu1169 O1217   1.965   .     S
Cu1169 Cu1170  2.724   .     S
Cu1169 N1213   2.047   .     S
Cu1169 O1338   1.965   1_455 S
Cu1169 O1343   1.965   1_455 S
Cu1170 O1230   1.965   .     S
Cu1170 N1214   2.047   .     S
Cu1170 O1227   1.965   .     S
Cu1170 O1337   1.965   1_455 S
Cu1170 O1340   1.965   1_455 S
Cu1171 O1222   1.965   .     S
Cu1171 O1219   1.965   .     S
Cu1171 Cu1172  2.724   .     S
Cu1171 N1215   2.047   .     S
Cu1172 O1223   1.965   .     S
Cu1172 N1216   2.047   .     S
Cu1172 O1218   1.965   .     S
H1182  C1268   1.109   .     S
H1186  C1269   1.109   .     S
H1190  C1270   1.109   .     S
H1193  C1271   1.109   .     S
O1220  Cu948   1.965   1_565 S
O1221  Cu948   1.965   1_565 S
O1224  Cu947   1.965   1_565 S
O1225  Cu1282  1.965   .     S
O1226  Cu1281  1.965   .     S
O1228  Cu1282  1.965   .     S
O1231  Cu1281  1.965   .     S
O1232  Cu947   1.965   1_565 S
C1233  O1329   1.305   .     A
C1233  O1339   1.305   .     A
C1233  C1262   1.453   .     S
C1234  C339    1.436   1_556 S
C1234  C1269   1.520   .     S
C1234  N1325   1.383   .     S
C1235  C1270   1.520   .     S
C1235  N1326   1.383   .     A
C1236  N1325   1.383   .     A
C1236  C1271   1.520   .     S
C1236  C384    1.436   1_556 S
C1237  C1272   1.520   .     S
C1237  N1104   1.383   1_565 S
C1238  C1273   1.520   .     S
C1238  N1327   1.383   .     A
C1238  C343    1.436   1_556 S
C1239  C1274   1.520   .     S
C1239  N1328   1.383   .     A
C1240  C1275   1.520   .     S
C1240  C341    1.436   1_556 S
C1240  N1103   1.383   1_565 S
C1241  C1252   1.384   .     A
C1241  H1285   1.083   .     S
C1241  C1260   1.402   .     A
C1242  C1259   1.402   .     A
C1242  C1253   1.384   .     A
C1242  H1296   1.083   .     S
C1243  C1250   1.384   .     A
C1243  C1259   1.402   .     A
C1243  H1307   1.083   .     S
C1244  C1261   1.453   .     S
C1244  O1337   1.305   .     A
C1244  O1338   1.305   .     A
C1245  H1318   1.083   .     S
C1245  C1260   1.402   .     A
C1245  C1251   1.384   .     A
C1246  C1262   1.402   .     A
C1246  C1257   1.384   .     A
C1246  H1320   1.083   .     S
C1247  C1261   1.402   .     A
C1247  C1258   1.384   .     A
C1247  H1321   1.083   .     S
C1248  H1322   1.083   .     S
C1248  C1254   1.384   .     A
C1248  C1261   1.402   .     A
C1249  C1262   1.402   .     A
C1249  C1256   1.384   .     A
C1249  H1323   1.083   .     S
C1250  H1324   1.083   .     S
C1250  C1264   1.402   .     A
C1251  C1263   1.402   .     A
C1251  H1286   1.083   .     S
C1252  H1287   1.083   .     S
C1252  C1263   1.402   .     A
C1253  C1264   1.402   .     A
C1253  H1288   1.083   .     S
C1254  C1267   1.402   .     A
C1254  H1289   1.083   .     S
C1255  C1260   1.453   .     S
C1255  O1343   1.305   .     A
C1255  O1340   1.305   .     A
C1256  C1265   1.402   .     A
C1256  H1290   1.083   .     S
C1257  H1291   1.083   .     S
C1257  C1265   1.402   .     A
C1258  C1267   1.402   .     A
C1258  H1292   1.083   .     S
C1259  C1266   1.453   .     S
C1263  C1279   1.453   .     S
C1264  C1278   1.453   .     S
C1265  C1277   1.453   .     S
C1266  O1342   1.305   .     A
C1266  O1341   1.305   .     A
C1267  C1276   1.453   .     S
C1268  C1280   1.520   .     S
C1268  H1293   1.082   .     S
C1268  H1295   1.109   .     S
C1269  H1299   1.109   .     S
C1269  H1297   1.082   .     S
C1270  H1301   1.109   .     S
C1270  H1300   1.082   .     S
C1271  H1303   1.082   .     S
C1271  H1304   1.109   .     S
C1272  H1308   1.109   .     S
C1272  H1306   1.082   .     S
C1272  H1309   1.109   .     S
C1273  H1312   1.109   .     S
C1273  H1310   1.082   .     S
C1273  H1311   1.109   .     S
C1274  H1314   1.109   .     S
C1274  H1313   1.082   .     S
C1274  H1315   1.109   .     S
C1275  H1316   1.082   .     S
C1275  H1317   1.109   .     S
C1275  H1319   1.109   .     S
C1276  O1344   1.305   .     A
C1276  O1332   1.305   .     A
C1277  O1330   1.305   .     A
C1277  O1331   1.305   .     A
C1278  O1333   1.305   .     A
C1278  O1336   1.305   .     A
C1279  O1334   1.305   .     A
C1279  O1335   1.305   .     A
C1280  N1326   1.383   .     A
Cu1281 O1341   1.965   .     S
Cu1281 O1329   1.965   .     S
Cu1281 Cu1282  2.724   .     S
Cu1281 N1325   2.047   .     S
Cu1282 O1342   1.965   .     S
Cu1282 N1326   2.047   .     S
Cu1282 O1339   1.965   .     S
Cu1283 O1334   1.965   .     S
Cu1283 O1331   1.965   .     S
Cu1283 Cu1284  2.724   .     S
Cu1283 N1327   2.047   .     S
Cu1284 O1335   1.965   .     S
Cu1284 N1328   2.047   .     S
Cu1284 O1330   1.965   .     S
H1294  C1156   1.109   1_655 S
H1298  C1157   1.109   1_655 S
H1302  C1158   1.109   1_655 S
H1305  C1159   1.109   1_655 S
O1332  Cu1060  1.965   1_565 S
O1333  Cu1060  1.965   1_565 S
O1336  Cu1059  1.965   1_565 S
O1337  Cu1170  1.965   1_655 S
O1338  Cu1169  1.965   1_655 S
O1340  Cu1170  1.965   1_655 S
O1343  Cu1169  1.965   1_655 S
O1344  Cu1059  1.965   1_565 S
