data_str_m2_o1_o5_pcu_sym.40
_audit_creation_date              2020-01-03
_audit_creation_method            'Materials Studio'
_symmetry_space_group_name_H-M    'P1'
_symmetry_Int_Tables_number       1
_symmetry_cell_setting            triclinic
loop_
_symmetry_equiv_pos_as_xyz
  x,y,z
_cell_length_a                    32.2565
_cell_length_b                    29.0641
_cell_length_c                    27.1217
_cell_angle_alpha                 89.9547
_cell_angle_beta                  92.3161
_cell_angle_gamma                 90.0455
loop_
_atom_site_label
_atom_site_type_symbol
_atom_site_fract_x
_atom_site_fract_y
_atom_site_fract_z
_atom_site_U_iso_or_equiv
_atom_site_adp_type
_atom_site_occupancy
C1     C     0.08767   0.16667   0.16671   0.00000  Uiso   1.00
C2     C     0.02292   0.18056   0.20950   0.00000  Uiso   1.00
C3     C     0.29034   0.16663   0.16651   0.00000  Uiso   1.00
C4     C     0.04299   0.16670   0.16683   0.00000  Uiso   1.00
C5     C     0.14477   0.02438   0.13100   0.00000  Uiso   1.00
C6     C     0.18856   0.30896   0.20233   0.00000  Uiso   1.00
C7     C     0.18859   0.02439   0.20232   0.00000  Uiso   1.00
C8     C     0.14475   0.30894   0.13102   0.00000  Uiso   1.00
C9     C     0.24566   0.16666   0.16662   0.00000  Uiso   1.00
C10    C     0.16655   0.16668   0.07372   0.00000  Uiso   1.00
C11    C     0.16679   0.16666   0.25961   0.00000  Uiso   1.00
C12    C     0.16662   0.16668   0.02191   0.00000  Uiso   1.00
C13    C     0.16671   0.16665   0.31143   0.00000  Uiso   1.00
C14    C     0.02037   0.15289   0.12410   0.00000  Uiso   1.00
C15    C     0.31296   0.18043   0.20924   0.00000  Uiso   1.00
C16    C     0.31041   0.15279   0.12384   0.00000  Uiso   1.00
Cu17   Cu    0.16667   0.21355   0.16667   0.00000  Uiso   1.00
Cu18   Cu    0.16667   0.11978   0.16667   0.00000  Uiso   1.00
H19    H     0.03221   0.16182   0.05197   0.00000  Uiso   1.00
H20    H     0.14291   0.05675   0.06449   0.00000  Uiso   1.00
H21    H     0.22903   0.26013   0.23011   0.00000  Uiso   1.00
H22    H     0.19043   0.27658   0.26884   0.00000  Uiso   1.00
H23    H     0.22936   0.07313   0.23013   0.00000  Uiso   1.00
H24    H     0.19056   0.05682   0.26879   0.00000  Uiso   1.00
H25    H     0.10397   0.26020   0.10321   0.00000  Uiso   1.00
H26    H     0.14277   0.27651   0.06455   0.00000  Uiso   1.00
H27    H     0.03274   0.10636   0.07119   0.00000  Uiso   1.00
H28    H     0.30114   0.17147   0.28138   0.00000  Uiso   1.00
H29    H     0.30057   0.22694   0.26217   0.00000  Uiso   1.00
H30    H     0.26773   0.16659   0.06886   0.00000  Uiso   1.00
H31    H     0.26915   0.11086   0.08760   0.00000  Uiso   1.00
H32    H     0.06563   0.16682   0.26447   0.00000  Uiso   1.00
H33    H     0.06415   0.22254   0.24570   0.00000  Uiso   1.00
H34    H     0.10431   0.07321   0.10322   0.00000  Uiso   1.00
N35    N     0.16667   0.28402   0.16667   0.00000  Uiso   1.00
N36    N     0.12218   0.28706   0.09097   0.00000  Uiso   1.00
N37    N     0.16667   0.04931   0.16667   0.00000  Uiso   1.00
N38    N     0.04169   0.13986   0.08082   0.00000  Uiso   1.00
N39    N     0.29165   0.19344   0.25253   0.00000  Uiso   1.00
N40    N     0.28736   0.13949   0.07972   0.00000  Uiso   1.00
N41    N     0.04597   0.19390   0.25360   0.00000  Uiso   1.00
N42    N     0.12227   0.04626   0.09092   0.00000  Uiso   1.00
N43    N     0.21107   0.28708   0.24241   0.00000  Uiso   1.00
N44    N     0.21116   0.04628   0.24236   0.00000  Uiso   1.00
O45    O     0.10655   0.20625   0.16666   0.00000  Uiso   1.00
O46    O     0.22679   0.12709   0.16667   0.00000  Uiso   1.00
O47    O     0.22679   0.20625   0.16667   0.00000  Uiso   1.00
O48    O     0.10655   0.12709   0.16666   0.00000  Uiso   1.00
O49    O     0.16667   0.20625   0.09613   0.00000  Uiso   1.00
O50    O     0.16667   0.12708   0.23720   0.00000  Uiso   1.00
O51    O     0.16667   0.20625   0.23720   0.00000  Uiso   1.00
O52    O     0.16667   0.12708   0.09613   0.00000  Uiso   1.00
C53    C     0.42101   0.16667   0.16671   0.00000  Uiso   1.00
C54    C     0.35626   0.18056   0.20950   0.00000  Uiso   1.00
C55    C     0.62367   0.16663   0.16651   0.00000  Uiso   1.00
C56    C     0.37633   0.16670   0.16683   0.00000  Uiso   1.00
C57    C     0.47811   0.02438   0.13100   0.00000  Uiso   1.00
C58    C     0.52189   0.30896   0.20233   0.00000  Uiso   1.00
C59    C     0.52192   0.02439   0.20232   0.00000  Uiso   1.00
C60    C     0.47808   0.30894   0.13102   0.00000  Uiso   1.00
C61    C     0.57899   0.16666   0.16662   0.00000  Uiso   1.00
C62    C     0.49988   0.16668   0.07372   0.00000  Uiso   1.00
C63    C     0.50012   0.16666   0.25961   0.00000  Uiso   1.00
C64    C     0.49996   0.16668   0.02191   0.00000  Uiso   1.00
C65    C     0.50004   0.16665   0.31143   0.00000  Uiso   1.00
C66    C     0.35371   0.15289   0.12410   0.00000  Uiso   1.00
C67    C     0.64629   0.18043   0.20924   0.00000  Uiso   1.00
C68    C     0.64374   0.15279   0.12384   0.00000  Uiso   1.00
Cu69   Cu    0.50000   0.21355   0.16667   0.00000  Uiso   1.00
Cu70   Cu    0.50000   0.11978   0.16667   0.00000  Uiso   1.00
H71    H     0.36555   0.16182   0.05197   0.00000  Uiso   1.00
H72    H     0.47624   0.05675   0.06449   0.00000  Uiso   1.00
H73    H     0.56237   0.26013   0.23011   0.00000  Uiso   1.00
H74    H     0.52376   0.27658   0.26884   0.00000  Uiso   1.00
H75    H     0.56269   0.07313   0.23013   0.00000  Uiso   1.00
H76    H     0.52389   0.05682   0.26879   0.00000  Uiso   1.00
H77    H     0.43731   0.26020   0.10321   0.00000  Uiso   1.00
H78    H     0.47611   0.27651   0.06455   0.00000  Uiso   1.00
H79    H     0.36608   0.10636   0.07119   0.00000  Uiso   1.00
H80    H     0.63448   0.17147   0.28138   0.00000  Uiso   1.00
H81    H     0.63390   0.22694   0.26217   0.00000  Uiso   1.00
H82    H     0.60106   0.16659   0.06886   0.00000  Uiso   1.00
H83    H     0.60248   0.11086   0.08760   0.00000  Uiso   1.00
H84    H     0.39896   0.16682   0.26447   0.00000  Uiso   1.00
H85    H     0.39749   0.22254   0.24570   0.00000  Uiso   1.00
H86    H     0.43764   0.07321   0.10322   0.00000  Uiso   1.00
N87    N     0.50000   0.28402   0.16667   0.00000  Uiso   1.00
N88    N     0.45551   0.28706   0.09097   0.00000  Uiso   1.00
N89    N     0.50000   0.04931   0.16667   0.00000  Uiso   1.00
N90    N     0.37502   0.13986   0.08082   0.00000  Uiso   1.00
N91    N     0.62498   0.19344   0.25253   0.00000  Uiso   1.00
N92    N     0.62069   0.13949   0.07972   0.00000  Uiso   1.00
N93    N     0.37931   0.19390   0.25360   0.00000  Uiso   1.00
N94    N     0.45560   0.04626   0.09092   0.00000  Uiso   1.00
N95    N     0.54441   0.28708   0.24241   0.00000  Uiso   1.00
N96    N     0.54449   0.04628   0.24236   0.00000  Uiso   1.00
O97    O     0.43988   0.20625   0.16666   0.00000  Uiso   1.00
O98    O     0.56012   0.12709   0.16667   0.00000  Uiso   1.00
O99    O     0.56012   0.20625   0.16667   0.00000  Uiso   1.00
O100   O     0.43988   0.12709   0.16666   0.00000  Uiso   1.00
O101   O     0.50000   0.20625   0.09613   0.00000  Uiso   1.00
O102   O     0.50000   0.12708   0.23720   0.00000  Uiso   1.00
O103   O     0.50000   0.20625   0.23720   0.00000  Uiso   1.00
O104   O     0.50000   0.12708   0.09613   0.00000  Uiso   1.00
C105   C     0.75434   0.16667   0.16671   0.00000  Uiso   1.00
C106   C     0.68959   0.18056   0.20950   0.00000  Uiso   1.00
C107   C     0.95701   0.16663   0.16651   0.00000  Uiso   1.00
C108   C     0.70966   0.16670   0.16683   0.00000  Uiso   1.00
C109   C     0.81144   0.02438   0.13100   0.00000  Uiso   1.00
C110   C     0.85523   0.30896   0.20233   0.00000  Uiso   1.00
C111   C     0.85525   0.02439   0.20232   0.00000  Uiso   1.00
C112   C     0.81141   0.30894   0.13102   0.00000  Uiso   1.00
C113   C     0.91233   0.16666   0.16662   0.00000  Uiso   1.00
C114   C     0.83321   0.16668   0.07372   0.00000  Uiso   1.00
C115   C     0.83345   0.16666   0.25961   0.00000  Uiso   1.00
C116   C     0.83329   0.16668   0.02191   0.00000  Uiso   1.00
C117   C     0.83338   0.16665   0.31143   0.00000  Uiso   1.00
C118   C     0.68704   0.15289   0.12410   0.00000  Uiso   1.00
C119   C     0.97963   0.18043   0.20924   0.00000  Uiso   1.00
C120   C     0.97708   0.15279   0.12384   0.00000  Uiso   1.00
Cu121  Cu    0.83333   0.21355   0.16667   0.00000  Uiso   1.00
Cu122  Cu    0.83333   0.11978   0.16667   0.00000  Uiso   1.00
H123   H     0.69888   0.16182   0.05197   0.00000  Uiso   1.00
H124   H     0.80958   0.05675   0.06449   0.00000  Uiso   1.00
H125   H     0.89570   0.26013   0.23011   0.00000  Uiso   1.00
H126   H     0.85710   0.27658   0.26884   0.00000  Uiso   1.00
H127   H     0.89603   0.07313   0.23013   0.00000  Uiso   1.00
H128   H     0.85722   0.05682   0.26879   0.00000  Uiso   1.00
H129   H     0.77064   0.26020   0.10321   0.00000  Uiso   1.00
H130   H     0.80944   0.27651   0.06455   0.00000  Uiso   1.00
H131   H     0.69941   0.10636   0.07119   0.00000  Uiso   1.00
H132   H     0.96781   0.17147   0.28138   0.00000  Uiso   1.00
H133   H     0.96724   0.22694   0.26217   0.00000  Uiso   1.00
H134   H     0.93440   0.16659   0.06886   0.00000  Uiso   1.00
H135   H     0.93582   0.11086   0.08760   0.00000  Uiso   1.00
H136   H     0.73230   0.16682   0.26447   0.00000  Uiso   1.00
H137   H     0.73082   0.22254   0.24570   0.00000  Uiso   1.00
H138   H     0.77097   0.07321   0.10322   0.00000  Uiso   1.00
N139   N     0.83333   0.28402   0.16667   0.00000  Uiso   1.00
N140   N     0.78884   0.28706   0.09097   0.00000  Uiso   1.00
N141   N     0.83333   0.04931   0.16667   0.00000  Uiso   1.00
N142   N     0.70835   0.13986   0.08082   0.00000  Uiso   1.00
N143   N     0.95831   0.19344   0.25253   0.00000  Uiso   1.00
N144   N     0.95403   0.13949   0.07972   0.00000  Uiso   1.00
N145   N     0.71264   0.19390   0.25360   0.00000  Uiso   1.00
N146   N     0.78893   0.04626   0.09092   0.00000  Uiso   1.00
N147   N     0.87774   0.28708   0.24241   0.00000  Uiso   1.00
N148   N     0.87782   0.04628   0.24236   0.00000  Uiso   1.00
O149   O     0.77321   0.20625   0.16666   0.00000  Uiso   1.00
O150   O     0.89345   0.12709   0.16667   0.00000  Uiso   1.00
O151   O     0.89345   0.20625   0.16667   0.00000  Uiso   1.00
O152   O     0.77321   0.12709   0.16666   0.00000  Uiso   1.00
O153   O     0.83333   0.20625   0.09613   0.00000  Uiso   1.00
O154   O     0.83333   0.12708   0.23720   0.00000  Uiso   1.00
O155   O     0.83333   0.20625   0.23720   0.00000  Uiso   1.00
O156   O     0.83333   0.12708   0.09613   0.00000  Uiso   1.00
C157   C     0.08767   0.50000   0.16671   0.00000  Uiso   1.00
C158   C     0.02292   0.51389   0.20950   0.00000  Uiso   1.00
C159   C     0.29034   0.49996   0.16651   0.00000  Uiso   1.00
C160   C     0.04299   0.50003   0.16683   0.00000  Uiso   1.00
C161   C     0.14477   0.35771   0.13100   0.00000  Uiso   1.00
C162   C     0.18856   0.64229   0.20233   0.00000  Uiso   1.00
C163   C     0.18859   0.35773   0.20232   0.00000  Uiso   1.00
C164   C     0.14475   0.64227   0.13102   0.00000  Uiso   1.00
C165   C     0.24566   0.50000   0.16662   0.00000  Uiso   1.00
C166   C     0.16655   0.50001   0.07372   0.00000  Uiso   1.00
C167   C     0.16679   0.49999   0.25961   0.00000  Uiso   1.00
C168   C     0.16662   0.50001   0.02191   0.00000  Uiso   1.00
C169   C     0.16671   0.49999   0.31143   0.00000  Uiso   1.00
C170   C     0.02037   0.48622   0.12410   0.00000  Uiso   1.00
C171   C     0.31296   0.51377   0.20924   0.00000  Uiso   1.00
C172   C     0.31041   0.48612   0.12384   0.00000  Uiso   1.00
Cu173  Cu    0.16667   0.54689   0.16667   0.00000  Uiso   1.00
Cu174  Cu    0.16667   0.45311   0.16667   0.00000  Uiso   1.00
H175   H     0.03221   0.49515   0.05197   0.00000  Uiso   1.00
H176   H     0.14291   0.39009   0.06449   0.00000  Uiso   1.00
H177   H     0.22903   0.59346   0.23011   0.00000  Uiso   1.00
H178   H     0.19043   0.60991   0.26884   0.00000  Uiso   1.00
H179   H     0.22936   0.40647   0.23013   0.00000  Uiso   1.00
H180   H     0.19056   0.39016   0.26879   0.00000  Uiso   1.00
H181   H     0.10397   0.59353   0.10321   0.00000  Uiso   1.00
H182   H     0.14277   0.60984   0.06455   0.00000  Uiso   1.00
H183   H     0.03274   0.43969   0.07119   0.00000  Uiso   1.00
H184   H     0.30114   0.50481   0.28138   0.00000  Uiso   1.00
H185   H     0.30057   0.56027   0.26217   0.00000  Uiso   1.00
H186   H     0.26773   0.49992   0.06886   0.00000  Uiso   1.00
H187   H     0.26915   0.44419   0.08760   0.00000  Uiso   1.00
H188   H     0.06563   0.50016   0.26447   0.00000  Uiso   1.00
H189   H     0.06415   0.55588   0.24570   0.00000  Uiso   1.00
H190   H     0.10431   0.40654   0.10322   0.00000  Uiso   1.00
N191   N     0.16667   0.61736   0.16667   0.00000  Uiso   1.00
N192   N     0.12218   0.62039   0.09097   0.00000  Uiso   1.00
N193   N     0.16667   0.38264   0.16667   0.00000  Uiso   1.00
N194   N     0.04169   0.47319   0.08082   0.00000  Uiso   1.00
N195   N     0.29165   0.52677   0.25253   0.00000  Uiso   1.00
N196   N     0.28736   0.47282   0.07972   0.00000  Uiso   1.00
N197   N     0.04597   0.52723   0.25360   0.00000  Uiso   1.00
N198   N     0.12227   0.37959   0.09092   0.00000  Uiso   1.00
N199   N     0.21107   0.62041   0.24241   0.00000  Uiso   1.00
N200   N     0.21116   0.37961   0.24236   0.00000  Uiso   1.00
O201   O     0.10655   0.53958   0.16666   0.00000  Uiso   1.00
O202   O     0.22679   0.46042   0.16667   0.00000  Uiso   1.00
O203   O     0.22679   0.53958   0.16667   0.00000  Uiso   1.00
O204   O     0.10655   0.46042   0.16666   0.00000  Uiso   1.00
O205   O     0.16667   0.53959   0.09613   0.00000  Uiso   1.00
O206   O     0.16667   0.46041   0.23720   0.00000  Uiso   1.00
O207   O     0.16667   0.53959   0.23720   0.00000  Uiso   1.00
O208   O     0.16667   0.46041   0.09613   0.00000  Uiso   1.00
C209   C     0.42101   0.50000   0.16671   0.00000  Uiso   1.00
C210   C     0.35626   0.51389   0.20950   0.00000  Uiso   1.00
C211   C     0.62367   0.49996   0.16651   0.00000  Uiso   1.00
C212   C     0.37633   0.50003   0.16683   0.00000  Uiso   1.00
C213   C     0.47811   0.35771   0.13100   0.00000  Uiso   1.00
C214   C     0.52189   0.64229   0.20233   0.00000  Uiso   1.00
C215   C     0.52192   0.35773   0.20232   0.00000  Uiso   1.00
C216   C     0.47808   0.64227   0.13102   0.00000  Uiso   1.00
C217   C     0.57899   0.50000   0.16662   0.00000  Uiso   1.00
C218   C     0.49988   0.50001   0.07372   0.00000  Uiso   1.00
C219   C     0.50012   0.49999   0.25961   0.00000  Uiso   1.00
C220   C     0.49996   0.50001   0.02191   0.00000  Uiso   1.00
C221   C     0.50004   0.49999   0.31143   0.00000  Uiso   1.00
C222   C     0.35371   0.48622   0.12410   0.00000  Uiso   1.00
C223   C     0.64629   0.51377   0.20924   0.00000  Uiso   1.00
C224   C     0.64374   0.48612   0.12384   0.00000  Uiso   1.00
Cu225  Cu    0.50000   0.54689   0.16667   0.00000  Uiso   1.00
Cu226  Cu    0.50000   0.45311   0.16667   0.00000  Uiso   1.00
H227   H     0.36555   0.49515   0.05197   0.00000  Uiso   1.00
H228   H     0.47624   0.39009   0.06449   0.00000  Uiso   1.00
H229   H     0.56237   0.59346   0.23011   0.00000  Uiso   1.00
H230   H     0.52376   0.60991   0.26884   0.00000  Uiso   1.00
H231   H     0.56269   0.40647   0.23013   0.00000  Uiso   1.00
H232   H     0.52389   0.39016   0.26879   0.00000  Uiso   1.00
H233   H     0.43731   0.59353   0.10321   0.00000  Uiso   1.00
H234   H     0.47611   0.60984   0.06455   0.00000  Uiso   1.00
H235   H     0.36608   0.43969   0.07119   0.00000  Uiso   1.00
H236   H     0.63448   0.50481   0.28138   0.00000  Uiso   1.00
H237   H     0.63390   0.56027   0.26217   0.00000  Uiso   1.00
H238   H     0.60106   0.49992   0.06886   0.00000  Uiso   1.00
H239   H     0.60248   0.44419   0.08760   0.00000  Uiso   1.00
H240   H     0.39896   0.50016   0.26447   0.00000  Uiso   1.00
H241   H     0.39749   0.55588   0.24570   0.00000  Uiso   1.00
H242   H     0.43764   0.40654   0.10322   0.00000  Uiso   1.00
N243   N     0.50000   0.61736   0.16667   0.00000  Uiso   1.00
N244   N     0.45551   0.62039   0.09097   0.00000  Uiso   1.00
N245   N     0.50000   0.38264   0.16667   0.00000  Uiso   1.00
N246   N     0.37502   0.47319   0.08082   0.00000  Uiso   1.00
N247   N     0.62498   0.52677   0.25253   0.00000  Uiso   1.00
N248   N     0.62069   0.47282   0.07972   0.00000  Uiso   1.00
N249   N     0.37931   0.52723   0.25360   0.00000  Uiso   1.00
N250   N     0.45560   0.37959   0.09092   0.00000  Uiso   1.00
N251   N     0.54441   0.62041   0.24241   0.00000  Uiso   1.00
N252   N     0.54449   0.37961   0.24236   0.00000  Uiso   1.00
O253   O     0.43988   0.53958   0.16666   0.00000  Uiso   1.00
O254   O     0.56012   0.46042   0.16667   0.00000  Uiso   1.00
O255   O     0.56012   0.53958   0.16667   0.00000  Uiso   1.00
O256   O     0.43988   0.46042   0.16666   0.00000  Uiso   1.00
O257   O     0.50000   0.53959   0.09613   0.00000  Uiso   1.00
O258   O     0.50000   0.46041   0.23720   0.00000  Uiso   1.00
O259   O     0.50000   0.53959   0.23720   0.00000  Uiso   1.00
O260   O     0.50000   0.46041   0.09613   0.00000  Uiso   1.00
C261   C     0.75434   0.50000   0.16671   0.00000  Uiso   1.00
C262   C     0.68959   0.51389   0.20950   0.00000  Uiso   1.00
C263   C     0.95701   0.49996   0.16651   0.00000  Uiso   1.00
C264   C     0.70966   0.50003   0.16683   0.00000  Uiso   1.00
C265   C     0.81144   0.35771   0.13100   0.00000  Uiso   1.00
C266   C     0.85523   0.64229   0.20233   0.00000  Uiso   1.00
C267   C     0.85525   0.35773   0.20232   0.00000  Uiso   1.00
C268   C     0.81141   0.64227   0.13102   0.00000  Uiso   1.00
C269   C     0.91233   0.50000   0.16662   0.00000  Uiso   1.00
C270   C     0.83321   0.50001   0.07372   0.00000  Uiso   1.00
C271   C     0.83345   0.49999   0.25961   0.00000  Uiso   1.00
C272   C     0.83329   0.50001   0.02191   0.00000  Uiso   1.00
C273   C     0.83338   0.49999   0.31143   0.00000  Uiso   1.00
C274   C     0.68704   0.48622   0.12410   0.00000  Uiso   1.00
C275   C     0.97963   0.51377   0.20924   0.00000  Uiso   1.00
C276   C     0.97708   0.48612   0.12384   0.00000  Uiso   1.00
Cu277  Cu    0.83333   0.54689   0.16667   0.00000  Uiso   1.00
Cu278  Cu    0.83333   0.45311   0.16667   0.00000  Uiso   1.00
H279   H     0.69888   0.49515   0.05197   0.00000  Uiso   1.00
H280   H     0.80958   0.39009   0.06449   0.00000  Uiso   1.00
H281   H     0.89570   0.59346   0.23011   0.00000  Uiso   1.00
H282   H     0.85710   0.60991   0.26884   0.00000  Uiso   1.00
H283   H     0.89603   0.40647   0.23013   0.00000  Uiso   1.00
H284   H     0.85722   0.39016   0.26879   0.00000  Uiso   1.00
H285   H     0.77064   0.59353   0.10321   0.00000  Uiso   1.00
H286   H     0.80944   0.60984   0.06455   0.00000  Uiso   1.00
H287   H     0.69941   0.43969   0.07119   0.00000  Uiso   1.00
H288   H     0.96781   0.50481   0.28138   0.00000  Uiso   1.00
H289   H     0.96724   0.56027   0.26217   0.00000  Uiso   1.00
H290   H     0.93440   0.49992   0.06886   0.00000  Uiso   1.00
H291   H     0.93582   0.44419   0.08760   0.00000  Uiso   1.00
H292   H     0.73230   0.50016   0.26447   0.00000  Uiso   1.00
H293   H     0.73082   0.55588   0.24570   0.00000  Uiso   1.00
H294   H     0.77097   0.40654   0.10322   0.00000  Uiso   1.00
N295   N     0.83333   0.61736   0.16667   0.00000  Uiso   1.00
N296   N     0.78884   0.62039   0.09097   0.00000  Uiso   1.00
N297   N     0.83333   0.38264   0.16667   0.00000  Uiso   1.00
N298   N     0.70835   0.47319   0.08082   0.00000  Uiso   1.00
N299   N     0.95831   0.52677   0.25253   0.00000  Uiso   1.00
N300   N     0.95403   0.47282   0.07972   0.00000  Uiso   1.00
N301   N     0.71264   0.52723   0.25360   0.00000  Uiso   1.00
N302   N     0.78893   0.37959   0.09092   0.00000  Uiso   1.00
N303   N     0.87774   0.62041   0.24241   0.00000  Uiso   1.00
N304   N     0.87782   0.37961   0.24236   0.00000  Uiso   1.00
O305   O     0.77321   0.53958   0.16666   0.00000  Uiso   1.00
O306   O     0.89345   0.46042   0.16667   0.00000  Uiso   1.00
O307   O     0.89345   0.53958   0.16667   0.00000  Uiso   1.00
O308   O     0.77321   0.46042   0.16666   0.00000  Uiso   1.00
O309   O     0.83333   0.53959   0.09613   0.00000  Uiso   1.00
O310   O     0.83333   0.46041   0.23720   0.00000  Uiso   1.00
O311   O     0.83333   0.53959   0.23720   0.00000  Uiso   1.00
O312   O     0.83333   0.46041   0.09613   0.00000  Uiso   1.00
C313   C     0.08767   0.83334   0.16671   0.00000  Uiso   1.00
C314   C     0.02292   0.84722   0.20950   0.00000  Uiso   1.00
C315   C     0.29034   0.83330   0.16651   0.00000  Uiso   1.00
C316   C     0.04299   0.83337   0.16683   0.00000  Uiso   1.00
C317   C     0.14477   0.69104   0.13100   0.00000  Uiso   1.00
C318   C     0.18856   0.97562   0.20233   0.00000  Uiso   1.00
C319   C     0.18859   0.69106   0.20232   0.00000  Uiso   1.00
C320   C     0.14475   0.97561   0.13102   0.00000  Uiso   1.00
C321   C     0.24566   0.83333   0.16662   0.00000  Uiso   1.00
C322   C     0.16655   0.83334   0.07372   0.00000  Uiso   1.00
C323   C     0.16679   0.83332   0.25961   0.00000  Uiso   1.00
C324   C     0.16662   0.83335   0.02191   0.00000  Uiso   1.00
C325   C     0.16671   0.83332   0.31143   0.00000  Uiso   1.00
C326   C     0.02037   0.81956   0.12410   0.00000  Uiso   1.00
C327   C     0.31296   0.84710   0.20924   0.00000  Uiso   1.00
C328   C     0.31041   0.81945   0.12384   0.00000  Uiso   1.00
Cu329  Cu    0.16667   0.88022   0.16667   0.00000  Uiso   1.00
Cu330  Cu    0.16667   0.78645   0.16667   0.00000  Uiso   1.00
H331   H     0.03221   0.82849   0.05197   0.00000  Uiso   1.00
H332   H     0.14291   0.72342   0.06449   0.00000  Uiso   1.00
H333   H     0.22903   0.92679   0.23011   0.00000  Uiso   1.00
H334   H     0.19043   0.94324   0.26884   0.00000  Uiso   1.00
H335   H     0.22936   0.73980   0.23013   0.00000  Uiso   1.00
H336   H     0.19056   0.72349   0.26879   0.00000  Uiso   1.00
H337   H     0.10397   0.92687   0.10321   0.00000  Uiso   1.00
H338   H     0.14277   0.94318   0.06455   0.00000  Uiso   1.00
H339   H     0.03274   0.77303   0.07119   0.00000  Uiso   1.00
H340   H     0.30114   0.83814   0.28138   0.00000  Uiso   1.00
H341   H     0.30057   0.89360   0.26217   0.00000  Uiso   1.00
H342   H     0.26773   0.83326   0.06886   0.00000  Uiso   1.00
H343   H     0.26915   0.77753   0.08760   0.00000  Uiso   1.00
H344   H     0.06563   0.83349   0.26447   0.00000  Uiso   1.00
H345   H     0.06415   0.88921   0.24570   0.00000  Uiso   1.00
H346   H     0.10431   0.73988   0.10322   0.00000  Uiso   1.00
N347   N     0.16667   0.95069   0.16667   0.00000  Uiso   1.00
N348   N     0.12218   0.95372   0.09097   0.00000  Uiso   1.00
N349   N     0.16667   0.71598   0.16667   0.00000  Uiso   1.00
N350   N     0.04169   0.80652   0.08082   0.00000  Uiso   1.00
N351   N     0.29165   0.86010   0.25253   0.00000  Uiso   1.00
N352   N     0.28736   0.80616   0.07972   0.00000  Uiso   1.00
N353   N     0.04597   0.86056   0.25360   0.00000  Uiso   1.00
N354   N     0.12227   0.71292   0.09092   0.00000  Uiso   1.00
N355   N     0.21107   0.95374   0.24241   0.00000  Uiso   1.00
N356   N     0.21116   0.71294   0.24236   0.00000  Uiso   1.00
O357   O     0.10655   0.87291   0.16666   0.00000  Uiso   1.00
O358   O     0.22679   0.79375   0.16667   0.00000  Uiso   1.00
O359   O     0.22679   0.87291   0.16667   0.00000  Uiso   1.00
O360   O     0.10655   0.79375   0.16666   0.00000  Uiso   1.00
O361   O     0.16667   0.87292   0.09613   0.00000  Uiso   1.00
O362   O     0.16667   0.79375   0.23720   0.00000  Uiso   1.00
O363   O     0.16667   0.87292   0.23720   0.00000  Uiso   1.00
O364   O     0.16667   0.79375   0.09613   0.00000  Uiso   1.00
C365   C     0.42101   0.83334   0.16671   0.00000  Uiso   1.00
C366   C     0.35626   0.84722   0.20950   0.00000  Uiso   1.00
C367   C     0.62367   0.83330   0.16651   0.00000  Uiso   1.00
C368   C     0.37633   0.83337   0.16683   0.00000  Uiso   1.00
C369   C     0.47811   0.69104   0.13100   0.00000  Uiso   1.00
C370   C     0.52189   0.97562   0.20233   0.00000  Uiso   1.00
C371   C     0.52192   0.69106   0.20232   0.00000  Uiso   1.00
C372   C     0.47808   0.97561   0.13102   0.00000  Uiso   1.00
C373   C     0.57899   0.83333   0.16662   0.00000  Uiso   1.00
C374   C     0.49988   0.83334   0.07372   0.00000  Uiso   1.00
C375   C     0.50012   0.83332   0.25961   0.00000  Uiso   1.00
C376   C     0.49996   0.83335   0.02191   0.00000  Uiso   1.00
C377   C     0.50004   0.83332   0.31143   0.00000  Uiso   1.00
C378   C     0.35371   0.81956   0.12410   0.00000  Uiso   1.00
C379   C     0.64629   0.84710   0.20924   0.00000  Uiso   1.00
C380   C     0.64374   0.81945   0.12384   0.00000  Uiso   1.00
Cu381  Cu    0.50000   0.88022   0.16667   0.00000  Uiso   1.00
Cu382  Cu    0.50000   0.78645   0.16667   0.00000  Uiso   1.00
H383   H     0.36555   0.82849   0.05197   0.00000  Uiso   1.00
H384   H     0.47624   0.72342   0.06449   0.00000  Uiso   1.00
H385   H     0.56237   0.92679   0.23011   0.00000  Uiso   1.00
H386   H     0.52376   0.94324   0.26884   0.00000  Uiso   1.00
H387   H     0.56269   0.73980   0.23013   0.00000  Uiso   1.00
H388   H     0.52389   0.72349   0.26879   0.00000  Uiso   1.00
H389   H     0.43731   0.92687   0.10321   0.00000  Uiso   1.00
H390   H     0.47611   0.94318   0.06455   0.00000  Uiso   1.00
H391   H     0.36608   0.77303   0.07119   0.00000  Uiso   1.00
H392   H     0.63448   0.83814   0.28138   0.00000  Uiso   1.00
H393   H     0.63390   0.89360   0.26217   0.00000  Uiso   1.00
H394   H     0.60106   0.83326   0.06886   0.00000  Uiso   1.00
H395   H     0.60248   0.77753   0.08760   0.00000  Uiso   1.00
H396   H     0.39896   0.83349   0.26447   0.00000  Uiso   1.00
H397   H     0.39749   0.88921   0.24570   0.00000  Uiso   1.00
H398   H     0.43764   0.73988   0.10322   0.00000  Uiso   1.00
N399   N     0.50000   0.95069   0.16667   0.00000  Uiso   1.00
N400   N     0.45551   0.95372   0.09097   0.00000  Uiso   1.00
N401   N     0.50000   0.71598   0.16667   0.00000  Uiso   1.00
N402   N     0.37502   0.80652   0.08082   0.00000  Uiso   1.00
N403   N     0.62498   0.86010   0.25253   0.00000  Uiso   1.00
N404   N     0.62069   0.80616   0.07972   0.00000  Uiso   1.00
N405   N     0.37931   0.86056   0.25360   0.00000  Uiso   1.00
N406   N     0.45560   0.71292   0.09092   0.00000  Uiso   1.00
N407   N     0.54441   0.95374   0.24241   0.00000  Uiso   1.00
N408   N     0.54449   0.71294   0.24236   0.00000  Uiso   1.00
O409   O     0.43988   0.87291   0.16666   0.00000  Uiso   1.00
O410   O     0.56012   0.79375   0.16667   0.00000  Uiso   1.00
O411   O     0.56012   0.87291   0.16667   0.00000  Uiso   1.00
O412   O     0.43988   0.79375   0.16666   0.00000  Uiso   1.00
O413   O     0.50000   0.87292   0.09613   0.00000  Uiso   1.00
O414   O     0.50000   0.79375   0.23720   0.00000  Uiso   1.00
O415   O     0.50000   0.87292   0.23720   0.00000  Uiso   1.00
O416   O     0.50000   0.79375   0.09613   0.00000  Uiso   1.00
C417   C     0.75434   0.83334   0.16671   0.00000  Uiso   1.00
C418   C     0.68959   0.84722   0.20950   0.00000  Uiso   1.00
C419   C     0.95701   0.83330   0.16651   0.00000  Uiso   1.00
C420   C     0.70966   0.83337   0.16683   0.00000  Uiso   1.00
C421   C     0.81144   0.69104   0.13100   0.00000  Uiso   1.00
C422   C     0.85523   0.97562   0.20233   0.00000  Uiso   1.00
C423   C     0.85525   0.69106   0.20232   0.00000  Uiso   1.00
C424   C     0.81141   0.97561   0.13102   0.00000  Uiso   1.00
C425   C     0.91233   0.83333   0.16662   0.00000  Uiso   1.00
C426   C     0.83321   0.83334   0.07372   0.00000  Uiso   1.00
C427   C     0.83345   0.83332   0.25961   0.00000  Uiso   1.00
C428   C     0.83329   0.83335   0.02191   0.00000  Uiso   1.00
C429   C     0.83338   0.83332   0.31143   0.00000  Uiso   1.00
C430   C     0.68704   0.81956   0.12410   0.00000  Uiso   1.00
C431   C     0.97963   0.84710   0.20924   0.00000  Uiso   1.00
C432   C     0.97708   0.81945   0.12384   0.00000  Uiso   1.00
Cu433  Cu    0.83333   0.88022   0.16667   0.00000  Uiso   1.00
Cu434  Cu    0.83333   0.78645   0.16667   0.00000  Uiso   1.00
H435   H     0.69888   0.82849   0.05197   0.00000  Uiso   1.00
H436   H     0.80958   0.72342   0.06449   0.00000  Uiso   1.00
H437   H     0.89570   0.92679   0.23011   0.00000  Uiso   1.00
H438   H     0.85710   0.94324   0.26884   0.00000  Uiso   1.00
H439   H     0.89603   0.73980   0.23013   0.00000  Uiso   1.00
H440   H     0.85722   0.72349   0.26879   0.00000  Uiso   1.00
H441   H     0.77064   0.92687   0.10321   0.00000  Uiso   1.00
H442   H     0.80944   0.94318   0.06455   0.00000  Uiso   1.00
H443   H     0.69941   0.77303   0.07119   0.00000  Uiso   1.00
H444   H     0.96781   0.83814   0.28138   0.00000  Uiso   1.00
H445   H     0.96724   0.89360   0.26217   0.00000  Uiso   1.00
H446   H     0.93440   0.83326   0.06886   0.00000  Uiso   1.00
H447   H     0.93582   0.77753   0.08760   0.00000  Uiso   1.00
H448   H     0.73230   0.83349   0.26447   0.00000  Uiso   1.00
H449   H     0.73082   0.88921   0.24570   0.00000  Uiso   1.00
H450   H     0.77097   0.73988   0.10322   0.00000  Uiso   1.00
N451   N     0.83333   0.95069   0.16667   0.00000  Uiso   1.00
N452   N     0.78884   0.95372   0.09097   0.00000  Uiso   1.00
N453   N     0.83333   0.71598   0.16667   0.00000  Uiso   1.00
N454   N     0.70835   0.80652   0.08082   0.00000  Uiso   1.00
N455   N     0.95831   0.86010   0.25253   0.00000  Uiso   1.00
N456   N     0.95403   0.80616   0.07972   0.00000  Uiso   1.00
N457   N     0.71264   0.86056   0.25360   0.00000  Uiso   1.00
N458   N     0.78893   0.71292   0.09092   0.00000  Uiso   1.00
N459   N     0.87774   0.95374   0.24241   0.00000  Uiso   1.00
N460   N     0.87782   0.71294   0.24236   0.00000  Uiso   1.00
O461   O     0.77321   0.87291   0.16666   0.00000  Uiso   1.00
O462   O     0.89345   0.79375   0.16667   0.00000  Uiso   1.00
O463   O     0.89345   0.87291   0.16667   0.00000  Uiso   1.00
O464   O     0.77321   0.79375   0.16666   0.00000  Uiso   1.00
O465   O     0.83333   0.87292   0.09613   0.00000  Uiso   1.00
O466   O     0.83333   0.79375   0.23720   0.00000  Uiso   1.00
O467   O     0.83333   0.87292   0.23720   0.00000  Uiso   1.00
O468   O     0.83333   0.79375   0.09613   0.00000  Uiso   1.00
C469   C     0.08767   0.16667   0.50005   0.00000  Uiso   1.00
C470   C     0.02292   0.18056   0.54283   0.00000  Uiso   1.00
C471   C     0.29034   0.16663   0.49984   0.00000  Uiso   1.00
C472   C     0.04299   0.16670   0.50016   0.00000  Uiso   1.00
C473   C     0.14477   0.02438   0.46433   0.00000  Uiso   1.00
C474   C     0.18856   0.30896   0.53567   0.00000  Uiso   1.00
C475   C     0.18859   0.02439   0.53565   0.00000  Uiso   1.00
C476   C     0.14475   0.30894   0.46435   0.00000  Uiso   1.00
C477   C     0.24566   0.16666   0.49996   0.00000  Uiso   1.00
C478   C     0.16655   0.16668   0.40706   0.00000  Uiso   1.00
C479   C     0.16679   0.16666   0.59294   0.00000  Uiso   1.00
C480   C     0.16662   0.16668   0.35524   0.00000  Uiso   1.00
C481   C     0.16671   0.16665   0.64476   0.00000  Uiso   1.00
C482   C     0.02037   0.15289   0.45744   0.00000  Uiso   1.00
C483   C     0.31296   0.18043   0.54257   0.00000  Uiso   1.00
C484   C     0.31041   0.15279   0.45717   0.00000  Uiso   1.00
Cu485  Cu    0.16667   0.21355   0.50000   0.00000  Uiso   1.00
Cu486  Cu    0.16667   0.11978   0.50000   0.00000  Uiso   1.00
H487   H     0.03221   0.16182   0.38530   0.00000  Uiso   1.00
H488   H     0.14291   0.05675   0.39782   0.00000  Uiso   1.00
H489   H     0.22903   0.26013   0.56344   0.00000  Uiso   1.00
H490   H     0.19043   0.27658   0.60218   0.00000  Uiso   1.00
H491   H     0.22936   0.07313   0.56346   0.00000  Uiso   1.00
H492   H     0.19056   0.05682   0.60212   0.00000  Uiso   1.00
H493   H     0.10397   0.26020   0.43654   0.00000  Uiso   1.00
H494   H     0.14277   0.27651   0.39788   0.00000  Uiso   1.00
H495   H     0.03274   0.10636   0.40452   0.00000  Uiso   1.00
H496   H     0.30114   0.17147   0.61471   0.00000  Uiso   1.00
H497   H     0.30057   0.22694   0.59551   0.00000  Uiso   1.00
H498   H     0.26773   0.16659   0.40219   0.00000  Uiso   1.00
H499   H     0.26915   0.11086   0.42093   0.00000  Uiso   1.00
H500   H     0.06563   0.16682   0.59780   0.00000  Uiso   1.00
H501   H     0.06415   0.22254   0.57904   0.00000  Uiso   1.00
H502   H     0.10431   0.07321   0.43655   0.00000  Uiso   1.00
N503   N     0.16667   0.28402   0.50000   0.00000  Uiso   1.00
N504   N     0.12218   0.28706   0.42431   0.00000  Uiso   1.00
N505   N     0.16667   0.04931   0.50000   0.00000  Uiso   1.00
N506   N     0.04169   0.13986   0.41415   0.00000  Uiso   1.00
N507   N     0.29165   0.19344   0.58587   0.00000  Uiso   1.00
N508   N     0.28736   0.13949   0.41306   0.00000  Uiso   1.00
N509   N     0.04597   0.19390   0.58693   0.00000  Uiso   1.00
N510   N     0.12227   0.04626   0.42426   0.00000  Uiso   1.00
N511   N     0.21107   0.28708   0.57574   0.00000  Uiso   1.00
N512   N     0.21116   0.04628   0.57569   0.00000  Uiso   1.00
O513   O     0.10655   0.20625   0.50000   0.00000  Uiso   1.00
O514   O     0.22679   0.12709   0.50000   0.00000  Uiso   1.00
O515   O     0.22679   0.20625   0.50000   0.00000  Uiso   1.00
O516   O     0.10655   0.12709   0.50000   0.00000  Uiso   1.00
O517   O     0.16667   0.20625   0.42946   0.00000  Uiso   1.00
O518   O     0.16667   0.12708   0.57054   0.00000  Uiso   1.00
O519   O     0.16667   0.20625   0.57054   0.00000  Uiso   1.00
O520   O     0.16667   0.12708   0.42946   0.00000  Uiso   1.00
C521   C     0.42101   0.16667   0.50005   0.00000  Uiso   1.00
C522   C     0.35626   0.18056   0.54283   0.00000  Uiso   1.00
C523   C     0.62367   0.16663   0.49984   0.00000  Uiso   1.00
C524   C     0.37633   0.16670   0.50016   0.00000  Uiso   1.00
C525   C     0.47811   0.02438   0.46433   0.00000  Uiso   1.00
C526   C     0.52189   0.30896   0.53567   0.00000  Uiso   1.00
C527   C     0.52192   0.02439   0.53565   0.00000  Uiso   1.00
C528   C     0.47808   0.30894   0.46435   0.00000  Uiso   1.00
C529   C     0.57899   0.16666   0.49996   0.00000  Uiso   1.00
C530   C     0.49988   0.16668   0.40706   0.00000  Uiso   1.00
C531   C     0.50012   0.16666   0.59294   0.00000  Uiso   1.00
C532   C     0.49996   0.16668   0.35524   0.00000  Uiso   1.00
C533   C     0.50004   0.16665   0.64476   0.00000  Uiso   1.00
C534   C     0.35371   0.15289   0.45744   0.00000  Uiso   1.00
C535   C     0.64629   0.18043   0.54257   0.00000  Uiso   1.00
C536   C     0.64374   0.15279   0.45717   0.00000  Uiso   1.00
Cu537  Cu    0.50000   0.21355   0.50000   0.00000  Uiso   1.00
Cu538  Cu    0.50000   0.11978   0.50000   0.00000  Uiso   1.00
H539   H     0.36555   0.16182   0.38530   0.00000  Uiso   1.00
H540   H     0.47624   0.05675   0.39782   0.00000  Uiso   1.00
H541   H     0.56237   0.26013   0.56344   0.00000  Uiso   1.00
H542   H     0.52376   0.27658   0.60218   0.00000  Uiso   1.00
H543   H     0.56269   0.07313   0.56346   0.00000  Uiso   1.00
H544   H     0.52389   0.05682   0.60212   0.00000  Uiso   1.00
H545   H     0.43731   0.26020   0.43654   0.00000  Uiso   1.00
H546   H     0.47611   0.27651   0.39788   0.00000  Uiso   1.00
H547   H     0.36608   0.10636   0.40452   0.00000  Uiso   1.00
H548   H     0.63448   0.17147   0.61471   0.00000  Uiso   1.00
H549   H     0.63390   0.22694   0.59551   0.00000  Uiso   1.00
H550   H     0.60106   0.16659   0.40219   0.00000  Uiso   1.00
H551   H     0.60248   0.11086   0.42093   0.00000  Uiso   1.00
H552   H     0.39896   0.16682   0.59780   0.00000  Uiso   1.00
H553   H     0.39749   0.22254   0.57904   0.00000  Uiso   1.00
H554   H     0.43764   0.07321   0.43655   0.00000  Uiso   1.00
N555   N     0.50000   0.28402   0.50000   0.00000  Uiso   1.00
N556   N     0.45551   0.28706   0.42431   0.00000  Uiso   1.00
N557   N     0.50000   0.04931   0.50000   0.00000  Uiso   1.00
N558   N     0.37502   0.13986   0.41415   0.00000  Uiso   1.00
N559   N     0.62498   0.19344   0.58587   0.00000  Uiso   1.00
N560   N     0.62069   0.13949   0.41306   0.00000  Uiso   1.00
N561   N     0.37931   0.19390   0.58693   0.00000  Uiso   1.00
N562   N     0.45560   0.04626   0.42426   0.00000  Uiso   1.00
N563   N     0.54441   0.28708   0.57574   0.00000  Uiso   1.00
N564   N     0.54449   0.04628   0.57569   0.00000  Uiso   1.00
O565   O     0.43988   0.20625   0.50000   0.00000  Uiso   1.00
O566   O     0.56012   0.12709   0.50000   0.00000  Uiso   1.00
O567   O     0.56012   0.20625   0.50000   0.00000  Uiso   1.00
O568   O     0.43988   0.12709   0.50000   0.00000  Uiso   1.00
O569   O     0.50000   0.20625   0.42946   0.00000  Uiso   1.00
O570   O     0.50000   0.12708   0.57054   0.00000  Uiso   1.00
O571   O     0.50000   0.20625   0.57054   0.00000  Uiso   1.00
O572   O     0.50000   0.12708   0.42946   0.00000  Uiso   1.00
C573   C     0.75434   0.16667   0.50005   0.00000  Uiso   1.00
C574   C     0.68959   0.18056   0.54283   0.00000  Uiso   1.00
C575   C     0.95701   0.16663   0.49984   0.00000  Uiso   1.00
C576   C     0.70966   0.16670   0.50016   0.00000  Uiso   1.00
C577   C     0.81144   0.02438   0.46433   0.00000  Uiso   1.00
C578   C     0.85523   0.30896   0.53567   0.00000  Uiso   1.00
C579   C     0.85525   0.02439   0.53565   0.00000  Uiso   1.00
C580   C     0.81141   0.30894   0.46435   0.00000  Uiso   1.00
C581   C     0.91233   0.16666   0.49996   0.00000  Uiso   1.00
C582   C     0.83321   0.16668   0.40706   0.00000  Uiso   1.00
C583   C     0.83345   0.16666   0.59294   0.00000  Uiso   1.00
C584   C     0.83329   0.16668   0.35524   0.00000  Uiso   1.00
C585   C     0.83338   0.16665   0.64476   0.00000  Uiso   1.00
C586   C     0.68704   0.15289   0.45744   0.00000  Uiso   1.00
C587   C     0.97963   0.18043   0.54257   0.00000  Uiso   1.00
C588   C     0.97708   0.15279   0.45717   0.00000  Uiso   1.00
Cu589  Cu    0.83333   0.21355   0.50000   0.00000  Uiso   1.00
Cu590  Cu    0.83333   0.11978   0.50000   0.00000  Uiso   1.00
H591   H     0.69888   0.16182   0.38530   0.00000  Uiso   1.00
H592   H     0.80958   0.05675   0.39782   0.00000  Uiso   1.00
H593   H     0.89570   0.26013   0.56344   0.00000  Uiso   1.00
H594   H     0.85710   0.27658   0.60218   0.00000  Uiso   1.00
H595   H     0.89603   0.07313   0.56346   0.00000  Uiso   1.00
H596   H     0.85722   0.05682   0.60212   0.00000  Uiso   1.00
H597   H     0.77064   0.26020   0.43654   0.00000  Uiso   1.00
H598   H     0.80944   0.27651   0.39788   0.00000  Uiso   1.00
H599   H     0.69941   0.10636   0.40452   0.00000  Uiso   1.00
H600   H     0.96781   0.17147   0.61471   0.00000  Uiso   1.00
H601   H     0.96724   0.22694   0.59551   0.00000  Uiso   1.00
H602   H     0.93440   0.16659   0.40219   0.00000  Uiso   1.00
H603   H     0.93582   0.11086   0.42093   0.00000  Uiso   1.00
H604   H     0.73230   0.16682   0.59780   0.00000  Uiso   1.00
H605   H     0.73082   0.22254   0.57904   0.00000  Uiso   1.00
H606   H     0.77097   0.07321   0.43655   0.00000  Uiso   1.00
N607   N     0.83333   0.28402   0.50000   0.00000  Uiso   1.00
N608   N     0.78884   0.28706   0.42431   0.00000  Uiso   1.00
N609   N     0.83333   0.04931   0.50000   0.00000  Uiso   1.00
N610   N     0.70835   0.13986   0.41415   0.00000  Uiso   1.00
N611   N     0.95831   0.19344   0.58587   0.00000  Uiso   1.00
N612   N     0.95403   0.13949   0.41306   0.00000  Uiso   1.00
N613   N     0.71264   0.19390   0.58693   0.00000  Uiso   1.00
N614   N     0.78893   0.04626   0.42426   0.00000  Uiso   1.00
N615   N     0.87774   0.28708   0.57574   0.00000  Uiso   1.00
N616   N     0.87782   0.04628   0.57569   0.00000  Uiso   1.00
O617   O     0.77321   0.20625   0.50000   0.00000  Uiso   1.00
O618   O     0.89345   0.12709   0.50000   0.00000  Uiso   1.00
O619   O     0.89345   0.20625   0.50000   0.00000  Uiso   1.00
O620   O     0.77321   0.12709   0.50000   0.00000  Uiso   1.00
O621   O     0.83333   0.20625   0.42946   0.00000  Uiso   1.00
O622   O     0.83333   0.12708   0.57054   0.00000  Uiso   1.00
O623   O     0.83333   0.20625   0.57054   0.00000  Uiso   1.00
O624   O     0.83333   0.12708   0.42946   0.00000  Uiso   1.00
C625   C     0.08767   0.50000   0.50005   0.00000  Uiso   1.00
C626   C     0.02292   0.51389   0.54283   0.00000  Uiso   1.00
C627   C     0.29034   0.49996   0.49984   0.00000  Uiso   1.00
C628   C     0.04299   0.50003   0.50016   0.00000  Uiso   1.00
C629   C     0.14477   0.35771   0.46433   0.00000  Uiso   1.00
C630   C     0.18856   0.64229   0.53567   0.00000  Uiso   1.00
C631   C     0.18859   0.35773   0.53565   0.00000  Uiso   1.00
C632   C     0.14475   0.64227   0.46435   0.00000  Uiso   1.00
C633   C     0.24566   0.50000   0.49996   0.00000  Uiso   1.00
C634   C     0.16655   0.50001   0.40706   0.00000  Uiso   1.00
C635   C     0.16679   0.49999   0.59294   0.00000  Uiso   1.00
C636   C     0.16662   0.50001   0.35524   0.00000  Uiso   1.00
C637   C     0.16671   0.49999   0.64476   0.00000  Uiso   1.00
C638   C     0.02037   0.48622   0.45744   0.00000  Uiso   1.00
C639   C     0.31296   0.51377   0.54257   0.00000  Uiso   1.00
C640   C     0.31041   0.48612   0.45717   0.00000  Uiso   1.00
Cu641  Cu    0.16667   0.54689   0.50000   0.00000  Uiso   1.00
Cu642  Cu    0.16667   0.45311   0.50000   0.00000  Uiso   1.00
H643   H     0.03221   0.49515   0.38530   0.00000  Uiso   1.00
H644   H     0.14291   0.39009   0.39782   0.00000  Uiso   1.00
H645   H     0.22903   0.59346   0.56344   0.00000  Uiso   1.00
H646   H     0.19043   0.60991   0.60218   0.00000  Uiso   1.00
H647   H     0.22936   0.40647   0.56346   0.00000  Uiso   1.00
H648   H     0.19056   0.39016   0.60212   0.00000  Uiso   1.00
H649   H     0.10397   0.59353   0.43654   0.00000  Uiso   1.00
H650   H     0.14277   0.60984   0.39788   0.00000  Uiso   1.00
H651   H     0.03274   0.43969   0.40452   0.00000  Uiso   1.00
H652   H     0.30114   0.50481   0.61471   0.00000  Uiso   1.00
H653   H     0.30057   0.56027   0.59551   0.00000  Uiso   1.00
H654   H     0.26773   0.49992   0.40219   0.00000  Uiso   1.00
H655   H     0.26915   0.44419   0.42093   0.00000  Uiso   1.00
H656   H     0.06563   0.50016   0.59780   0.00000  Uiso   1.00
H657   H     0.06415   0.55588   0.57904   0.00000  Uiso   1.00
H658   H     0.10431   0.40654   0.43655   0.00000  Uiso   1.00
N659   N     0.16667   0.61736   0.50000   0.00000  Uiso   1.00
N660   N     0.12218   0.62039   0.42431   0.00000  Uiso   1.00
N661   N     0.16667   0.38264   0.50000   0.00000  Uiso   1.00
N662   N     0.04169   0.47319   0.41415   0.00000  Uiso   1.00
N663   N     0.29165   0.52677   0.58587   0.00000  Uiso   1.00
N664   N     0.28736   0.47282   0.41306   0.00000  Uiso   1.00
N665   N     0.04597   0.52723   0.58693   0.00000  Uiso   1.00
N666   N     0.12227   0.37959   0.42426   0.00000  Uiso   1.00
N667   N     0.21107   0.62041   0.57574   0.00000  Uiso   1.00
N668   N     0.21116   0.37961   0.57569   0.00000  Uiso   1.00
O669   O     0.10655   0.53958   0.50000   0.00000  Uiso   1.00
O670   O     0.22679   0.46042   0.50000   0.00000  Uiso   1.00
O671   O     0.22679   0.53958   0.50000   0.00000  Uiso   1.00
O672   O     0.10655   0.46042   0.50000   0.00000  Uiso   1.00
O673   O     0.16667   0.53959   0.42946   0.00000  Uiso   1.00
O674   O     0.16667   0.46041   0.57054   0.00000  Uiso   1.00
O675   O     0.16667   0.53959   0.57054   0.00000  Uiso   1.00
O676   O     0.16667   0.46041   0.42946   0.00000  Uiso   1.00
C677   C     0.42101   0.50000   0.50005   0.00000  Uiso   1.00
C678   C     0.35626   0.51389   0.54283   0.00000  Uiso   1.00
C679   C     0.62367   0.49996   0.49984   0.00000  Uiso   1.00
C680   C     0.37633   0.50003   0.50016   0.00000  Uiso   1.00
C681   C     0.47811   0.35771   0.46433   0.00000  Uiso   1.00
C682   C     0.52189   0.64229   0.53567   0.00000  Uiso   1.00
C683   C     0.52192   0.35773   0.53565   0.00000  Uiso   1.00
C684   C     0.47808   0.64227   0.46435   0.00000  Uiso   1.00
C685   C     0.57899   0.50000   0.49996   0.00000  Uiso   1.00
C686   C     0.49988   0.50001   0.40706   0.00000  Uiso   1.00
C687   C     0.50012   0.49999   0.59294   0.00000  Uiso   1.00
C688   C     0.49996   0.50001   0.35524   0.00000  Uiso   1.00
C689   C     0.50004   0.49999   0.64476   0.00000  Uiso   1.00
C690   C     0.35371   0.48622   0.45744   0.00000  Uiso   1.00
C691   C     0.64629   0.51377   0.54257   0.00000  Uiso   1.00
C692   C     0.64374   0.48612   0.45717   0.00000  Uiso   1.00
Cu693  Cu    0.50000   0.54689   0.50000   0.00000  Uiso   1.00
Cu694  Cu    0.50000   0.45311   0.50000   0.00000  Uiso   1.00
H695   H     0.36555   0.49515   0.38530   0.00000  Uiso   1.00
H696   H     0.47624   0.39009   0.39782   0.00000  Uiso   1.00
H697   H     0.56237   0.59346   0.56344   0.00000  Uiso   1.00
H698   H     0.52376   0.60991   0.60218   0.00000  Uiso   1.00
H699   H     0.56269   0.40647   0.56346   0.00000  Uiso   1.00
H700   H     0.52389   0.39016   0.60212   0.00000  Uiso   1.00
H701   H     0.43731   0.59353   0.43654   0.00000  Uiso   1.00
H702   H     0.47611   0.60984   0.39788   0.00000  Uiso   1.00
H703   H     0.36608   0.43969   0.40452   0.00000  Uiso   1.00
H704   H     0.63448   0.50481   0.61471   0.00000  Uiso   1.00
H705   H     0.63390   0.56027   0.59551   0.00000  Uiso   1.00
H706   H     0.60106   0.49992   0.40219   0.00000  Uiso   1.00
H707   H     0.60248   0.44419   0.42093   0.00000  Uiso   1.00
H708   H     0.39896   0.50016   0.59780   0.00000  Uiso   1.00
H709   H     0.39749   0.55588   0.57904   0.00000  Uiso   1.00
H710   H     0.43764   0.40654   0.43655   0.00000  Uiso   1.00
N711   N     0.50000   0.61736   0.50000   0.00000  Uiso   1.00
N712   N     0.45551   0.62039   0.42431   0.00000  Uiso   1.00
N713   N     0.50000   0.38264   0.50000   0.00000  Uiso   1.00
N714   N     0.37502   0.47319   0.41415   0.00000  Uiso   1.00
N715   N     0.62498   0.52677   0.58587   0.00000  Uiso   1.00
N716   N     0.62069   0.47282   0.41306   0.00000  Uiso   1.00
N717   N     0.37931   0.52723   0.58693   0.00000  Uiso   1.00
N718   N     0.45560   0.37959   0.42426   0.00000  Uiso   1.00
N719   N     0.54441   0.62041   0.57574   0.00000  Uiso   1.00
N720   N     0.54449   0.37961   0.57569   0.00000  Uiso   1.00
O721   O     0.43988   0.53958   0.50000   0.00000  Uiso   1.00
O722   O     0.56012   0.46042   0.50000   0.00000  Uiso   1.00
O723   O     0.56012   0.53958   0.50000   0.00000  Uiso   1.00
O724   O     0.43988   0.46042   0.50000   0.00000  Uiso   1.00
O725   O     0.50000   0.53959   0.42946   0.00000  Uiso   1.00
O726   O     0.50000   0.46041   0.57054   0.00000  Uiso   1.00
O727   O     0.50000   0.53959   0.57054   0.00000  Uiso   1.00
O728   O     0.50000   0.46041   0.42946   0.00000  Uiso   1.00
C729   C     0.75434   0.50000   0.50005   0.00000  Uiso   1.00
C730   C     0.68959   0.51389   0.54283   0.00000  Uiso   1.00
C731   C     0.95701   0.49996   0.49984   0.00000  Uiso   1.00
C732   C     0.70966   0.50003   0.50016   0.00000  Uiso   1.00
C733   C     0.81144   0.35771   0.46433   0.00000  Uiso   1.00
C734   C     0.85523   0.64229   0.53567   0.00000  Uiso   1.00
C735   C     0.85525   0.35773   0.53565   0.00000  Uiso   1.00
C736   C     0.81141   0.64227   0.46435   0.00000  Uiso   1.00
C737   C     0.91233   0.50000   0.49996   0.00000  Uiso   1.00
C738   C     0.83321   0.50001   0.40706   0.00000  Uiso   1.00
C739   C     0.83345   0.49999   0.59294   0.00000  Uiso   1.00
C740   C     0.83329   0.50001   0.35524   0.00000  Uiso   1.00
C741   C     0.83338   0.49999   0.64476   0.00000  Uiso   1.00
C742   C     0.68704   0.48622   0.45744   0.00000  Uiso   1.00
C743   C     0.97963   0.51377   0.54257   0.00000  Uiso   1.00
C744   C     0.97708   0.48612   0.45717   0.00000  Uiso   1.00
Cu745  Cu    0.83333   0.54689   0.50000   0.00000  Uiso   1.00
Cu746  Cu    0.83333   0.45311   0.50000   0.00000  Uiso   1.00
H747   H     0.69888   0.49515   0.38530   0.00000  Uiso   1.00
H748   H     0.80958   0.39009   0.39782   0.00000  Uiso   1.00
H749   H     0.89570   0.59346   0.56344   0.00000  Uiso   1.00
H750   H     0.85710   0.60991   0.60218   0.00000  Uiso   1.00
H751   H     0.89603   0.40647   0.56346   0.00000  Uiso   1.00
H752   H     0.85722   0.39016   0.60212   0.00000  Uiso   1.00
H753   H     0.77064   0.59353   0.43654   0.00000  Uiso   1.00
H754   H     0.80944   0.60984   0.39788   0.00000  Uiso   1.00
H755   H     0.69941   0.43969   0.40452   0.00000  Uiso   1.00
H756   H     0.96781   0.50481   0.61471   0.00000  Uiso   1.00
H757   H     0.96724   0.56027   0.59551   0.00000  Uiso   1.00
H758   H     0.93440   0.49992   0.40219   0.00000  Uiso   1.00
H759   H     0.93582   0.44419   0.42093   0.00000  Uiso   1.00
H760   H     0.73230   0.50016   0.59780   0.00000  Uiso   1.00
H761   H     0.73082   0.55588   0.57904   0.00000  Uiso   1.00
H762   H     0.77097   0.40654   0.43655   0.00000  Uiso   1.00
N763   N     0.83333   0.61736   0.50000   0.00000  Uiso   1.00
N764   N     0.78884   0.62039   0.42431   0.00000  Uiso   1.00
N765   N     0.83333   0.38264   0.50000   0.00000  Uiso   1.00
N766   N     0.70835   0.47319   0.41415   0.00000  Uiso   1.00
N767   N     0.95831   0.52677   0.58587   0.00000  Uiso   1.00
N768   N     0.95403   0.47282   0.41306   0.00000  Uiso   1.00
N769   N     0.71264   0.52723   0.58693   0.00000  Uiso   1.00
N770   N     0.78893   0.37959   0.42426   0.00000  Uiso   1.00
N771   N     0.87774   0.62041   0.57574   0.00000  Uiso   1.00
N772   N     0.87782   0.37961   0.57569   0.00000  Uiso   1.00
O773   O     0.77321   0.53958   0.50000   0.00000  Uiso   1.00
O774   O     0.89345   0.46042   0.50000   0.00000  Uiso   1.00
O775   O     0.89345   0.53958   0.50000   0.00000  Uiso   1.00
O776   O     0.77321   0.46042   0.50000   0.00000  Uiso   1.00
O777   O     0.83333   0.53959   0.42946   0.00000  Uiso   1.00
O778   O     0.83333   0.46041   0.57054   0.00000  Uiso   1.00
O779   O     0.83333   0.53959   0.57054   0.00000  Uiso   1.00
O780   O     0.83333   0.46041   0.42946   0.00000  Uiso   1.00
C781   C     0.08767   0.83334   0.50005   0.00000  Uiso   1.00
C782   C     0.02292   0.84722   0.54283   0.00000  Uiso   1.00
C783   C     0.29034   0.83330   0.49984   0.00000  Uiso   1.00
C784   C     0.04299   0.83337   0.50016   0.00000  Uiso   1.00
C785   C     0.14477   0.69104   0.46433   0.00000  Uiso   1.00
C786   C     0.18856   0.97562   0.53567   0.00000  Uiso   1.00
C787   C     0.18859   0.69106   0.53565   0.00000  Uiso   1.00
C788   C     0.14475   0.97561   0.46435   0.00000  Uiso   1.00
C789   C     0.24566   0.83333   0.49996   0.00000  Uiso   1.00
C790   C     0.16655   0.83334   0.40706   0.00000  Uiso   1.00
C791   C     0.16679   0.83332   0.59294   0.00000  Uiso   1.00
C792   C     0.16662   0.83335   0.35524   0.00000  Uiso   1.00
C793   C     0.16671   0.83332   0.64476   0.00000  Uiso   1.00
C794   C     0.02037   0.81956   0.45744   0.00000  Uiso   1.00
C795   C     0.31296   0.84710   0.54257   0.00000  Uiso   1.00
C796   C     0.31041   0.81945   0.45717   0.00000  Uiso   1.00
Cu797  Cu    0.16667   0.88022   0.50000   0.00000  Uiso   1.00
Cu798  Cu    0.16667   0.78645   0.50000   0.00000  Uiso   1.00
H799   H     0.03221   0.82849   0.38530   0.00000  Uiso   1.00
H800   H     0.14291   0.72342   0.39782   0.00000  Uiso   1.00
H801   H     0.22903   0.92679   0.56344   0.00000  Uiso   1.00
H802   H     0.19043   0.94324   0.60218   0.00000  Uiso   1.00
H803   H     0.22936   0.73980   0.56346   0.00000  Uiso   1.00
H804   H     0.19056   0.72349   0.60212   0.00000  Uiso   1.00
H805   H     0.10397   0.92687   0.43654   0.00000  Uiso   1.00
H806   H     0.14277   0.94318   0.39788   0.00000  Uiso   1.00
H807   H     0.03274   0.77303   0.40452   0.00000  Uiso   1.00
H808   H     0.30114   0.83814   0.61471   0.00000  Uiso   1.00
H809   H     0.30057   0.89360   0.59551   0.00000  Uiso   1.00
H810   H     0.26773   0.83326   0.40219   0.00000  Uiso   1.00
H811   H     0.26915   0.77753   0.42093   0.00000  Uiso   1.00
H812   H     0.06563   0.83349   0.59780   0.00000  Uiso   1.00
H813   H     0.06415   0.88921   0.57904   0.00000  Uiso   1.00
H814   H     0.10431   0.73988   0.43655   0.00000  Uiso   1.00
N815   N     0.16667   0.95069   0.50000   0.00000  Uiso   1.00
N816   N     0.12218   0.95372   0.42431   0.00000  Uiso   1.00
N817   N     0.16667   0.71598   0.50000   0.00000  Uiso   1.00
N818   N     0.04169   0.80652   0.41415   0.00000  Uiso   1.00
N819   N     0.29165   0.86010   0.58587   0.00000  Uiso   1.00
N820   N     0.28736   0.80616   0.41306   0.00000  Uiso   1.00
N821   N     0.04597   0.86056   0.58693   0.00000  Uiso   1.00
N822   N     0.12227   0.71292   0.42426   0.00000  Uiso   1.00
N823   N     0.21107   0.95374   0.57574   0.00000  Uiso   1.00
N824   N     0.21116   0.71294   0.57569   0.00000  Uiso   1.00
O825   O     0.10655   0.87291   0.50000   0.00000  Uiso   1.00
O826   O     0.22679   0.79375   0.50000   0.00000  Uiso   1.00
O827   O     0.22679   0.87291   0.50000   0.00000  Uiso   1.00
O828   O     0.10655   0.79375   0.50000   0.00000  Uiso   1.00
O829   O     0.16667   0.87292   0.42946   0.00000  Uiso   1.00
O830   O     0.16667   0.79375   0.57054   0.00000  Uiso   1.00
O831   O     0.16667   0.87292   0.57054   0.00000  Uiso   1.00
O832   O     0.16667   0.79375   0.42946   0.00000  Uiso   1.00
C833   C     0.42101   0.83334   0.50005   0.00000  Uiso   1.00
C834   C     0.35626   0.84722   0.54283   0.00000  Uiso   1.00
C835   C     0.62367   0.83330   0.49984   0.00000  Uiso   1.00
C836   C     0.37633   0.83337   0.50016   0.00000  Uiso   1.00
C837   C     0.47811   0.69104   0.46433   0.00000  Uiso   1.00
C838   C     0.52189   0.97562   0.53567   0.00000  Uiso   1.00
C839   C     0.52192   0.69106   0.53565   0.00000  Uiso   1.00
C840   C     0.47808   0.97561   0.46435   0.00000  Uiso   1.00
C841   C     0.57899   0.83333   0.49996   0.00000  Uiso   1.00
C842   C     0.49988   0.83334   0.40706   0.00000  Uiso   1.00
C843   C     0.50012   0.83332   0.59294   0.00000  Uiso   1.00
C844   C     0.49996   0.83335   0.35524   0.00000  Uiso   1.00
C845   C     0.50004   0.83332   0.64476   0.00000  Uiso   1.00
C846   C     0.35371   0.81956   0.45744   0.00000  Uiso   1.00
C847   C     0.64629   0.84710   0.54257   0.00000  Uiso   1.00
C848   C     0.64374   0.81945   0.45717   0.00000  Uiso   1.00
Cu849  Cu    0.50000   0.88022   0.50000   0.00000  Uiso   1.00
Cu850  Cu    0.50000   0.78645   0.50000   0.00000  Uiso   1.00
H851   H     0.36555   0.82849   0.38530   0.00000  Uiso   1.00
H852   H     0.47624   0.72342   0.39782   0.00000  Uiso   1.00
H853   H     0.56237   0.92679   0.56344   0.00000  Uiso   1.00
H854   H     0.52376   0.94324   0.60218   0.00000  Uiso   1.00
H855   H     0.56269   0.73980   0.56346   0.00000  Uiso   1.00
H856   H     0.52389   0.72349   0.60212   0.00000  Uiso   1.00
H857   H     0.43731   0.92687   0.43654   0.00000  Uiso   1.00
H858   H     0.47611   0.94318   0.39788   0.00000  Uiso   1.00
H859   H     0.36608   0.77303   0.40452   0.00000  Uiso   1.00
H860   H     0.63448   0.83814   0.61471   0.00000  Uiso   1.00
H861   H     0.63390   0.89360   0.59551   0.00000  Uiso   1.00
H862   H     0.60106   0.83326   0.40219   0.00000  Uiso   1.00
H863   H     0.60248   0.77753   0.42093   0.00000  Uiso   1.00
H864   H     0.39896   0.83349   0.59780   0.00000  Uiso   1.00
H865   H     0.39749   0.88921   0.57904   0.00000  Uiso   1.00
H866   H     0.43764   0.73988   0.43655   0.00000  Uiso   1.00
N867   N     0.50000   0.95069   0.50000   0.00000  Uiso   1.00
N868   N     0.45551   0.95372   0.42431   0.00000  Uiso   1.00
N869   N     0.50000   0.71598   0.50000   0.00000  Uiso   1.00
N870   N     0.37502   0.80652   0.41415   0.00000  Uiso   1.00
N871   N     0.62498   0.86010   0.58587   0.00000  Uiso   1.00
N872   N     0.62069   0.80616   0.41306   0.00000  Uiso   1.00
N873   N     0.37931   0.86056   0.58693   0.00000  Uiso   1.00
N874   N     0.45560   0.71292   0.42426   0.00000  Uiso   1.00
N875   N     0.54441   0.95374   0.57574   0.00000  Uiso   1.00
N876   N     0.54449   0.71294   0.57569   0.00000  Uiso   1.00
O877   O     0.43988   0.87291   0.50000   0.00000  Uiso   1.00
O878   O     0.56012   0.79375   0.50000   0.00000  Uiso   1.00
O879   O     0.56012   0.87291   0.50000   0.00000  Uiso   1.00
O880   O     0.43988   0.79375   0.50000   0.00000  Uiso   1.00
O881   O     0.50000   0.87292   0.42946   0.00000  Uiso   1.00
O882   O     0.50000   0.79375   0.57054   0.00000  Uiso   1.00
O883   O     0.50000   0.87292   0.57054   0.00000  Uiso   1.00
O884   O     0.50000   0.79375   0.42946   0.00000  Uiso   1.00
C885   C     0.75434   0.83334   0.50005   0.00000  Uiso   1.00
C886   C     0.68959   0.84722   0.54283   0.00000  Uiso   1.00
C887   C     0.95701   0.83330   0.49984   0.00000  Uiso   1.00
C888   C     0.70966   0.83337   0.50016   0.00000  Uiso   1.00
C889   C     0.81144   0.69104   0.46433   0.00000  Uiso   1.00
C890   C     0.85523   0.97562   0.53567   0.00000  Uiso   1.00
C891   C     0.85525   0.69106   0.53565   0.00000  Uiso   1.00
C892   C     0.81141   0.97561   0.46435   0.00000  Uiso   1.00
C893   C     0.91233   0.83333   0.49996   0.00000  Uiso   1.00
C894   C     0.83321   0.83334   0.40706   0.00000  Uiso   1.00
C895   C     0.83345   0.83332   0.59294   0.00000  Uiso   1.00
C896   C     0.83329   0.83335   0.35524   0.00000  Uiso   1.00
C897   C     0.83338   0.83332   0.64476   0.00000  Uiso   1.00
C898   C     0.68704   0.81956   0.45744   0.00000  Uiso   1.00
C899   C     0.97963   0.84710   0.54257   0.00000  Uiso   1.00
C900   C     0.97708   0.81945   0.45717   0.00000  Uiso   1.00
Cu901  Cu    0.83333   0.88022   0.50000   0.00000  Uiso   1.00
Cu902  Cu    0.83333   0.78645   0.50000   0.00000  Uiso   1.00
H903   H     0.69888   0.82849   0.38530   0.00000  Uiso   1.00
H904   H     0.80958   0.72342   0.39782   0.00000  Uiso   1.00
H905   H     0.89570   0.92679   0.56344   0.00000  Uiso   1.00
H906   H     0.85710   0.94324   0.60218   0.00000  Uiso   1.00
H907   H     0.89603   0.73980   0.56346   0.00000  Uiso   1.00
H908   H     0.85722   0.72349   0.60212   0.00000  Uiso   1.00
H909   H     0.77064   0.92687   0.43654   0.00000  Uiso   1.00
H910   H     0.80944   0.94318   0.39788   0.00000  Uiso   1.00
H911   H     0.69941   0.77303   0.40452   0.00000  Uiso   1.00
H912   H     0.96781   0.83814   0.61471   0.00000  Uiso   1.00
H913   H     0.96724   0.89360   0.59551   0.00000  Uiso   1.00
H914   H     0.93440   0.83326   0.40219   0.00000  Uiso   1.00
H915   H     0.93582   0.77753   0.42093   0.00000  Uiso   1.00
H916   H     0.73230   0.83349   0.59780   0.00000  Uiso   1.00
H917   H     0.73082   0.88921   0.57904   0.00000  Uiso   1.00
H918   H     0.77097   0.73988   0.43655   0.00000  Uiso   1.00
N919   N     0.83333   0.95069   0.50000   0.00000  Uiso   1.00
N920   N     0.78884   0.95372   0.42431   0.00000  Uiso   1.00
N921   N     0.83333   0.71598   0.50000   0.00000  Uiso   1.00
N922   N     0.70835   0.80652   0.41415   0.00000  Uiso   1.00
N923   N     0.95831   0.86010   0.58587   0.00000  Uiso   1.00
N924   N     0.95403   0.80616   0.41306   0.00000  Uiso   1.00
N925   N     0.71264   0.86056   0.58693   0.00000  Uiso   1.00
N926   N     0.78893   0.71292   0.42426   0.00000  Uiso   1.00
N927   N     0.87774   0.95374   0.57574   0.00000  Uiso   1.00
N928   N     0.87782   0.71294   0.57569   0.00000  Uiso   1.00
O929   O     0.77321   0.87291   0.50000   0.00000  Uiso   1.00
O930   O     0.89345   0.79375   0.50000   0.00000  Uiso   1.00
O931   O     0.89345   0.87291   0.50000   0.00000  Uiso   1.00
O932   O     0.77321   0.79375   0.50000   0.00000  Uiso   1.00
O933   O     0.83333   0.87292   0.42946   0.00000  Uiso   1.00
O934   O     0.83333   0.79375   0.57054   0.00000  Uiso   1.00
O935   O     0.83333   0.87292   0.57054   0.00000  Uiso   1.00
O936   O     0.83333   0.79375   0.42946   0.00000  Uiso   1.00
C937   C     0.08767   0.16667   0.83338   0.00000  Uiso   1.00
C938   C     0.02292   0.18056   0.87617   0.00000  Uiso   1.00
C939   C     0.29034   0.16663   0.83318   0.00000  Uiso   1.00
C940   C     0.04299   0.16670   0.83350   0.00000  Uiso   1.00
C941   C     0.14477   0.02438   0.79767   0.00000  Uiso   1.00
C942   C     0.18856   0.30896   0.86900   0.00000  Uiso   1.00
C943   C     0.18859   0.02439   0.86898   0.00000  Uiso   1.00
C944   C     0.14475   0.30894   0.79768   0.00000  Uiso   1.00
C945   C     0.24566   0.16666   0.83329   0.00000  Uiso   1.00
C946   C     0.16655   0.16668   0.74039   0.00000  Uiso   1.00
C947   C     0.16679   0.16666   0.92628   0.00000  Uiso   1.00
C948   C     0.16662   0.16668   0.68857   0.00000  Uiso   1.00
C949   C     0.16671   0.16665   0.97809   0.00000  Uiso   1.00
C950   C     0.02037   0.15289   0.79077   0.00000  Uiso   1.00
C951   C     0.31296   0.18043   0.87591   0.00000  Uiso   1.00
C952   C     0.31041   0.15279   0.79050   0.00000  Uiso   1.00
Cu953  Cu    0.16667   0.21355   0.83333   0.00000  Uiso   1.00
Cu954  Cu    0.16667   0.11978   0.83333   0.00000  Uiso   1.00
H955   H     0.03221   0.16182   0.71863   0.00000  Uiso   1.00
H956   H     0.14291   0.05675   0.73116   0.00000  Uiso   1.00
H957   H     0.22903   0.26013   0.89678   0.00000  Uiso   1.00
H958   H     0.19043   0.27658   0.93551   0.00000  Uiso   1.00
H959   H     0.22936   0.07313   0.89679   0.00000  Uiso   1.00
H960   H     0.19056   0.05682   0.93546   0.00000  Uiso   1.00
H961   H     0.10397   0.26020   0.76987   0.00000  Uiso   1.00
H962   H     0.14277   0.27651   0.73121   0.00000  Uiso   1.00
H963   H     0.03274   0.10636   0.73785   0.00000  Uiso   1.00
H964   H     0.30114   0.17147   0.94804   0.00000  Uiso   1.00
H965   H     0.30057   0.22694   0.92884   0.00000  Uiso   1.00
H966   H     0.26773   0.16659   0.73553   0.00000  Uiso   1.00
H967   H     0.26915   0.11086   0.75426   0.00000  Uiso   1.00
H968   H     0.06563   0.16682   0.93114   0.00000  Uiso   1.00
H969   H     0.06415   0.22254   0.91237   0.00000  Uiso   1.00
H970   H     0.10431   0.07321   0.76988   0.00000  Uiso   1.00
N971   N     0.16667   0.28402   0.83333   0.00000  Uiso   1.00
N972   N     0.12218   0.28706   0.75764   0.00000  Uiso   1.00
N973   N     0.16667   0.04931   0.83333   0.00000  Uiso   1.00
N974   N     0.04169   0.13986   0.74749   0.00000  Uiso   1.00
N975   N     0.29165   0.19344   0.91920   0.00000  Uiso   1.00
N976   N     0.28736   0.13949   0.74639   0.00000  Uiso   1.00
N977   N     0.04597   0.19390   0.92026   0.00000  Uiso   1.00
N978   N     0.12227   0.04626   0.75759   0.00000  Uiso   1.00
N979   N     0.21107   0.28708   0.90907   0.00000  Uiso   1.00
N980   N     0.21116   0.04628   0.90903   0.00000  Uiso   1.00
O981   O     0.10655   0.20625   0.83333   0.00000  Uiso   1.00
O982   O     0.22679   0.12709   0.83334   0.00000  Uiso   1.00
O983   O     0.22679   0.20625   0.83334   0.00000  Uiso   1.00
O984   O     0.10655   0.12709   0.83333   0.00000  Uiso   1.00
O985   O     0.16667   0.20625   0.76280   0.00000  Uiso   1.00
O986   O     0.16667   0.12708   0.90387   0.00000  Uiso   1.00
O987   O     0.16667   0.20625   0.90387   0.00000  Uiso   1.00
O988   O     0.16667   0.12708   0.76280   0.00000  Uiso   1.00
C989   C     0.42101   0.16667   0.83338   0.00000  Uiso   1.00
C990   C     0.35626   0.18056   0.87617   0.00000  Uiso   1.00
C991   C     0.62367   0.16663   0.83318   0.00000  Uiso   1.00
C992   C     0.37633   0.16670   0.83350   0.00000  Uiso   1.00
C993   C     0.47811   0.02438   0.79767   0.00000  Uiso   1.00
C994   C     0.52189   0.30896   0.86900   0.00000  Uiso   1.00
C995   C     0.52192   0.02439   0.86898   0.00000  Uiso   1.00
C996   C     0.47808   0.30894   0.79768   0.00000  Uiso   1.00
C997   C     0.57899   0.16666   0.83329   0.00000  Uiso   1.00
C998   C     0.49988   0.16668   0.74039   0.00000  Uiso   1.00
C999   C     0.50012   0.16666   0.92628   0.00000  Uiso   1.00
C1000  C     0.49996   0.16668   0.68857   0.00000  Uiso   1.00
C1001  C     0.50004   0.16665   0.97809   0.00000  Uiso   1.00
C1002  C     0.35371   0.15289   0.79077   0.00000  Uiso   1.00
C1003  C     0.64629   0.18043   0.87591   0.00000  Uiso   1.00
C1004  C     0.64374   0.15279   0.79050   0.00000  Uiso   1.00
Cu1005 Cu    0.50000   0.21355   0.83333   0.00000  Uiso   1.00
Cu1006 Cu    0.50000   0.11978   0.83333   0.00000  Uiso   1.00
H1007  H     0.36555   0.16182   0.71863   0.00000  Uiso   1.00
H1008  H     0.47624   0.05675   0.73116   0.00000  Uiso   1.00
H1009  H     0.56237   0.26013   0.89678   0.00000  Uiso   1.00
H1010  H     0.52376   0.27658   0.93551   0.00000  Uiso   1.00
H1011  H     0.56269   0.07313   0.89679   0.00000  Uiso   1.00
H1012  H     0.52389   0.05682   0.93546   0.00000  Uiso   1.00
H1013  H     0.43731   0.26020   0.76987   0.00000  Uiso   1.00
H1014  H     0.47611   0.27651   0.73121   0.00000  Uiso   1.00
H1015  H     0.36608   0.10636   0.73785   0.00000  Uiso   1.00
H1016  H     0.63448   0.17147   0.94804   0.00000  Uiso   1.00
H1017  H     0.63390   0.22694   0.92884   0.00000  Uiso   1.00
H1018  H     0.60106   0.16659   0.73553   0.00000  Uiso   1.00
H1019  H     0.60248   0.11086   0.75426   0.00000  Uiso   1.00
H1020  H     0.39896   0.16682   0.93114   0.00000  Uiso   1.00
H1021  H     0.39749   0.22254   0.91237   0.00000  Uiso   1.00
H1022  H     0.43764   0.07321   0.76988   0.00000  Uiso   1.00
N1023  N     0.50000   0.28402   0.83333   0.00000  Uiso   1.00
N1024  N     0.45551   0.28706   0.75764   0.00000  Uiso   1.00
N1025  N     0.50000   0.04931   0.83333   0.00000  Uiso   1.00
N1026  N     0.37502   0.13986   0.74749   0.00000  Uiso   1.00
N1027  N     0.62498   0.19344   0.91920   0.00000  Uiso   1.00
N1028  N     0.62069   0.13949   0.74639   0.00000  Uiso   1.00
N1029  N     0.37931   0.19390   0.92026   0.00000  Uiso   1.00
N1030  N     0.45560   0.04626   0.75759   0.00000  Uiso   1.00
N1031  N     0.54441   0.28708   0.90907   0.00000  Uiso   1.00
N1032  N     0.54449   0.04628   0.90903   0.00000  Uiso   1.00
O1033  O     0.43988   0.20625   0.83333   0.00000  Uiso   1.00
O1034  O     0.56012   0.12709   0.83334   0.00000  Uiso   1.00
O1035  O     0.56012   0.20625   0.83334   0.00000  Uiso   1.00
O1036  O     0.43988   0.12709   0.83333   0.00000  Uiso   1.00
O1037  O     0.50000   0.20625   0.76280   0.00000  Uiso   1.00
O1038  O     0.50000   0.12708   0.90387   0.00000  Uiso   1.00
O1039  O     0.50000   0.20625   0.90387   0.00000  Uiso   1.00
O1040  O     0.50000   0.12708   0.76280   0.00000  Uiso   1.00
C1041  C     0.75434   0.16667   0.83338   0.00000  Uiso   1.00
C1042  C     0.68959   0.18056   0.87617   0.00000  Uiso   1.00
C1043  C     0.95701   0.16663   0.83318   0.00000  Uiso   1.00
C1044  C     0.70966   0.16670   0.83350   0.00000  Uiso   1.00
C1045  C     0.81144   0.02438   0.79767   0.00000  Uiso   1.00
C1046  C     0.85523   0.30896   0.86900   0.00000  Uiso   1.00
C1047  C     0.85525   0.02439   0.86898   0.00000  Uiso   1.00
C1048  C     0.81141   0.30894   0.79768   0.00000  Uiso   1.00
C1049  C     0.91233   0.16666   0.83329   0.00000  Uiso   1.00
C1050  C     0.83321   0.16668   0.74039   0.00000  Uiso   1.00
C1051  C     0.83345   0.16666   0.92628   0.00000  Uiso   1.00
C1052  C     0.83329   0.16668   0.68857   0.00000  Uiso   1.00
C1053  C     0.83338   0.16665   0.97809   0.00000  Uiso   1.00
C1054  C     0.68704   0.15289   0.79077   0.00000  Uiso   1.00
C1055  C     0.97963   0.18043   0.87591   0.00000  Uiso   1.00
C1056  C     0.97708   0.15279   0.79050   0.00000  Uiso   1.00
Cu1057 Cu    0.83333   0.21355   0.83333   0.00000  Uiso   1.00
Cu1058 Cu    0.83333   0.11978   0.83333   0.00000  Uiso   1.00
H1059  H     0.69888   0.16182   0.71863   0.00000  Uiso   1.00
H1060  H     0.80958   0.05675   0.73116   0.00000  Uiso   1.00
H1061  H     0.89570   0.26013   0.89678   0.00000  Uiso   1.00
H1062  H     0.85710   0.27658   0.93551   0.00000  Uiso   1.00
H1063  H     0.89603   0.07313   0.89679   0.00000  Uiso   1.00
H1064  H     0.85722   0.05682   0.93546   0.00000  Uiso   1.00
H1065  H     0.77064   0.26020   0.76987   0.00000  Uiso   1.00
H1066  H     0.80944   0.27651   0.73121   0.00000  Uiso   1.00
H1067  H     0.69941   0.10636   0.73785   0.00000  Uiso   1.00
H1068  H     0.96781   0.17147   0.94804   0.00000  Uiso   1.00
H1069  H     0.96724   0.22694   0.92884   0.00000  Uiso   1.00
H1070  H     0.93440   0.16659   0.73553   0.00000  Uiso   1.00
H1071  H     0.93582   0.11086   0.75426   0.00000  Uiso   1.00
H1072  H     0.73230   0.16682   0.93114   0.00000  Uiso   1.00
H1073  H     0.73082   0.22254   0.91237   0.00000  Uiso   1.00
H1074  H     0.77097   0.07321   0.76988   0.00000  Uiso   1.00
N1075  N     0.83333   0.28402   0.83333   0.00000  Uiso   1.00
N1076  N     0.78884   0.28706   0.75764   0.00000  Uiso   1.00
N1077  N     0.83333   0.04931   0.83333   0.00000  Uiso   1.00
N1078  N     0.70835   0.13986   0.74749   0.00000  Uiso   1.00
N1079  N     0.95831   0.19344   0.91920   0.00000  Uiso   1.00
N1080  N     0.95403   0.13949   0.74639   0.00000  Uiso   1.00
N1081  N     0.71264   0.19390   0.92026   0.00000  Uiso   1.00
N1082  N     0.78893   0.04626   0.75759   0.00000  Uiso   1.00
N1083  N     0.87774   0.28708   0.90907   0.00000  Uiso   1.00
N1084  N     0.87782   0.04628   0.90903   0.00000  Uiso   1.00
O1085  O     0.77321   0.20625   0.83333   0.00000  Uiso   1.00
O1086  O     0.89345   0.12709   0.83334   0.00000  Uiso   1.00
O1087  O     0.89345   0.20625   0.83334   0.00000  Uiso   1.00
O1088  O     0.77321   0.12709   0.83333   0.00000  Uiso   1.00
O1089  O     0.83333   0.20625   0.76280   0.00000  Uiso   1.00
O1090  O     0.83333   0.12708   0.90387   0.00000  Uiso   1.00
O1091  O     0.83333   0.20625   0.90387   0.00000  Uiso   1.00
O1092  O     0.83333   0.12708   0.76280   0.00000  Uiso   1.00
C1093  C     0.08767   0.50000   0.83338   0.00000  Uiso   1.00
C1094  C     0.02292   0.51389   0.87617   0.00000  Uiso   1.00
C1095  C     0.29034   0.49996   0.83318   0.00000  Uiso   1.00
C1096  C     0.04299   0.50003   0.83350   0.00000  Uiso   1.00
C1097  C     0.14477   0.35771   0.79767   0.00000  Uiso   1.00
C1098  C     0.18856   0.64229   0.86900   0.00000  Uiso   1.00
C1099  C     0.18859   0.35773   0.86898   0.00000  Uiso   1.00
C1100  C     0.14475   0.64227   0.79768   0.00000  Uiso   1.00
C1101  C     0.24566   0.50000   0.83329   0.00000  Uiso   1.00
C1102  C     0.16655   0.50001   0.74039   0.00000  Uiso   1.00
C1103  C     0.16679   0.49999   0.92628   0.00000  Uiso   1.00
C1104  C     0.16662   0.50001   0.68857   0.00000  Uiso   1.00
C1105  C     0.16671   0.49999   0.97809   0.00000  Uiso   1.00
C1106  C     0.02037   0.48622   0.79077   0.00000  Uiso   1.00
C1107  C     0.31296   0.51377   0.87591   0.00000  Uiso   1.00
C1108  C     0.31041   0.48612   0.79050   0.00000  Uiso   1.00
Cu1109 Cu    0.16667   0.54689   0.83333   0.00000  Uiso   1.00
Cu1110 Cu    0.16667   0.45311   0.83333   0.00000  Uiso   1.00
H1111  H     0.03221   0.49515   0.71863   0.00000  Uiso   1.00
H1112  H     0.14291   0.39009   0.73116   0.00000  Uiso   1.00
H1113  H     0.22903   0.59346   0.89678   0.00000  Uiso   1.00
H1114  H     0.19043   0.60991   0.93551   0.00000  Uiso   1.00
H1115  H     0.22936   0.40647   0.89679   0.00000  Uiso   1.00
H1116  H     0.19056   0.39016   0.93546   0.00000  Uiso   1.00
H1117  H     0.10397   0.59353   0.76987   0.00000  Uiso   1.00
H1118  H     0.14277   0.60984   0.73121   0.00000  Uiso   1.00
H1119  H     0.03274   0.43969   0.73785   0.00000  Uiso   1.00
H1120  H     0.30114   0.50481   0.94804   0.00000  Uiso   1.00
H1121  H     0.30057   0.56027   0.92884   0.00000  Uiso   1.00
H1122  H     0.26773   0.49992   0.73553   0.00000  Uiso   1.00
H1123  H     0.26915   0.44419   0.75426   0.00000  Uiso   1.00
H1124  H     0.06563   0.50016   0.93114   0.00000  Uiso   1.00
H1125  H     0.06415   0.55588   0.91237   0.00000  Uiso   1.00
H1126  H     0.10431   0.40654   0.76988   0.00000  Uiso   1.00
N1127  N     0.16667   0.61736   0.83333   0.00000  Uiso   1.00
N1128  N     0.12218   0.62039   0.75764   0.00000  Uiso   1.00
N1129  N     0.16667   0.38264   0.83333   0.00000  Uiso   1.00
N1130  N     0.04169   0.47319   0.74749   0.00000  Uiso   1.00
N1131  N     0.29165   0.52677   0.91920   0.00000  Uiso   1.00
N1132  N     0.28736   0.47282   0.74639   0.00000  Uiso   1.00
N1133  N     0.04597   0.52723   0.92026   0.00000  Uiso   1.00
N1134  N     0.12227   0.37959   0.75759   0.00000  Uiso   1.00
N1135  N     0.21107   0.62041   0.90907   0.00000  Uiso   1.00
N1136  N     0.21116   0.37961   0.90903   0.00000  Uiso   1.00
O1137  O     0.10655   0.53958   0.83333   0.00000  Uiso   1.00
O1138  O     0.22679   0.46042   0.83334   0.00000  Uiso   1.00
O1139  O     0.22679   0.53958   0.83334   0.00000  Uiso   1.00
O1140  O     0.10655   0.46042   0.83333   0.00000  Uiso   1.00
O1141  O     0.16667   0.53959   0.76280   0.00000  Uiso   1.00
O1142  O     0.16667   0.46041   0.90387   0.00000  Uiso   1.00
O1143  O     0.16667   0.53959   0.90387   0.00000  Uiso   1.00
O1144  O     0.16667   0.46041   0.76280   0.00000  Uiso   1.00
C1145  C     0.42101   0.50000   0.83338   0.00000  Uiso   1.00
C1146  C     0.35626   0.51389   0.87617   0.00000  Uiso   1.00
C1147  C     0.62367   0.49996   0.83318   0.00000  Uiso   1.00
C1148  C     0.37633   0.50003   0.83350   0.00000  Uiso   1.00
C1149  C     0.47811   0.35771   0.79767   0.00000  Uiso   1.00
C1150  C     0.52189   0.64229   0.86900   0.00000  Uiso   1.00
C1151  C     0.52192   0.35773   0.86898   0.00000  Uiso   1.00
C1152  C     0.47808   0.64227   0.79768   0.00000  Uiso   1.00
C1153  C     0.57899   0.50000   0.83329   0.00000  Uiso   1.00
C1154  C     0.49988   0.50001   0.74039   0.00000  Uiso   1.00
C1155  C     0.50012   0.49999   0.92628   0.00000  Uiso   1.00
C1156  C     0.49996   0.50001   0.68857   0.00000  Uiso   1.00
C1157  C     0.50004   0.49999   0.97809   0.00000  Uiso   1.00
C1158  C     0.35371   0.48622   0.79077   0.00000  Uiso   1.00
C1159  C     0.64629   0.51377   0.87591   0.00000  Uiso   1.00
C1160  C     0.64374   0.48612   0.79050   0.00000  Uiso   1.00
Cu1161 Cu    0.50000   0.54689   0.83333   0.00000  Uiso   1.00
Cu1162 Cu    0.50000   0.45311   0.83333   0.00000  Uiso   1.00
H1163  H     0.36555   0.49515   0.71863   0.00000  Uiso   1.00
H1164  H     0.47624   0.39009   0.73116   0.00000  Uiso   1.00
H1165  H     0.56237   0.59346   0.89678   0.00000  Uiso   1.00
H1166  H     0.52376   0.60991   0.93551   0.00000  Uiso   1.00
H1167  H     0.56269   0.40647   0.89679   0.00000  Uiso   1.00
H1168  H     0.52389   0.39016   0.93546   0.00000  Uiso   1.00
H1169  H     0.43731   0.59353   0.76987   0.00000  Uiso   1.00
H1170  H     0.47611   0.60984   0.73121   0.00000  Uiso   1.00
H1171  H     0.36608   0.43969   0.73785   0.00000  Uiso   1.00
H1172  H     0.63448   0.50481   0.94804   0.00000  Uiso   1.00
H1173  H     0.63390   0.56027   0.92884   0.00000  Uiso   1.00
H1174  H     0.60106   0.49992   0.73553   0.00000  Uiso   1.00
H1175  H     0.60248   0.44419   0.75426   0.00000  Uiso   1.00
H1176  H     0.39896   0.50016   0.93114   0.00000  Uiso   1.00
H1177  H     0.39749   0.55588   0.91237   0.00000  Uiso   1.00
H1178  H     0.43764   0.40654   0.76988   0.00000  Uiso   1.00
N1179  N     0.50000   0.61736   0.83333   0.00000  Uiso   1.00
N1180  N     0.45551   0.62039   0.75764   0.00000  Uiso   1.00
N1181  N     0.50000   0.38264   0.83333   0.00000  Uiso   1.00
N1182  N     0.37502   0.47319   0.74749   0.00000  Uiso   1.00
N1183  N     0.62498   0.52677   0.91920   0.00000  Uiso   1.00
N1184  N     0.62069   0.47282   0.74639   0.00000  Uiso   1.00
N1185  N     0.37931   0.52723   0.92026   0.00000  Uiso   1.00
N1186  N     0.45560   0.37959   0.75759   0.00000  Uiso   1.00
N1187  N     0.54441   0.62041   0.90907   0.00000  Uiso   1.00
N1188  N     0.54449   0.37961   0.90903   0.00000  Uiso   1.00
O1189  O     0.43988   0.53958   0.83333   0.00000  Uiso   1.00
O1190  O     0.56012   0.46042   0.83334   0.00000  Uiso   1.00
O1191  O     0.56012   0.53958   0.83334   0.00000  Uiso   1.00
O1192  O     0.43988   0.46042   0.83333   0.00000  Uiso   1.00
O1193  O     0.50000   0.53959   0.76280   0.00000  Uiso   1.00
O1194  O     0.50000   0.46041   0.90387   0.00000  Uiso   1.00
O1195  O     0.50000   0.53959   0.90387   0.00000  Uiso   1.00
O1196  O     0.50000   0.46041   0.76280   0.00000  Uiso   1.00
C1197  C     0.75434   0.50000   0.83338   0.00000  Uiso   1.00
C1198  C     0.68959   0.51389   0.87617   0.00000  Uiso   1.00
C1199  C     0.95701   0.49996   0.83318   0.00000  Uiso   1.00
C1200  C     0.70966   0.50003   0.83350   0.00000  Uiso   1.00
C1201  C     0.81144   0.35771   0.79767   0.00000  Uiso   1.00
C1202  C     0.85523   0.64229   0.86900   0.00000  Uiso   1.00
C1203  C     0.85525   0.35773   0.86898   0.00000  Uiso   1.00
C1204  C     0.81141   0.64227   0.79768   0.00000  Uiso   1.00
C1205  C     0.91233   0.50000   0.83329   0.00000  Uiso   1.00
C1206  C     0.83321   0.50001   0.74039   0.00000  Uiso   1.00
C1207  C     0.83345   0.49999   0.92628   0.00000  Uiso   1.00
C1208  C     0.83329   0.50001   0.68857   0.00000  Uiso   1.00
C1209  C     0.83338   0.49999   0.97809   0.00000  Uiso   1.00
C1210  C     0.68704   0.48622   0.79077   0.00000  Uiso   1.00
C1211  C     0.97963   0.51377   0.87591   0.00000  Uiso   1.00
C1212  C     0.97708   0.48612   0.79050   0.00000  Uiso   1.00
Cu1213 Cu    0.83333   0.54689   0.83333   0.00000  Uiso   1.00
Cu1214 Cu    0.83333   0.45311   0.83333   0.00000  Uiso   1.00
H1215  H     0.69888   0.49515   0.71863   0.00000  Uiso   1.00
H1216  H     0.80958   0.39009   0.73116   0.00000  Uiso   1.00
H1217  H     0.89570   0.59346   0.89678   0.00000  Uiso   1.00
H1218  H     0.85710   0.60991   0.93551   0.00000  Uiso   1.00
H1219  H     0.89603   0.40647   0.89679   0.00000  Uiso   1.00
H1220  H     0.85722   0.39016   0.93546   0.00000  Uiso   1.00
H1221  H     0.77064   0.59353   0.76987   0.00000  Uiso   1.00
H1222  H     0.80944   0.60984   0.73121   0.00000  Uiso   1.00
H1223  H     0.69941   0.43969   0.73785   0.00000  Uiso   1.00
H1224  H     0.96781   0.50481   0.94804   0.00000  Uiso   1.00
H1225  H     0.96724   0.56027   0.92884   0.00000  Uiso   1.00
H1226  H     0.93440   0.49992   0.73553   0.00000  Uiso   1.00
H1227  H     0.93582   0.44419   0.75426   0.00000  Uiso   1.00
H1228  H     0.73230   0.50016   0.93114   0.00000  Uiso   1.00
H1229  H     0.73082   0.55588   0.91237   0.00000  Uiso   1.00
H1230  H     0.77097   0.40654   0.76988   0.00000  Uiso   1.00
N1231  N     0.83333   0.61736   0.83333   0.00000  Uiso   1.00
N1232  N     0.78884   0.62039   0.75764   0.00000  Uiso   1.00
N1233  N     0.83333   0.38264   0.83333   0.00000  Uiso   1.00
N1234  N     0.70835   0.47319   0.74749   0.00000  Uiso   1.00
N1235  N     0.95831   0.52677   0.91920   0.00000  Uiso   1.00
N1236  N     0.95403   0.47282   0.74639   0.00000  Uiso   1.00
N1237  N     0.71264   0.52723   0.92026   0.00000  Uiso   1.00
N1238  N     0.78893   0.37959   0.75759   0.00000  Uiso   1.00
N1239  N     0.87774   0.62041   0.90907   0.00000  Uiso   1.00
N1240  N     0.87782   0.37961   0.90903   0.00000  Uiso   1.00
O1241  O     0.77321   0.53958   0.83333   0.00000  Uiso   1.00
O1242  O     0.89345   0.46042   0.83334   0.00000  Uiso   1.00
O1243  O     0.89345   0.53958   0.83334   0.00000  Uiso   1.00
O1244  O     0.77321   0.46042   0.83333   0.00000  Uiso   1.00
O1245  O     0.83333   0.53959   0.76280   0.00000  Uiso   1.00
O1246  O     0.83333   0.46041   0.90387   0.00000  Uiso   1.00
O1247  O     0.83333   0.53959   0.90387   0.00000  Uiso   1.00
O1248  O     0.83333   0.46041   0.76280   0.00000  Uiso   1.00
C1249  C     0.08767   0.83334   0.83338   0.00000  Uiso   1.00
C1250  C     0.02292   0.84722   0.87617   0.00000  Uiso   1.00
C1251  C     0.29034   0.83330   0.83318   0.00000  Uiso   1.00
C1252  C     0.04299   0.83337   0.83350   0.00000  Uiso   1.00
C1253  C     0.14477   0.69104   0.79767   0.00000  Uiso   1.00
C1254  C     0.18856   0.97562   0.86900   0.00000  Uiso   1.00
C1255  C     0.18859   0.69106   0.86898   0.00000  Uiso   1.00
C1256  C     0.14475   0.97561   0.79768   0.00000  Uiso   1.00
C1257  C     0.24566   0.83333   0.83329   0.00000  Uiso   1.00
C1258  C     0.16655   0.83334   0.74039   0.00000  Uiso   1.00
C1259  C     0.16679   0.83332   0.92628   0.00000  Uiso   1.00
C1260  C     0.16662   0.83335   0.68857   0.00000  Uiso   1.00
C1261  C     0.16671   0.83332   0.97809   0.00000  Uiso   1.00
C1262  C     0.02037   0.81956   0.79077   0.00000  Uiso   1.00
C1263  C     0.31296   0.84710   0.87591   0.00000  Uiso   1.00
C1264  C     0.31041   0.81945   0.79050   0.00000  Uiso   1.00
Cu1265 Cu    0.16667   0.88022   0.83333   0.00000  Uiso   1.00
Cu1266 Cu    0.16667   0.78645   0.83333   0.00000  Uiso   1.00
H1267  H     0.03221   0.82849   0.71863   0.00000  Uiso   1.00
H1268  H     0.14291   0.72342   0.73116   0.00000  Uiso   1.00
H1269  H     0.22903   0.92679   0.89678   0.00000  Uiso   1.00
H1270  H     0.19043   0.94324   0.93551   0.00000  Uiso   1.00
H1271  H     0.22936   0.73980   0.89679   0.00000  Uiso   1.00
H1272  H     0.19056   0.72349   0.93546   0.00000  Uiso   1.00
H1273  H     0.10397   0.92687   0.76987   0.00000  Uiso   1.00
H1274  H     0.14277   0.94318   0.73121   0.00000  Uiso   1.00
H1275  H     0.03274   0.77303   0.73785   0.00000  Uiso   1.00
H1276  H     0.30114   0.83814   0.94804   0.00000  Uiso   1.00
H1277  H     0.30057   0.89360   0.92884   0.00000  Uiso   1.00
H1278  H     0.26773   0.83326   0.73553   0.00000  Uiso   1.00
H1279  H     0.26915   0.77753   0.75426   0.00000  Uiso   1.00
H1280  H     0.06563   0.83349   0.93114   0.00000  Uiso   1.00
H1281  H     0.06415   0.88921   0.91237   0.00000  Uiso   1.00
H1282  H     0.10431   0.73988   0.76988   0.00000  Uiso   1.00
N1283  N     0.16667   0.95069   0.83333   0.00000  Uiso   1.00
N1284  N     0.12218   0.95372   0.75764   0.00000  Uiso   1.00
N1285  N     0.16667   0.71598   0.83333   0.00000  Uiso   1.00
N1286  N     0.04169   0.80652   0.74749   0.00000  Uiso   1.00
N1287  N     0.29165   0.86010   0.91920   0.00000  Uiso   1.00
N1288  N     0.28736   0.80616   0.74639   0.00000  Uiso   1.00
N1289  N     0.04597   0.86056   0.92026   0.00000  Uiso   1.00
N1290  N     0.12227   0.71292   0.75759   0.00000  Uiso   1.00
N1291  N     0.21107   0.95374   0.90907   0.00000  Uiso   1.00
N1292  N     0.21116   0.71294   0.90903   0.00000  Uiso   1.00
O1293  O     0.10655   0.87291   0.83333   0.00000  Uiso   1.00
O1294  O     0.22679   0.79375   0.83334   0.00000  Uiso   1.00
O1295  O     0.22679   0.87291   0.83334   0.00000  Uiso   1.00
O1296  O     0.10655   0.79375   0.83333   0.00000  Uiso   1.00
O1297  O     0.16667   0.87292   0.76280   0.00000  Uiso   1.00
O1298  O     0.16667   0.79375   0.90387   0.00000  Uiso   1.00
O1299  O     0.16667   0.87292   0.90387   0.00000  Uiso   1.00
O1300  O     0.16667   0.79375   0.76280   0.00000  Uiso   1.00
C1301  C     0.42101   0.83334   0.83338   0.00000  Uiso   1.00
C1302  C     0.35626   0.84722   0.87617   0.00000  Uiso   1.00
C1303  C     0.62367   0.83330   0.83318   0.00000  Uiso   1.00
C1304  C     0.37633   0.83337   0.83350   0.00000  Uiso   1.00
C1305  C     0.47811   0.69104   0.79767   0.00000  Uiso   1.00
C1306  C     0.52189   0.97562   0.86900   0.00000  Uiso   1.00
C1307  C     0.52192   0.69106   0.86898   0.00000  Uiso   1.00
C1308  C     0.47808   0.97561   0.79768   0.00000  Uiso   1.00
C1309  C     0.57899   0.83333   0.83329   0.00000  Uiso   1.00
C1310  C     0.49988   0.83334   0.74039   0.00000  Uiso   1.00
C1311  C     0.50012   0.83332   0.92628   0.00000  Uiso   1.00
C1312  C     0.49996   0.83335   0.68857   0.00000  Uiso   1.00
C1313  C     0.50004   0.83332   0.97809   0.00000  Uiso   1.00
C1314  C     0.35371   0.81956   0.79077   0.00000  Uiso   1.00
C1315  C     0.64629   0.84710   0.87591   0.00000  Uiso   1.00
C1316  C     0.64374   0.81945   0.79050   0.00000  Uiso   1.00
Cu1317 Cu    0.50000   0.88022   0.83333   0.00000  Uiso   1.00
Cu1318 Cu    0.50000   0.78645   0.83333   0.00000  Uiso   1.00
H1319  H     0.36555   0.82849   0.71863   0.00000  Uiso   1.00
H1320  H     0.47624   0.72342   0.73116   0.00000  Uiso   1.00
H1321  H     0.56237   0.92679   0.89678   0.00000  Uiso   1.00
H1322  H     0.52376   0.94324   0.93551   0.00000  Uiso   1.00
H1323  H     0.56269   0.73980   0.89679   0.00000  Uiso   1.00
H1324  H     0.52389   0.72349   0.93546   0.00000  Uiso   1.00
H1325  H     0.43731   0.92687   0.76987   0.00000  Uiso   1.00
H1326  H     0.47611   0.94318   0.73121   0.00000  Uiso   1.00
H1327  H     0.36608   0.77303   0.73785   0.00000  Uiso   1.00
H1328  H     0.63448   0.83814   0.94804   0.00000  Uiso   1.00
H1329  H     0.63390   0.89360   0.92884   0.00000  Uiso   1.00
H1330  H     0.60106   0.83326   0.73553   0.00000  Uiso   1.00
H1331  H     0.60248   0.77753   0.75426   0.00000  Uiso   1.00
H1332  H     0.39896   0.83349   0.93114   0.00000  Uiso   1.00
H1333  H     0.39749   0.88921   0.91237   0.00000  Uiso   1.00
H1334  H     0.43764   0.73988   0.76988   0.00000  Uiso   1.00
N1335  N     0.50000   0.95069   0.83333   0.00000  Uiso   1.00
N1336  N     0.45551   0.95372   0.75764   0.00000  Uiso   1.00
N1337  N     0.50000   0.71598   0.83333   0.00000  Uiso   1.00
N1338  N     0.37502   0.80652   0.74749   0.00000  Uiso   1.00
N1339  N     0.62498   0.86010   0.91920   0.00000  Uiso   1.00
N1340  N     0.62069   0.80616   0.74639   0.00000  Uiso   1.00
N1341  N     0.37931   0.86056   0.92026   0.00000  Uiso   1.00
N1342  N     0.45560   0.71292   0.75759   0.00000  Uiso   1.00
N1343  N     0.54441   0.95374   0.90907   0.00000  Uiso   1.00
N1344  N     0.54449   0.71294   0.90903   0.00000  Uiso   1.00
O1345  O     0.43988   0.87291   0.83333   0.00000  Uiso   1.00
O1346  O     0.56012   0.79375   0.83334   0.00000  Uiso   1.00
O1347  O     0.56012   0.87291   0.83334   0.00000  Uiso   1.00
O1348  O     0.43988   0.79375   0.83333   0.00000  Uiso   1.00
O1349  O     0.50000   0.87292   0.76280   0.00000  Uiso   1.00
O1350  O     0.50000   0.79375   0.90387   0.00000  Uiso   1.00
O1351  O     0.50000   0.87292   0.90387   0.00000  Uiso   1.00
O1352  O     0.50000   0.79375   0.76280   0.00000  Uiso   1.00
C1353  C     0.75434   0.83334   0.83338   0.00000  Uiso   1.00
C1354  C     0.68959   0.84722   0.87617   0.00000  Uiso   1.00
C1355  C     0.95701   0.83330   0.83318   0.00000  Uiso   1.00
C1356  C     0.70966   0.83337   0.83350   0.00000  Uiso   1.00
C1357  C     0.81144   0.69104   0.79767   0.00000  Uiso   1.00
C1358  C     0.85523   0.97562   0.86900   0.00000  Uiso   1.00
C1359  C     0.85525   0.69106   0.86898   0.00000  Uiso   1.00
C1360  C     0.81141   0.97561   0.79768   0.00000  Uiso   1.00
C1361  C     0.91233   0.83333   0.83329   0.00000  Uiso   1.00
C1362  C     0.83321   0.83334   0.74039   0.00000  Uiso   1.00
C1363  C     0.83345   0.83332   0.92628   0.00000  Uiso   1.00
C1364  C     0.83329   0.83335   0.68857   0.00000  Uiso   1.00
C1365  C     0.83338   0.83332   0.97809   0.00000  Uiso   1.00
C1366  C     0.68704   0.81956   0.79077   0.00000  Uiso   1.00
C1367  C     0.97963   0.84710   0.87591   0.00000  Uiso   1.00
C1368  C     0.97708   0.81945   0.79050   0.00000  Uiso   1.00
Cu1369 Cu    0.83333   0.88022   0.83333   0.00000  Uiso   1.00
Cu1370 Cu    0.83333   0.78645   0.83333   0.00000  Uiso   1.00
H1371  H     0.69888   0.82849   0.71863   0.00000  Uiso   1.00
H1372  H     0.80958   0.72342   0.73116   0.00000  Uiso   1.00
H1373  H     0.89570   0.92679   0.89678   0.00000  Uiso   1.00
H1374  H     0.85710   0.94324   0.93551   0.00000  Uiso   1.00
H1375  H     0.89603   0.73980   0.89679   0.00000  Uiso   1.00
H1376  H     0.85722   0.72349   0.93546   0.00000  Uiso   1.00
H1377  H     0.77064   0.92687   0.76987   0.00000  Uiso   1.00
H1378  H     0.80944   0.94318   0.73121   0.00000  Uiso   1.00
H1379  H     0.69941   0.77303   0.73785   0.00000  Uiso   1.00
H1380  H     0.96781   0.83814   0.94804   0.00000  Uiso   1.00
H1381  H     0.96724   0.89360   0.92884   0.00000  Uiso   1.00
H1382  H     0.93440   0.83326   0.73553   0.00000  Uiso   1.00
H1383  H     0.93582   0.77753   0.75426   0.00000  Uiso   1.00
H1384  H     0.73230   0.83349   0.93114   0.00000  Uiso   1.00
H1385  H     0.73082   0.88921   0.91237   0.00000  Uiso   1.00
H1386  H     0.77097   0.73988   0.76988   0.00000  Uiso   1.00
N1387  N     0.83333   0.95069   0.83333   0.00000  Uiso   1.00
N1388  N     0.78884   0.95372   0.75764   0.00000  Uiso   1.00
N1389  N     0.83333   0.71598   0.83333   0.00000  Uiso   1.00
N1390  N     0.70835   0.80652   0.74749   0.00000  Uiso   1.00
N1391  N     0.95831   0.86010   0.91920   0.00000  Uiso   1.00
N1392  N     0.95403   0.80616   0.74639   0.00000  Uiso   1.00
N1393  N     0.71264   0.86056   0.92026   0.00000  Uiso   1.00
N1394  N     0.78893   0.71292   0.75759   0.00000  Uiso   1.00
N1395  N     0.87774   0.95374   0.90907   0.00000  Uiso   1.00
N1396  N     0.87782   0.71294   0.90903   0.00000  Uiso   1.00
O1397  O     0.77321   0.87291   0.83333   0.00000  Uiso   1.00
O1398  O     0.89345   0.79375   0.83334   0.00000  Uiso   1.00
O1399  O     0.89345   0.87291   0.83334   0.00000  Uiso   1.00
O1400  O     0.77321   0.79375   0.83333   0.00000  Uiso   1.00
O1401  O     0.83333   0.87292   0.76280   0.00000  Uiso   1.00
O1402  O     0.83333   0.79375   0.90387   0.00000  Uiso   1.00
O1403  O     0.83333   0.87292   0.90387   0.00000  Uiso   1.00
O1404  O     0.83333   0.79375   0.76280   0.00000  Uiso   1.00
loop_
_geom_bond_atom_site_label_1
_geom_bond_atom_site_label_2
_geom_bond_distance
_geom_bond_site_symmetry_2
_ccdc_geom_bond_type
C1     O48     1.302   .     A
C1     C4      1.441   .     S
C1     O45     1.301   .     A
C2     C4      1.408   .     A
C2     N41     1.436   .     S
C2     C119    1.396   1_455 S
C3     C9      1.441   .     S
C3     C16     1.408   .     A
C3     C15     1.403   .     A
C4     C14     1.403   .     A
C5     N42     1.431   .     S
C5     N37     1.380   .     A
C5     C320    1.417   1_545 S
C6     N35     1.380   .     A
C6     N43     1.431   .     S
C6     C163    1.417   .     S
C7     N37     1.380   .     A
C7     N44     1.432   .     S
C7     C318    1.417   1_545 S
C8     N36     1.432   .     S
C8     N35     1.380   .     A
C8     C161    1.417   .     S
C9     O46     1.301   .     A
C9     O47     1.302   .     A
C10    O52     1.301   .     A
C10    C12     1.405   .     S
C10    O49     1.301   .     A
C11    O50     1.301   .     A
C11    C13     1.405   .     S
C11    O51     1.301   .     A
C12    C949    1.188   1_554 S
C13    C480    1.188   .     S
C14    N38     1.435   .     S
C14    C120    1.396   1_455 S
C15    N39     1.435   .     S
C15    C54     1.396   .     S
C16    N40     1.436   .     S
C16    C66     1.396   .     S
Cu17   N35     2.048   .     S
Cu17   Cu18    2.725   .     S
Cu17   O51     1.925   .     S
Cu17   O45     1.951   .     S
Cu17   O49     1.925   .     S
Cu17   O47     1.951   .     S
Cu18   O46     1.951   .     S
Cu18   N37     2.048   .     S
Cu18   O52     1.925   .     S
Cu18   O50     1.925   .     S
Cu18   O48     1.951   .     S
H19    N38     1.046   .     S
H20    N42     1.043   .     S
H21    N43     1.038   .     S
H22    N43     1.043   .     S
H23    N44     1.039   .     S
H24    N44     1.043   .     S
H25    N36     1.039   .     S
H26    N36     1.043   .     S
H27    N38     1.046   .     S
H28    N39     1.046   .     S
H29    N39     1.046   .     S
H30    N40     1.046   .     S
H31    N40     1.045   .     S
H32    N41     1.046   .     S
H33    N41     1.045   .     S
H34    N42     1.038   .     S
C53    O100    1.302   .     A
C53    C56     1.441   .     S
C53    O97     1.301   .     A
C54    C56     1.408   .     A
C54    N93     1.436   .     S
C55    C61     1.441   .     S
C55    C68     1.408   .     A
C55    C67     1.403   .     A
C56    C66     1.403   .     A
C57    N94     1.431   .     S
C57    N89     1.380   .     A
C57    C372    1.417   1_545 S
C58    N87     1.380   .     A
C58    N95     1.431   .     S
C58    C215    1.417   .     S
C59    N89     1.380   .     A
C59    N96     1.432   .     S
C59    C370    1.417   1_545 S
C60    N88     1.432   .     S
C60    N87     1.380   .     A
C60    C213    1.417   .     S
C61    O98     1.301   .     A
C61    O99     1.302   .     A
C62    O104    1.301   .     A
C62    C64     1.405   .     S
C62    O101    1.301   .     A
C63    O102    1.301   .     A
C63    C65     1.405   .     S
C63    O103    1.301   .     A
C64    C1001   1.188   1_554 S
C65    C532    1.188   .     S
C66    N90     1.435   .     S
C67    N91     1.435   .     S
C67    C106    1.396   .     S
C68    N92     1.436   .     S
C68    C118    1.396   .     S
Cu69   N87     2.048   .     S
Cu69   Cu70    2.725   .     S
Cu69   O103    1.925   .     S
Cu69   O97     1.951   .     S
Cu69   O101    1.925   .     S
Cu69   O99     1.951   .     S
Cu70   O98     1.951   .     S
Cu70   N89     2.048   .     S
Cu70   O104    1.925   .     S
Cu70   O102    1.925   .     S
Cu70   O100    1.951   .     S
H71    N90     1.046   .     S
H72    N94     1.043   .     S
H73    N95     1.038   .     S
H74    N95     1.043   .     S
H75    N96     1.039   .     S
H76    N96     1.043   .     S
H77    N88     1.039   .     S
H78    N88     1.043   .     S
H79    N90     1.046   .     S
H80    N91     1.046   .     S
H81    N91     1.046   .     S
H82    N92     1.046   .     S
H83    N92     1.045   .     S
H84    N93     1.046   .     S
H85    N93     1.045   .     S
H86    N94     1.038   .     S
C105   O152    1.302   .     A
C105   C108    1.441   .     S
C105   O149    1.301   .     A
C106   C108    1.408   .     A
C106   N145    1.436   .     S
C107   C113    1.441   .     S
C107   C120    1.408   .     A
C107   C119    1.403   .     A
C108   C118    1.403   .     A
C109   N146    1.431   .     S
C109   N141    1.380   .     A
C109   C424    1.417   1_545 S
C110   N139    1.380   .     A
C110   N147    1.431   .     S
C110   C267    1.417   .     S
C111   N141    1.380   .     A
C111   N148    1.432   .     S
C111   C422    1.417   1_545 S
C112   N140    1.432   .     S
C112   N139    1.380   .     A
C112   C265    1.417   .     S
C113   O150    1.301   .     A
C113   O151    1.302   .     A
C114   O156    1.301   .     A
C114   C116    1.405   .     S
C114   O153    1.301   .     A
C115   O154    1.301   .     A
C115   C117    1.405   .     S
C115   O155    1.301   .     A
C116   C1053   1.188   1_554 S
C117   C584    1.188   .     S
C118   N142    1.435   .     S
C119   N143    1.435   .     S
C119   C2      1.396   1_655 S
C120   N144    1.436   .     S
C120   C14     1.396   1_655 S
Cu121  N139    2.048   .     S
Cu121  Cu122   2.725   .     S
Cu121  O155    1.925   .     S
Cu121  O149    1.951   .     S
Cu121  O153    1.925   .     S
Cu121  O151    1.951   .     S
Cu122  O150    1.951   .     S
Cu122  N141    2.048   .     S
Cu122  O156    1.925   .     S
Cu122  O154    1.925   .     S
Cu122  O152    1.951   .     S
H123   N142    1.046   .     S
H124   N146    1.043   .     S
H125   N147    1.038   .     S
H126   N147    1.043   .     S
H127   N148    1.039   .     S
H128   N148    1.043   .     S
H129   N140    1.039   .     S
H130   N140    1.043   .     S
H131   N142    1.046   .     S
H132   N143    1.046   .     S
H133   N143    1.046   .     S
H134   N144    1.046   .     S
H135   N144    1.045   .     S
H136   N145    1.046   .     S
H137   N145    1.045   .     S
H138   N146    1.038   .     S
C157   O204    1.302   .     A
C157   C160    1.441   .     S
C157   O201    1.301   .     A
C158   C160    1.408   .     A
C158   N197    1.436   .     S
C158   C275    1.396   1_455 S
C159   C165    1.441   .     S
C159   C172    1.408   .     A
C159   C171    1.403   .     A
C160   C170    1.403   .     A
C161   N198    1.431   .     S
C161   N193    1.380   .     A
C162   N191    1.380   .     A
C162   N199    1.431   .     S
C162   C319    1.417   .     S
C163   N193    1.380   .     A
C163   N200    1.432   .     S
C164   N192    1.432   .     S
C164   N191    1.380   .     A
C164   C317    1.417   .     S
C165   O202    1.301   .     A
C165   O203    1.302   .     A
C166   O208    1.301   .     A
C166   C168    1.405   .     S
C166   O205    1.301   .     A
C167   O206    1.301   .     A
C167   C169    1.405   .     S
C167   O207    1.301   .     A
C168   C1105   1.188   1_554 S
C169   C636    1.188   .     S
C170   N194    1.435   .     S
C170   C276    1.396   1_455 S
C171   N195    1.435   .     S
C171   C210    1.396   .     S
C172   N196    1.436   .     S
C172   C222    1.396   .     S
Cu173  N191    2.048   .     S
Cu173  Cu174   2.725   .     S
Cu173  O207    1.925   .     S
Cu173  O201    1.951   .     S
Cu173  O205    1.925   .     S
Cu173  O203    1.951   .     S
Cu174  O202    1.951   .     S
Cu174  N193    2.048   .     S
Cu174  O208    1.925   .     S
Cu174  O206    1.925   .     S
Cu174  O204    1.951   .     S
H175   N194    1.046   .     S
H176   N198    1.043   .     S
H177   N199    1.038   .     S
H178   N199    1.043   .     S
H179   N200    1.039   .     S
H180   N200    1.043   .     S
H181   N192    1.039   .     S
H182   N192    1.043   .     S
H183   N194    1.046   .     S
H184   N195    1.046   .     S
H185   N195    1.046   .     S
H186   N196    1.046   .     S
H187   N196    1.045   .     S
H188   N197    1.046   .     S
H189   N197    1.045   .     S
H190   N198    1.038   .     S
C209   O256    1.302   .     A
C209   C212    1.441   .     S
C209   O253    1.301   .     A
C210   C212    1.408   .     A
C210   N249    1.436   .     S
C211   C217    1.441   .     S
C211   C224    1.408   .     A
C211   C223    1.403   .     A
C212   C222    1.403   .     A
C213   N250    1.431   .     S
C213   N245    1.380   .     A
C214   N243    1.380   .     A
C214   N251    1.431   .     S
C214   C371    1.417   .     S
C215   N245    1.380   .     A
C215   N252    1.432   .     S
C216   N244    1.432   .     S
C216   N243    1.380   .     A
C216   C369    1.417   .     S
C217   O254    1.301   .     A
C217   O255    1.302   .     A
C218   O260    1.301   .     A
C218   C220    1.405   .     S
C218   O257    1.301   .     A
C219   O258    1.301   .     A
C219   C221    1.405   .     S
C219   O259    1.301   .     A
C220   C1157   1.188   1_554 S
C221   C688    1.188   .     S
C222   N246    1.435   .     S
C223   N247    1.435   .     S
C223   C262    1.396   .     S
C224   N248    1.436   .     S
C224   C274    1.396   .     S
Cu225  N243    2.048   .     S
Cu225  Cu226   2.725   .     S
Cu225  O259    1.925   .     S
Cu225  O253    1.951   .     S
Cu225  O257    1.925   .     S
Cu225  O255    1.951   .     S
Cu226  O254    1.951   .     S
Cu226  N245    2.048   .     S
Cu226  O260    1.925   .     S
Cu226  O258    1.925   .     S
Cu226  O256    1.951   .     S
H227   N246    1.046   .     S
H228   N250    1.043   .     S
H229   N251    1.038   .     S
H230   N251    1.043   .     S
H231   N252    1.039   .     S
H232   N252    1.043   .     S
H233   N244    1.039   .     S
H234   N244    1.043   .     S
H235   N246    1.046   .     S
H236   N247    1.046   .     S
H237   N247    1.046   .     S
H238   N248    1.046   .     S
H239   N248    1.045   .     S
H240   N249    1.046   .     S
H241   N249    1.045   .     S
H242   N250    1.038   .     S
C261   O308    1.302   .     A
C261   C264    1.441   .     S
C261   O305    1.301   .     A
C262   C264    1.408   .     A
C262   N301    1.436   .     S
C263   C269    1.441   .     S
C263   C276    1.408   .     A
C263   C275    1.403   .     A
C264   C274    1.403   .     A
C265   N302    1.431   .     S
C265   N297    1.380   .     A
C266   N295    1.380   .     A
C266   N303    1.431   .     S
C266   C423    1.417   .     S
C267   N297    1.380   .     A
C267   N304    1.432   .     S
C268   N296    1.432   .     S
C268   N295    1.380   .     A
C268   C421    1.417   .     S
C269   O306    1.301   .     A
C269   O307    1.302   .     A
C270   O312    1.301   .     A
C270   C272    1.405   .     S
C270   O309    1.301   .     A
C271   O310    1.301   .     A
C271   C273    1.405   .     S
C271   O311    1.301   .     A
C272   C1209   1.188   1_554 S
C273   C740    1.188   .     S
C274   N298    1.435   .     S
C275   N299    1.435   .     S
C275   C158    1.396   1_655 S
C276   N300    1.436   .     S
C276   C170    1.396   1_655 S
Cu277  N295    2.048   .     S
Cu277  Cu278   2.725   .     S
Cu277  O311    1.925   .     S
Cu277  O305    1.951   .     S
Cu277  O309    1.925   .     S
Cu277  O307    1.951   .     S
Cu278  O306    1.951   .     S
Cu278  N297    2.048   .     S
Cu278  O312    1.925   .     S
Cu278  O310    1.925   .     S
Cu278  O308    1.951   .     S
H279   N298    1.046   .     S
H280   N302    1.043   .     S
H281   N303    1.038   .     S
H282   N303    1.043   .     S
H283   N304    1.039   .     S
H284   N304    1.043   .     S
H285   N296    1.039   .     S
H286   N296    1.043   .     S
H287   N298    1.046   .     S
H288   N299    1.046   .     S
H289   N299    1.046   .     S
H290   N300    1.046   .     S
H291   N300    1.045   .     S
H292   N301    1.046   .     S
H293   N301    1.045   .     S
H294   N302    1.038   .     S
C313   O360    1.302   .     A
C313   C316    1.441   .     S
C313   O357    1.301   .     A
C314   C316    1.408   .     A
C314   N353    1.436   .     S
C314   C431    1.396   1_455 S
C315   C321    1.441   .     S
C315   C328    1.408   .     A
C315   C327    1.403   .     A
C316   C326    1.403   .     A
C317   N354    1.431   .     S
C317   N349    1.380   .     A
C318   N347    1.380   .     A
C318   N355    1.431   .     S
C318   C7      1.417   1_565 S
C319   N349    1.380   .     A
C319   N356    1.432   .     S
C320   N348    1.432   .     S
C320   N347    1.380   .     A
C320   C5      1.417   1_565 S
C321   O358    1.301   .     A
C321   O359    1.302   .     A
C322   O364    1.301   .     A
C322   C324    1.405   .     S
C322   O361    1.301   .     A
C323   O362    1.301   .     A
C323   C325    1.405   .     S
C323   O363    1.301   .     A
C324   C1261   1.188   1_554 S
C325   C792    1.188   .     S
C326   N350    1.435   .     S
C326   C432    1.396   1_455 S
C327   N351    1.435   .     S
C327   C366    1.396   .     S
C328   N352    1.436   .     S
C328   C378    1.396   .     S
Cu329  N347    2.048   .     S
Cu329  Cu330   2.725   .     S
Cu329  O363    1.925   .     S
Cu329  O357    1.951   .     S
Cu329  O361    1.925   .     S
Cu329  O359    1.951   .     S
Cu330  O358    1.951   .     S
Cu330  N349    2.048   .     S
Cu330  O364    1.925   .     S
Cu330  O362    1.925   .     S
Cu330  O360    1.951   .     S
H331   N350    1.046   .     S
H332   N354    1.043   .     S
H333   N355    1.038   .     S
H334   N355    1.043   .     S
H335   N356    1.039   .     S
H336   N356    1.043   .     S
H337   N348    1.039   .     S
H338   N348    1.043   .     S
H339   N350    1.046   .     S
H340   N351    1.046   .     S
H341   N351    1.046   .     S
H342   N352    1.046   .     S
H343   N352    1.045   .     S
H344   N353    1.046   .     S
H345   N353    1.045   .     S
H346   N354    1.038   .     S
C365   O412    1.302   .     A
C365   C368    1.441   .     S
C365   O409    1.301   .     A
C366   C368    1.408   .     A
C366   N405    1.436   .     S
C367   C373    1.441   .     S
C367   C380    1.408   .     A
C367   C379    1.403   .     A
C368   C378    1.403   .     A
C369   N406    1.431   .     S
C369   N401    1.380   .     A
C370   N399    1.380   .     A
C370   N407    1.431   .     S
C370   C59     1.417   1_565 S
C371   N401    1.380   .     A
C371   N408    1.432   .     S
C372   N400    1.432   .     S
C372   N399    1.380   .     A
C372   C57     1.417   1_565 S
C373   O410    1.301   .     A
C373   O411    1.302   .     A
C374   O416    1.301   .     A
C374   C376    1.405   .     S
C374   O413    1.301   .     A
C375   O414    1.301   .     A
C375   C377    1.405   .     S
C375   O415    1.301   .     A
C376   C1313   1.188   1_554 S
C377   C844    1.188   .     S
C378   N402    1.435   .     S
C379   N403    1.435   .     S
C379   C418    1.396   .     S
C380   N404    1.436   .     S
C380   C430    1.396   .     S
Cu381  N399    2.048   .     S
Cu381  Cu382   2.725   .     S
Cu381  O415    1.925   .     S
Cu381  O409    1.951   .     S
Cu381  O413    1.925   .     S
Cu381  O411    1.951   .     S
Cu382  O410    1.951   .     S
Cu382  N401    2.048   .     S
Cu382  O416    1.925   .     S
Cu382  O414    1.925   .     S
Cu382  O412    1.951   .     S
H383   N402    1.046   .     S
H384   N406    1.043   .     S
H385   N407    1.038   .     S
H386   N407    1.043   .     S
H387   N408    1.039   .     S
H388   N408    1.043   .     S
H389   N400    1.039   .     S
H390   N400    1.043   .     S
H391   N402    1.046   .     S
H392   N403    1.046   .     S
H393   N403    1.046   .     S
H394   N404    1.046   .     S
H395   N404    1.045   .     S
H396   N405    1.046   .     S
H397   N405    1.045   .     S
H398   N406    1.038   .     S
C417   O464    1.302   .     A
C417   C420    1.441   .     S
C417   O461    1.301   .     A
C418   C420    1.408   .     A
C418   N457    1.436   .     S
C419   C425    1.441   .     S
C419   C432    1.408   .     A
C419   C431    1.403   .     A
C420   C430    1.403   .     A
C421   N458    1.431   .     S
C421   N453    1.380   .     A
C422   N451    1.380   .     A
C422   N459    1.431   .     S
C422   C111    1.417   1_565 S
C423   N453    1.380   .     A
C423   N460    1.432   .     S
C424   N452    1.432   .     S
C424   N451    1.380   .     A
C424   C109    1.417   1_565 S
C425   O462    1.301   .     A
C425   O463    1.302   .     A
C426   O468    1.301   .     A
C426   C428    1.405   .     S
C426   O465    1.301   .     A
C427   O466    1.301   .     A
C427   C429    1.405   .     S
C427   O467    1.301   .     A
C428   C1365   1.188   1_554 S
C429   C896    1.188   .     S
C430   N454    1.435   .     S
C431   N455    1.435   .     S
C431   C314    1.396   1_655 S
C432   N456    1.436   .     S
C432   C326    1.396   1_655 S
Cu433  N451    2.048   .     S
Cu433  Cu434   2.725   .     S
Cu433  O467    1.925   .     S
Cu433  O461    1.951   .     S
Cu433  O465    1.925   .     S
Cu433  O463    1.951   .     S
Cu434  O462    1.951   .     S
Cu434  N453    2.048   .     S
Cu434  O468    1.925   .     S
Cu434  O466    1.925   .     S
Cu434  O464    1.951   .     S
H435   N454    1.046   .     S
H436   N458    1.043   .     S
H437   N459    1.038   .     S
H438   N459    1.043   .     S
H439   N460    1.039   .     S
H440   N460    1.043   .     S
H441   N452    1.039   .     S
H442   N452    1.043   .     S
H443   N454    1.046   .     S
H444   N455    1.046   .     S
H445   N455    1.046   .     S
H446   N456    1.046   .     S
H447   N456    1.045   .     S
H448   N457    1.046   .     S
H449   N457    1.045   .     S
H450   N458    1.038   .     S
C469   O516    1.302   .     A
C469   C472    1.441   .     S
C469   O513    1.301   .     A
C470   C472    1.408   .     A
C470   N509    1.436   .     S
C470   C587    1.396   1_455 S
C471   C477    1.441   .     S
C471   C484    1.408   .     A
C471   C483    1.403   .     A
C472   C482    1.403   .     A
C473   N510    1.431   .     S
C473   N505    1.380   .     A
C473   C788    1.417   1_545 S
C474   N503    1.380   .     A
C474   N511    1.431   .     S
C474   C631    1.417   .     S
C475   N505    1.380   .     A
C475   N512    1.432   .     S
C475   C786    1.417   1_545 S
C476   N504    1.432   .     S
C476   N503    1.380   .     A
C476   C629    1.417   .     S
C477   O514    1.301   .     A
C477   O515    1.302   .     A
C478   O520    1.301   .     A
C478   C480    1.405   .     S
C478   O517    1.301   .     A
C479   O518    1.301   .     A
C479   C481    1.405   .     S
C479   O519    1.301   .     A
C481   C948    1.188   .     S
C482   N506    1.435   .     S
C482   C588    1.396   1_455 S
C483   N507    1.435   .     S
C483   C522    1.396   .     S
C484   N508    1.436   .     S
C484   C534    1.396   .     S
Cu485  N503    2.048   .     S
Cu485  Cu486   2.725   .     S
Cu485  O519    1.925   .     S
Cu485  O513    1.951   .     S
Cu485  O517    1.925   .     S
Cu485  O515    1.951   .     S
Cu486  O514    1.951   .     S
Cu486  N505    2.048   .     S
Cu486  O520    1.925   .     S
Cu486  O518    1.925   .     S
Cu486  O516    1.951   .     S
H487   N506    1.046   .     S
H488   N510    1.043   .     S
H489   N511    1.038   .     S
H490   N511    1.043   .     S
H491   N512    1.039   .     S
H492   N512    1.043   .     S
H493   N504    1.039   .     S
H494   N504    1.043   .     S
H495   N506    1.046   .     S
H496   N507    1.046   .     S
H497   N507    1.046   .     S
H498   N508    1.046   .     S
H499   N508    1.045   .     S
H500   N509    1.046   .     S
H501   N509    1.045   .     S
H502   N510    1.038   .     S
C521   O568    1.302   .     A
C521   C524    1.441   .     S
C521   O565    1.301   .     A
C522   C524    1.408   .     A
C522   N561    1.436   .     S
C523   C529    1.441   .     S
C523   C536    1.408   .     A
C523   C535    1.403   .     A
C524   C534    1.403   .     A
C525   N562    1.431   .     S
C525   N557    1.380   .     A
C525   C840    1.417   1_545 S
C526   N555    1.380   .     A
C526   N563    1.431   .     S
C526   C683    1.417   .     S
C527   N557    1.380   .     A
C527   N564    1.432   .     S
C527   C838    1.417   1_545 S
C528   N556    1.432   .     S
C528   N555    1.380   .     A
C528   C681    1.417   .     S
C529   O566    1.301   .     A
C529   O567    1.302   .     A
C530   O572    1.301   .     A
C530   C532    1.405   .     S
C530   O569    1.301   .     A
C531   O570    1.301   .     A
C531   C533    1.405   .     S
C531   O571    1.301   .     A
C533   C1000   1.188   .     S
C534   N558    1.435   .     S
C535   N559    1.435   .     S
C535   C574    1.396   .     S
C536   N560    1.436   .     S
C536   C586    1.396   .     S
Cu537  N555    2.048   .     S
Cu537  Cu538   2.725   .     S
Cu537  O571    1.925   .     S
Cu537  O565    1.951   .     S
Cu537  O569    1.925   .     S
Cu537  O567    1.951   .     S
Cu538  O566    1.951   .     S
Cu538  N557    2.048   .     S
Cu538  O572    1.925   .     S
Cu538  O570    1.925   .     S
Cu538  O568    1.951   .     S
H539   N558    1.046   .     S
H540   N562    1.043   .     S
H541   N563    1.038   .     S
H542   N563    1.043   .     S
H543   N564    1.039   .     S
H544   N564    1.043   .     S
H545   N556    1.039   .     S
H546   N556    1.043   .     S
H547   N558    1.046   .     S
H548   N559    1.046   .     S
H549   N559    1.046   .     S
H550   N560    1.046   .     S
H551   N560    1.045   .     S
H552   N561    1.046   .     S
H553   N561    1.045   .     S
H554   N562    1.038   .     S
C573   O620    1.302   .     A
C573   C576    1.441   .     S
C573   O617    1.301   .     A
C574   C576    1.408   .     A
C574   N613    1.436   .     S
C575   C581    1.441   .     S
C575   C588    1.408   .     A
C575   C587    1.403   .     A
C576   C586    1.403   .     A
C577   N614    1.431   .     S
C577   N609    1.380   .     A
C577   C892    1.417   1_545 S
C578   N607    1.380   .     A
C578   N615    1.431   .     S
C578   C735    1.417   .     S
C579   N609    1.380   .     A
C579   N616    1.432   .     S
C579   C890    1.417   1_545 S
C580   N608    1.432   .     S
C580   N607    1.380   .     A
C580   C733    1.417   .     S
C581   O618    1.301   .     A
C581   O619    1.302   .     A
C582   O624    1.301   .     A
C582   C584    1.405   .     S
C582   O621    1.301   .     A
C583   O622    1.301   .     A
C583   C585    1.405   .     S
C583   O623    1.301   .     A
C585   C1052   1.188   .     S
C586   N610    1.435   .     S
C587   N611    1.435   .     S
C587   C470    1.396   1_655 S
C588   N612    1.436   .     S
C588   C482    1.396   1_655 S
Cu589  N607    2.048   .     S
Cu589  Cu590   2.725   .     S
Cu589  O623    1.925   .     S
Cu589  O617    1.951   .     S
Cu589  O621    1.925   .     S
Cu589  O619    1.951   .     S
Cu590  O618    1.951   .     S
Cu590  N609    2.048   .     S
Cu590  O624    1.925   .     S
Cu590  O622    1.925   .     S
Cu590  O620    1.951   .     S
H591   N610    1.046   .     S
H592   N614    1.043   .     S
H593   N615    1.038   .     S
H594   N615    1.043   .     S
H595   N616    1.039   .     S
H596   N616    1.043   .     S
H597   N608    1.039   .     S
H598   N608    1.043   .     S
H599   N610    1.046   .     S
H600   N611    1.046   .     S
H601   N611    1.046   .     S
H602   N612    1.046   .     S
H603   N612    1.045   .     S
H604   N613    1.046   .     S
H605   N613    1.045   .     S
H606   N614    1.038   .     S
C625   O672    1.302   .     A
C625   C628    1.441   .     S
C625   O669    1.301   .     A
C626   C628    1.408   .     A
C626   N665    1.436   .     S
C626   C743    1.396   1_455 S
C627   C633    1.441   .     S
C627   C640    1.408   .     A
C627   C639    1.403   .     A
C628   C638    1.403   .     A
C629   N666    1.431   .     S
C629   N661    1.380   .     A
C630   N659    1.380   .     A
C630   N667    1.431   .     S
C630   C787    1.417   .     S
C631   N661    1.380   .     A
C631   N668    1.432   .     S
C632   N660    1.432   .     S
C632   N659    1.380   .     A
C632   C785    1.417   .     S
C633   O670    1.301   .     A
C633   O671    1.302   .     A
C634   O676    1.301   .     A
C634   C636    1.405   .     S
C634   O673    1.301   .     A
C635   O674    1.301   .     A
C635   C637    1.405   .     S
C635   O675    1.301   .     A
C637   C1104   1.188   .     S
C638   N662    1.435   .     S
C638   C744    1.396   1_455 S
C639   N663    1.435   .     S
C639   C678    1.396   .     S
C640   N664    1.436   .     S
C640   C690    1.396   .     S
Cu641  N659    2.048   .     S
Cu641  Cu642   2.725   .     S
Cu641  O675    1.925   .     S
Cu641  O669    1.951   .     S
Cu641  O673    1.925   .     S
Cu641  O671    1.951   .     S
Cu642  O670    1.951   .     S
Cu642  N661    2.048   .     S
Cu642  O676    1.925   .     S
Cu642  O674    1.925   .     S
Cu642  O672    1.951   .     S
H643   N662    1.046   .     S
H644   N666    1.043   .     S
H645   N667    1.038   .     S
H646   N667    1.043   .     S
H647   N668    1.039   .     S
H648   N668    1.043   .     S
H649   N660    1.039   .     S
H650   N660    1.043   .     S
H651   N662    1.046   .     S
H652   N663    1.046   .     S
H653   N663    1.046   .     S
H654   N664    1.046   .     S
H655   N664    1.045   .     S
H656   N665    1.046   .     S
H657   N665    1.045   .     S
H658   N666    1.038   .     S
C677   O724    1.302   .     A
C677   C680    1.441   .     S
C677   O721    1.301   .     A
C678   C680    1.408   .     A
C678   N717    1.436   .     S
C679   C685    1.441   .     S
C679   C692    1.408   .     A
C679   C691    1.403   .     A
C680   C690    1.403   .     A
C681   N718    1.431   .     S
C681   N713    1.380   .     A
C682   N711    1.380   .     A
C682   N719    1.431   .     S
C682   C839    1.417   .     S
C683   N713    1.380   .     A
C683   N720    1.432   .     S
C684   N712    1.432   .     S
C684   N711    1.380   .     A
C684   C837    1.417   .     S
C685   O722    1.301   .     A
C685   O723    1.302   .     A
C686   O728    1.301   .     A
C686   C688    1.405   .     S
C686   O725    1.301   .     A
C687   O726    1.301   .     A
C687   C689    1.405   .     S
C687   O727    1.301   .     A
C689   C1156   1.188   .     S
C690   N714    1.435   .     S
C691   N715    1.435   .     S
C691   C730    1.396   .     S
C692   N716    1.436   .     S
C692   C742    1.396   .     S
Cu693  N711    2.048   .     S
Cu693  Cu694   2.725   .     S
Cu693  O727    1.925   .     S
Cu693  O721    1.951   .     S
Cu693  O725    1.925   .     S
Cu693  O723    1.951   .     S
Cu694  O722    1.951   .     S
Cu694  N713    2.048   .     S
Cu694  O728    1.925   .     S
Cu694  O726    1.925   .     S
Cu694  O724    1.951   .     S
H695   N714    1.046   .     S
H696   N718    1.043   .     S
H697   N719    1.038   .     S
H698   N719    1.043   .     S
H699   N720    1.039   .     S
H700   N720    1.043   .     S
H701   N712    1.039   .     S
H702   N712    1.043   .     S
H703   N714    1.046   .     S
H704   N715    1.046   .     S
H705   N715    1.046   .     S
H706   N716    1.046   .     S
H707   N716    1.045   .     S
H708   N717    1.046   .     S
H709   N717    1.045   .     S
H710   N718    1.038   .     S
C729   O776    1.302   .     A
C729   C732    1.441   .     S
C729   O773    1.301   .     A
C730   C732    1.408   .     A
C730   N769    1.436   .     S
C731   C737    1.441   .     S
C731   C744    1.408   .     A
C731   C743    1.403   .     A
C732   C742    1.403   .     A
C733   N770    1.431   .     S
C733   N765    1.380   .     A
C734   N763    1.380   .     A
C734   N771    1.431   .     S
C734   C891    1.417   .     S
C735   N765    1.380   .     A
C735   N772    1.432   .     S
C736   N764    1.432   .     S
C736   N763    1.380   .     A
C736   C889    1.417   .     S
C737   O774    1.301   .     A
C737   O775    1.302   .     A
C738   O780    1.301   .     A
C738   C740    1.405   .     S
C738   O777    1.301   .     A
C739   O778    1.301   .     A
C739   C741    1.405   .     S
C739   O779    1.301   .     A
C741   C1208   1.188   .     S
C742   N766    1.435   .     S
C743   N767    1.435   .     S
C743   C626    1.396   1_655 S
C744   N768    1.436   .     S
C744   C638    1.396   1_655 S
Cu745  N763    2.048   .     S
Cu745  Cu746   2.725   .     S
Cu745  O779    1.925   .     S
Cu745  O773    1.951   .     S
Cu745  O777    1.925   .     S
Cu745  O775    1.951   .     S
Cu746  O774    1.951   .     S
Cu746  N765    2.048   .     S
Cu746  O780    1.925   .     S
Cu746  O778    1.925   .     S
Cu746  O776    1.951   .     S
H747   N766    1.046   .     S
H748   N770    1.043   .     S
H749   N771    1.038   .     S
H750   N771    1.043   .     S
H751   N772    1.039   .     S
H752   N772    1.043   .     S
H753   N764    1.039   .     S
H754   N764    1.043   .     S
H755   N766    1.046   .     S
H756   N767    1.046   .     S
H757   N767    1.046   .     S
H758   N768    1.046   .     S
H759   N768    1.045   .     S
H760   N769    1.046   .     S
H761   N769    1.045   .     S
H762   N770    1.038   .     S
C781   O828    1.302   .     A
C781   C784    1.441   .     S
C781   O825    1.301   .     A
C782   C784    1.408   .     A
C782   N821    1.436   .     S
C782   C899    1.396   1_455 S
C783   C789    1.441   .     S
C783   C796    1.408   .     A
C783   C795    1.403   .     A
C784   C794    1.403   .     A
C785   N822    1.431   .     S
C785   N817    1.380   .     A
C786   N815    1.380   .     A
C786   N823    1.431   .     S
C786   C475    1.417   1_565 S
C787   N817    1.380   .     A
C787   N824    1.432   .     S
C788   N816    1.432   .     S
C788   N815    1.380   .     A
C788   C473    1.417   1_565 S
C789   O826    1.301   .     A
C789   O827    1.302   .     A
C790   O832    1.301   .     A
C790   C792    1.405   .     S
C790   O829    1.301   .     A
C791   O830    1.301   .     A
C791   C793    1.405   .     S
C791   O831    1.301   .     A
C793   C1260   1.188   .     S
C794   N818    1.435   .     S
C794   C900    1.396   1_455 S
C795   N819    1.435   .     S
C795   C834    1.396   .     S
C796   N820    1.436   .     S
C796   C846    1.396   .     S
Cu797  N815    2.048   .     S
Cu797  Cu798   2.725   .     S
Cu797  O831    1.925   .     S
Cu797  O825    1.951   .     S
Cu797  O829    1.925   .     S
Cu797  O827    1.951   .     S
Cu798  O826    1.951   .     S
Cu798  N817    2.048   .     S
Cu798  O832    1.925   .     S
Cu798  O830    1.925   .     S
Cu798  O828    1.951   .     S
H799   N818    1.046   .     S
H800   N822    1.043   .     S
H801   N823    1.038   .     S
H802   N823    1.043   .     S
H803   N824    1.039   .     S
H804   N824    1.043   .     S
H805   N816    1.039   .     S
H806   N816    1.043   .     S
H807   N818    1.046   .     S
H808   N819    1.046   .     S
H809   N819    1.046   .     S
H810   N820    1.046   .     S
H811   N820    1.045   .     S
H812   N821    1.046   .     S
H813   N821    1.045   .     S
H814   N822    1.038   .     S
C833   O880    1.302   .     A
C833   C836    1.441   .     S
C833   O877    1.301   .     A
C834   C836    1.408   .     A
C834   N873    1.436   .     S
C835   C841    1.441   .     S
C835   C848    1.408   .     A
C835   C847    1.403   .     A
C836   C846    1.403   .     A
C837   N874    1.431   .     S
C837   N869    1.380   .     A
C838   N867    1.380   .     A
C838   N875    1.431   .     S
C838   C527    1.417   1_565 S
C839   N869    1.380   .     A
C839   N876    1.432   .     S
C840   N868    1.432   .     S
C840   N867    1.380   .     A
C840   C525    1.417   1_565 S
C841   O878    1.301   .     A
C841   O879    1.302   .     A
C842   O884    1.301   .     A
C842   C844    1.405   .     S
C842   O881    1.301   .     A
C843   O882    1.301   .     A
C843   C845    1.405   .     S
C843   O883    1.301   .     A
C845   C1312   1.188   .     S
C846   N870    1.435   .     S
C847   N871    1.435   .     S
C847   C886    1.396   .     S
C848   N872    1.436   .     S
C848   C898    1.396   .     S
Cu849  N867    2.048   .     S
Cu849  Cu850   2.725   .     S
Cu849  O883    1.925   .     S
Cu849  O877    1.951   .     S
Cu849  O881    1.925   .     S
Cu849  O879    1.951   .     S
Cu850  O878    1.951   .     S
Cu850  N869    2.048   .     S
Cu850  O884    1.925   .     S
Cu850  O882    1.925   .     S
Cu850  O880    1.951   .     S
H851   N870    1.046   .     S
H852   N874    1.043   .     S
H853   N875    1.038   .     S
H854   N875    1.043   .     S
H855   N876    1.039   .     S
H856   N876    1.043   .     S
H857   N868    1.039   .     S
H858   N868    1.043   .     S
H859   N870    1.046   .     S
H860   N871    1.046   .     S
H861   N871    1.046   .     S
H862   N872    1.046   .     S
H863   N872    1.045   .     S
H864   N873    1.046   .     S
H865   N873    1.045   .     S
H866   N874    1.038   .     S
C885   O932    1.302   .     A
C885   C888    1.441   .     S
C885   O929    1.301   .     A
C886   C888    1.408   .     A
C886   N925    1.436   .     S
C887   C893    1.441   .     S
C887   C900    1.408   .     A
C887   C899    1.403   .     A
C888   C898    1.403   .     A
C889   N926    1.431   .     S
C889   N921    1.380   .     A
C890   N919    1.380   .     A
C890   N927    1.431   .     S
C890   C579    1.417   1_565 S
C891   N921    1.380   .     A
C891   N928    1.432   .     S
C892   N920    1.432   .     S
C892   N919    1.380   .     A
C892   C577    1.417   1_565 S
C893   O930    1.301   .     A
C893   O931    1.302   .     A
C894   O936    1.301   .     A
C894   C896    1.405   .     S
C894   O933    1.301   .     A
C895   O934    1.301   .     A
C895   C897    1.405   .     S
C895   O935    1.301   .     A
C897   C1364   1.188   .     S
C898   N922    1.435   .     S
C899   N923    1.435   .     S
C899   C782    1.396   1_655 S
C900   N924    1.436   .     S
C900   C794    1.396   1_655 S
Cu901  N919    2.048   .     S
Cu901  Cu902   2.725   .     S
Cu901  O935    1.925   .     S
Cu901  O929    1.951   .     S
Cu901  O933    1.925   .     S
Cu901  O931    1.951   .     S
Cu902  O930    1.951   .     S
Cu902  N921    2.048   .     S
Cu902  O936    1.925   .     S
Cu902  O934    1.925   .     S
Cu902  O932    1.951   .     S
H903   N922    1.046   .     S
H904   N926    1.043   .     S
H905   N927    1.038   .     S
H906   N927    1.043   .     S
H907   N928    1.039   .     S
H908   N928    1.043   .     S
H909   N920    1.039   .     S
H910   N920    1.043   .     S
H911   N922    1.046   .     S
H912   N923    1.046   .     S
H913   N923    1.046   .     S
H914   N924    1.046   .     S
H915   N924    1.045   .     S
H916   N925    1.046   .     S
H917   N925    1.045   .     S
H918   N926    1.038   .     S
C937   O984    1.302   .     A
C937   C940    1.441   .     S
C937   O981    1.301   .     A
C938   C940    1.408   .     A
C938   N977    1.436   .     S
C938   C1055   1.396   1_455 S
C939   C945    1.441   .     S
C939   C952    1.408   .     A
C939   C951    1.403   .     A
C940   C950    1.403   .     A
C941   N978    1.431   .     S
C941   N973    1.380   .     A
C941   C1256   1.417   1_545 S
C942   N971    1.380   .     A
C942   N979    1.431   .     S
C942   C1099   1.417   .     S
C943   N973    1.380   .     A
C943   N980    1.432   .     S
C943   C1254   1.417   1_545 S
C944   N972    1.432   .     S
C944   N971    1.380   .     A
C944   C1097   1.417   .     S
C945   O982    1.301   .     A
C945   O983    1.302   .     A
C946   O988    1.301   .     A
C946   C948    1.405   .     S
C946   O985    1.301   .     A
C947   O986    1.301   .     A
C947   C949    1.405   .     S
C947   O987    1.301   .     A
C949   C12     1.188   1_556 S
C950   N974    1.435   .     S
C950   C1056   1.396   1_455 S
C951   N975    1.435   .     S
C951   C990    1.396   .     S
C952   N976    1.436   .     S
C952   C1002   1.396   .     S
Cu953  N971    2.048   .     S
Cu953  Cu954   2.725   .     S
Cu953  O987    1.925   .     S
Cu953  O981    1.951   .     S
Cu953  O985    1.925   .     S
Cu953  O983    1.951   .     S
Cu954  O982    1.951   .     S
Cu954  N973    2.048   .     S
Cu954  O988    1.925   .     S
Cu954  O986    1.925   .     S
Cu954  O984    1.951   .     S
H955   N974    1.046   .     S
H956   N978    1.043   .     S
H957   N979    1.038   .     S
H958   N979    1.043   .     S
H959   N980    1.039   .     S
H960   N980    1.043   .     S
H961   N972    1.039   .     S
H962   N972    1.043   .     S
H963   N974    1.046   .     S
H964   N975    1.046   .     S
H965   N975    1.046   .     S
H966   N976    1.046   .     S
H967   N976    1.045   .     S
H968   N977    1.046   .     S
H969   N977    1.045   .     S
H970   N978    1.038   .     S
C989   O1036   1.302   .     A
C989   C992    1.441   .     S
C989   O1033   1.301   .     A
C990   C992    1.408   .     A
C990   N1029   1.436   .     S
C991   C997    1.441   .     S
C991   C1004   1.408   .     A
C991   C1003   1.403   .     A
C992   C1002   1.403   .     A
C993   N1030   1.431   .     S
C993   N1025   1.380   .     A
C993   C1308   1.417   1_545 S
C994   N1023   1.380   .     A
C994   N1031   1.431   .     S
C994   C1151   1.417   .     S
C995   N1025   1.380   .     A
C995   N1032   1.432   .     S
C995   C1306   1.417   1_545 S
C996   N1024   1.432   .     S
C996   N1023   1.380   .     A
C996   C1149   1.417   .     S
C997   O1034   1.301   .     A
C997   O1035   1.302   .     A
C998   O1040   1.301   .     A
C998   C1000   1.405   .     S
C998   O1037   1.301   .     A
C999   O1038   1.301   .     A
C999   C1001   1.405   .     S
C999   O1039   1.301   .     A
C1001  C64     1.188   1_556 S
C1002  N1026   1.435   .     S
C1003  N1027   1.435   .     S
C1003  C1042   1.396   .     S
C1004  N1028   1.436   .     S
C1004  C1054   1.396   .     S
Cu1005 N1023   2.048   .     S
Cu1005 Cu1006  2.725   .     S
Cu1005 O1039   1.925   .     S
Cu1005 O1033   1.951   .     S
Cu1005 O1037   1.925   .     S
Cu1005 O1035   1.951   .     S
Cu1006 O1034   1.951   .     S
Cu1006 N1025   2.048   .     S
Cu1006 O1040   1.925   .     S
Cu1006 O1038   1.925   .     S
Cu1006 O1036   1.951   .     S
H1007  N1026   1.046   .     S
H1008  N1030   1.043   .     S
H1009  N1031   1.038   .     S
H1010  N1031   1.043   .     S
H1011  N1032   1.039   .     S
H1012  N1032   1.043   .     S
H1013  N1024   1.039   .     S
H1014  N1024   1.043   .     S
H1015  N1026   1.046   .     S
H1016  N1027   1.046   .     S
H1017  N1027   1.046   .     S
H1018  N1028   1.046   .     S
H1019  N1028   1.045   .     S
H1020  N1029   1.046   .     S
H1021  N1029   1.045   .     S
H1022  N1030   1.038   .     S
C1041  O1088   1.302   .     A
C1041  C1044   1.441   .     S
C1041  O1085   1.301   .     A
C1042  C1044   1.408   .     A
C1042  N1081   1.436   .     S
C1043  C1049   1.441   .     S
C1043  C1056   1.408   .     A
C1043  C1055   1.403   .     A
C1044  C1054   1.403   .     A
C1045  N1082   1.431   .     S
C1045  N1077   1.380   .     A
C1045  C1360   1.417   1_545 S
C1046  N1075   1.380   .     A
C1046  N1083   1.431   .     S
C1046  C1203   1.417   .     S
C1047  N1077   1.380   .     A
C1047  N1084   1.432   .     S
C1047  C1358   1.417   1_545 S
C1048  N1076   1.432   .     S
C1048  N1075   1.380   .     A
C1048  C1201   1.417   .     S
C1049  O1086   1.301   .     A
C1049  O1087   1.302   .     A
C1050  O1092   1.301   .     A
C1050  C1052   1.405   .     S
C1050  O1089   1.301   .     A
C1051  O1090   1.301   .     A
C1051  C1053   1.405   .     S
C1051  O1091   1.301   .     A
C1053  C116    1.188   1_556 S
C1054  N1078   1.435   .     S
C1055  N1079   1.435   .     S
C1055  C938    1.396   1_655 S
C1056  N1080   1.436   .     S
C1056  C950    1.396   1_655 S
Cu1057 N1075   2.048   .     S
Cu1057 Cu1058  2.725   .     S
Cu1057 O1091   1.925   .     S
Cu1057 O1085   1.951   .     S
Cu1057 O1089   1.925   .     S
Cu1057 O1087   1.951   .     S
Cu1058 O1086   1.951   .     S
Cu1058 N1077   2.048   .     S
Cu1058 O1092   1.925   .     S
Cu1058 O1090   1.925   .     S
Cu1058 O1088   1.951   .     S
H1059  N1078   1.046   .     S
H1060  N1082   1.043   .     S
H1061  N1083   1.038   .     S
H1062  N1083   1.043   .     S
H1063  N1084   1.039   .     S
H1064  N1084   1.043   .     S
H1065  N1076   1.039   .     S
H1066  N1076   1.043   .     S
H1067  N1078   1.046   .     S
H1068  N1079   1.046   .     S
H1069  N1079   1.046   .     S
H1070  N1080   1.046   .     S
H1071  N1080   1.045   .     S
H1072  N1081   1.046   .     S
H1073  N1081   1.045   .     S
H1074  N1082   1.038   .     S
C1093  O1140   1.302   .     A
C1093  C1096   1.441   .     S
C1093  O1137   1.301   .     A
C1094  C1096   1.408   .     A
C1094  N1133   1.436   .     S
C1094  C1211   1.396   1_455 S
C1095  C1101   1.441   .     S
C1095  C1108   1.408   .     A
C1095  C1107   1.403   .     A
C1096  C1106   1.403   .     A
C1097  N1134   1.431   .     S
C1097  N1129   1.380   .     A
C1098  N1127   1.380   .     A
C1098  N1135   1.431   .     S
C1098  C1255   1.417   .     S
C1099  N1129   1.380   .     A
C1099  N1136   1.432   .     S
C1100  N1128   1.432   .     S
C1100  N1127   1.380   .     A
C1100  C1253   1.417   .     S
C1101  O1138   1.301   .     A
C1101  O1139   1.302   .     A
C1102  O1144   1.301   .     A
C1102  C1104   1.405   .     S
C1102  O1141   1.301   .     A
C1103  O1142   1.301   .     A
C1103  C1105   1.405   .     S
C1103  O1143   1.301   .     A
C1105  C168    1.188   1_556 S
C1106  N1130   1.435   .     S
C1106  C1212   1.396   1_455 S
C1107  N1131   1.435   .     S
C1107  C1146   1.396   .     S
C1108  N1132   1.436   .     S
C1108  C1158   1.396   .     S
Cu1109 N1127   2.048   .     S
Cu1109 Cu1110  2.725   .     S
Cu1109 O1143   1.925   .     S
Cu1109 O1137   1.951   .     S
Cu1109 O1141   1.925   .     S
Cu1109 O1139   1.951   .     S
Cu1110 O1138   1.951   .     S
Cu1110 N1129   2.048   .     S
Cu1110 O1144   1.925   .     S
Cu1110 O1142   1.925   .     S
Cu1110 O1140   1.951   .     S
H1111  N1130   1.046   .     S
H1112  N1134   1.043   .     S
H1113  N1135   1.038   .     S
H1114  N1135   1.043   .     S
H1115  N1136   1.039   .     S
H1116  N1136   1.043   .     S
H1117  N1128   1.039   .     S
H1118  N1128   1.043   .     S
H1119  N1130   1.046   .     S
H1120  N1131   1.046   .     S
H1121  N1131   1.046   .     S
H1122  N1132   1.046   .     S
H1123  N1132   1.045   .     S
H1124  N1133   1.046   .     S
H1125  N1133   1.045   .     S
H1126  N1134   1.038   .     S
C1145  O1192   1.302   .     A
C1145  C1148   1.441   .     S
C1145  O1189   1.301   .     A
C1146  C1148   1.408   .     A
C1146  N1185   1.436   .     S
C1147  C1153   1.441   .     S
C1147  C1160   1.408   .     A
C1147  C1159   1.403   .     A
C1148  C1158   1.403   .     A
C1149  N1186   1.431   .     S
C1149  N1181   1.380   .     A
C1150  N1179   1.380   .     A
C1150  N1187   1.431   .     S
C1150  C1307   1.417   .     S
C1151  N1181   1.380   .     A
C1151  N1188   1.432   .     S
C1152  N1180   1.432   .     S
C1152  N1179   1.380   .     A
C1152  C1305   1.417   .     S
C1153  O1190   1.301   .     A
C1153  O1191   1.302   .     A
C1154  O1196   1.301   .     A
C1154  C1156   1.405   .     S
C1154  O1193   1.301   .     A
C1155  O1194   1.301   .     A
C1155  C1157   1.405   .     S
C1155  O1195   1.301   .     A
C1157  C220    1.188   1_556 S
C1158  N1182   1.435   .     S
C1159  N1183   1.435   .     S
C1159  C1198   1.396   .     S
C1160  N1184   1.436   .     S
C1160  C1210   1.396   .     S
Cu1161 N1179   2.048   .     S
Cu1161 Cu1162  2.725   .     S
Cu1161 O1195   1.925   .     S
Cu1161 O1189   1.951   .     S
Cu1161 O1193   1.925   .     S
Cu1161 O1191   1.951   .     S
Cu1162 O1190   1.951   .     S
Cu1162 N1181   2.048   .     S
Cu1162 O1196   1.925   .     S
Cu1162 O1194   1.925   .     S
Cu1162 O1192   1.951   .     S
H1163  N1182   1.046   .     S
H1164  N1186   1.043   .     S
H1165  N1187   1.038   .     S
H1166  N1187   1.043   .     S
H1167  N1188   1.039   .     S
H1168  N1188   1.043   .     S
H1169  N1180   1.039   .     S
H1170  N1180   1.043   .     S
H1171  N1182   1.046   .     S
H1172  N1183   1.046   .     S
H1173  N1183   1.046   .     S
H1174  N1184   1.046   .     S
H1175  N1184   1.045   .     S
H1176  N1185   1.046   .     S
H1177  N1185   1.045   .     S
H1178  N1186   1.038   .     S
C1197  O1244   1.302   .     A
C1197  C1200   1.441   .     S
C1197  O1241   1.301   .     A
C1198  C1200   1.408   .     A
C1198  N1237   1.436   .     S
C1199  C1205   1.441   .     S
C1199  C1212   1.408   .     A
C1199  C1211   1.403   .     A
C1200  C1210   1.403   .     A
C1201  N1238   1.431   .     S
C1201  N1233   1.380   .     A
C1202  N1231   1.380   .     A
C1202  N1239   1.431   .     S
C1202  C1359   1.417   .     S
C1203  N1233   1.380   .     A
C1203  N1240   1.432   .     S
C1204  N1232   1.432   .     S
C1204  N1231   1.380   .     A
C1204  C1357   1.417   .     S
C1205  O1242   1.301   .     A
C1205  O1243   1.302   .     A
C1206  O1248   1.301   .     A
C1206  C1208   1.405   .     S
C1206  O1245   1.301   .     A
C1207  O1246   1.301   .     A
C1207  C1209   1.405   .     S
C1207  O1247   1.301   .     A
C1209  C272    1.188   1_556 S
C1210  N1234   1.435   .     S
C1211  N1235   1.435   .     S
C1211  C1094   1.396   1_655 S
C1212  N1236   1.436   .     S
C1212  C1106   1.396   1_655 S
Cu1213 N1231   2.048   .     S
Cu1213 Cu1214  2.725   .     S
Cu1213 O1247   1.925   .     S
Cu1213 O1241   1.951   .     S
Cu1213 O1245   1.925   .     S
Cu1213 O1243   1.951   .     S
Cu1214 O1242   1.951   .     S
Cu1214 N1233   2.048   .     S
Cu1214 O1248   1.925   .     S
Cu1214 O1246   1.925   .     S
Cu1214 O1244   1.951   .     S
H1215  N1234   1.046   .     S
H1216  N1238   1.043   .     S
H1217  N1239   1.038   .     S
H1218  N1239   1.043   .     S
H1219  N1240   1.039   .     S
H1220  N1240   1.043   .     S
H1221  N1232   1.039   .     S
H1222  N1232   1.043   .     S
H1223  N1234   1.046   .     S
H1224  N1235   1.046   .     S
H1225  N1235   1.046   .     S
H1226  N1236   1.046   .     S
H1227  N1236   1.045   .     S
H1228  N1237   1.046   .     S
H1229  N1237   1.045   .     S
H1230  N1238   1.038   .     S
C1249  O1296   1.302   .     A
C1249  C1252   1.441   .     S
C1249  O1293   1.301   .     A
C1250  C1252   1.408   .     A
C1250  N1289   1.436   .     S
C1250  C1367   1.396   1_455 S
C1251  C1257   1.441   .     S
C1251  C1264   1.408   .     A
C1251  C1263   1.403   .     A
C1252  C1262   1.403   .     A
C1253  N1290   1.431   .     S
C1253  N1285   1.380   .     A
C1254  N1283   1.380   .     A
C1254  N1291   1.431   .     S
C1254  C943    1.417   1_565 S
C1255  N1285   1.380   .     A
C1255  N1292   1.432   .     S
C1256  N1284   1.432   .     S
C1256  N1283   1.380   .     A
C1256  C941    1.417   1_565 S
C1257  O1294   1.301   .     A
C1257  O1295   1.302   .     A
C1258  O1300   1.301   .     A
C1258  C1260   1.405   .     S
C1258  O1297   1.301   .     A
C1259  O1298   1.301   .     A
C1259  C1261   1.405   .     S
C1259  O1299   1.301   .     A
C1261  C324    1.188   1_556 S
C1262  N1286   1.435   .     S
C1262  C1368   1.396   1_455 S
C1263  N1287   1.435   .     S
C1263  C1302   1.396   .     S
C1264  N1288   1.436   .     S
C1264  C1314   1.396   .     S
Cu1265 N1283   2.048   .     S
Cu1265 Cu1266  2.725   .     S
Cu1265 O1299   1.925   .     S
Cu1265 O1293   1.951   .     S
Cu1265 O1297   1.925   .     S
Cu1265 O1295   1.951   .     S
Cu1266 O1294   1.951   .     S
Cu1266 N1285   2.048   .     S
Cu1266 O1300   1.925   .     S
Cu1266 O1298   1.925   .     S
Cu1266 O1296   1.951   .     S
H1267  N1286   1.046   .     S
H1268  N1290   1.043   .     S
H1269  N1291   1.038   .     S
H1270  N1291   1.043   .     S
H1271  N1292   1.039   .     S
H1272  N1292   1.043   .     S
H1273  N1284   1.039   .     S
H1274  N1284   1.043   .     S
H1275  N1286   1.046   .     S
H1276  N1287   1.046   .     S
H1277  N1287   1.046   .     S
H1278  N1288   1.046   .     S
H1279  N1288   1.045   .     S
H1280  N1289   1.046   .     S
H1281  N1289   1.045   .     S
H1282  N1290   1.038   .     S
C1301  O1348   1.302   .     A
C1301  C1304   1.441   .     S
C1301  O1345   1.301   .     A
C1302  C1304   1.408   .     A
C1302  N1341   1.436   .     S
C1303  C1309   1.441   .     S
C1303  C1316   1.408   .     A
C1303  C1315   1.403   .     A
C1304  C1314   1.403   .     A
C1305  N1342   1.431   .     S
C1305  N1337   1.380   .     A
C1306  N1335   1.380   .     A
C1306  N1343   1.431   .     S
C1306  C995    1.417   1_565 S
C1307  N1337   1.380   .     A
C1307  N1344   1.432   .     S
C1308  N1336   1.432   .     S
C1308  N1335   1.380   .     A
C1308  C993    1.417   1_565 S
C1309  O1346   1.301   .     A
C1309  O1347   1.302   .     A
C1310  O1352   1.301   .     A
C1310  C1312   1.405   .     S
C1310  O1349   1.301   .     A
C1311  O1350   1.301   .     A
C1311  C1313   1.405   .     S
C1311  O1351   1.301   .     A
C1313  C376    1.188   1_556 S
C1314  N1338   1.435   .     S
C1315  N1339   1.435   .     S
C1315  C1354   1.396   .     S
C1316  N1340   1.436   .     S
C1316  C1366   1.396   .     S
Cu1317 N1335   2.048   .     S
Cu1317 Cu1318  2.725   .     S
Cu1317 O1351   1.925   .     S
Cu1317 O1345   1.951   .     S
Cu1317 O1349   1.925   .     S
Cu1317 O1347   1.951   .     S
Cu1318 O1346   1.951   .     S
Cu1318 N1337   2.048   .     S
Cu1318 O1352   1.925   .     S
Cu1318 O1350   1.925   .     S
Cu1318 O1348   1.951   .     S
H1319  N1338   1.046   .     S
H1320  N1342   1.043   .     S
H1321  N1343   1.038   .     S
H1322  N1343   1.043   .     S
H1323  N1344   1.039   .     S
H1324  N1344   1.043   .     S
H1325  N1336   1.039   .     S
H1326  N1336   1.043   .     S
H1327  N1338   1.046   .     S
H1328  N1339   1.046   .     S
H1329  N1339   1.046   .     S
H1330  N1340   1.046   .     S
H1331  N1340   1.045   .     S
H1332  N1341   1.046   .     S
H1333  N1341   1.045   .     S
H1334  N1342   1.038   .     S
C1353  O1400   1.302   .     A
C1353  C1356   1.441   .     S
C1353  O1397   1.301   .     A
C1354  C1356   1.408   .     A
C1354  N1393   1.436   .     S
C1355  C1361   1.441   .     S
C1355  C1368   1.408   .     A
C1355  C1367   1.403   .     A
C1356  C1366   1.403   .     A
C1357  N1394   1.431   .     S
C1357  N1389   1.380   .     A
C1358  N1387   1.380   .     A
C1358  N1395   1.431   .     S
C1358  C1047   1.417   1_565 S
C1359  N1389   1.380   .     A
C1359  N1396   1.432   .     S
C1360  N1388   1.432   .     S
C1360  N1387   1.380   .     A
C1360  C1045   1.417   1_565 S
C1361  O1398   1.301   .     A
C1361  O1399   1.302   .     A
C1362  O1404   1.301   .     A
C1362  C1364   1.405   .     S
C1362  O1401   1.301   .     A
C1363  O1402   1.301   .     A
C1363  C1365   1.405   .     S
C1363  O1403   1.301   .     A
C1365  C428    1.188   1_556 S
C1366  N1390   1.435   .     S
C1367  N1391   1.435   .     S
C1367  C1250   1.396   1_655 S
C1368  N1392   1.436   .     S
C1368  C1262   1.396   1_655 S
Cu1369 N1387   2.048   .     S
Cu1369 Cu1370  2.725   .     S
Cu1369 O1403   1.925   .     S
Cu1369 O1397   1.951   .     S
Cu1369 O1401   1.925   .     S
Cu1369 O1399   1.951   .     S
Cu1370 O1398   1.951   .     S
Cu1370 N1389   2.048   .     S
Cu1370 O1404   1.925   .     S
Cu1370 O1402   1.925   .     S
Cu1370 O1400   1.951   .     S
H1371  N1390   1.046   .     S
H1372  N1394   1.043   .     S
H1373  N1395   1.038   .     S
H1374  N1395   1.043   .     S
H1375  N1396   1.039   .     S
H1376  N1396   1.043   .     S
H1377  N1388   1.039   .     S
H1378  N1388   1.043   .     S
H1379  N1390   1.046   .     S
H1380  N1391   1.046   .     S
H1381  N1391   1.046   .     S
H1382  N1392   1.046   .     S
H1383  N1392   1.045   .     S
H1384  N1393   1.046   .     S
H1385  N1393   1.045   .     S
H1386  N1394   1.038   .     S
