data_str_m2_o1_o10_pcu_sym.185
_audit_creation_date              2020-01-03
_audit_creation_method            'Materials Studio'
_symmetry_space_group_name_H-M    'P1'
_symmetry_Int_Tables_number       1
_symmetry_cell_setting            triclinic
loop_
_symmetry_equiv_pos_as_xyz
  x,y,z
_cell_length_a                    26.4471
_cell_length_b                    32.3885
_cell_length_c                    28.9655
_cell_angle_alpha                 89.2506
_cell_angle_beta                  97.7097
_cell_angle_gamma                 93.5790
loop_
_atom_site_label
_atom_site_type_symbol
_atom_site_fract_x
_atom_site_fract_y
_atom_site_fract_z
_atom_site_U_iso_or_equiv
_atom_site_adp_type
_atom_site_occupancy
O1     O     0.16666   0.10655   0.20625   0.00000  Uiso   1.00
O2     O     0.16667   0.22678   0.12709   0.00000  Uiso   1.00
O3     O     0.16666   0.10654   0.12706   0.00000  Uiso   1.00
O4     O     0.16667   0.22679   0.20628   0.00000  Uiso   1.00
C5     C     0.16654   0.08751   0.16684   0.00000  Uiso   1.00
C6     C     0.16679   0.24582   0.16649   0.00000  Uiso   1.00
O7     O     0.09161   0.16667   0.19712   0.00000  Uiso   1.00
O8     O     0.24172   0.16666   0.13621   0.00000  Uiso   1.00
O9     O     0.09161   0.16666   0.11793   0.00000  Uiso   1.00
O10    O     0.24172   0.16667   0.21540   0.00000  Uiso   1.00
C11    C     0.06825   0.16662   0.15481   0.00000  Uiso   1.00
C12    C     0.26508   0.16671   0.17852   0.00000  Uiso   1.00
Cu13   Cu    0.16667   0.16667   0.21355   0.00000  Uiso   1.00
Cu14   Cu    0.16667   0.16666   0.11978   0.00000  Uiso   1.00
N15    N     0.16668   0.16668   0.28403   0.00000  Uiso   1.00
N16    N     0.16665   0.16666   0.04931   0.00000  Uiso   1.00
C17    C     0.01308   0.16271   0.14870   0.00000  Uiso   1.00
C18    C     0.32025   0.17062   0.18464   0.00000  Uiso   1.00
C19    C     0.19169   0.02320   0.13452   0.00000  Uiso   1.00
C20    C     0.14164   0.31014   0.19882   0.00000  Uiso   1.00
H21    H     0.21172   0.04091   0.10982   0.00000  Uiso   1.00
H22    H     0.12162   0.29242   0.22351   0.00000  Uiso   1.00
C23    C     0.19160   0.31376   0.13425   0.00000  Uiso   1.00
C24    C     0.14173   0.01957   0.19909   0.00000  Uiso   1.00
H25    H     0.21206   0.29905   0.10984   0.00000  Uiso   1.00
H26    H     0.12127   0.03428   0.22349   0.00000  Uiso   1.00
C27    C     0.16652   0.29048   0.16631   0.00000  Uiso   1.00
C28    C     0.16681   0.04285   0.16703   0.00000  Uiso   1.00
C29    C     0.13854   0.13705   0.02209   0.00000  Uiso   1.00
C30    C     0.19479   0.19628   0.31124   0.00000  Uiso   1.00
C31    C     0.13749   0.13739   0.30599   0.00000  Uiso   1.00
C32    C     0.19584   0.19594   0.02734   0.00000  Uiso   1.00
N33    N     0.32153   0.14568   0.10528   0.00000  Uiso   1.00
O34    O     0.32495   0.16576   0.06653   0.00000  Uiso   1.00
O35    O     0.30033   0.10828   0.10403   0.00000  Uiso   1.00
N36    N     0.01181   0.18765   0.22805   0.00000  Uiso   1.00
O37    O     0.00838   0.16758   0.26680   0.00000  Uiso   1.00
O38    O     0.03301   0.22505   0.22930   0.00000  Uiso   1.00
N39    N     0.11069   0.10445   0.04345   0.00000  Uiso   1.00
O40    O     0.12714   0.06736   0.04491   0.00000  Uiso   1.00
O41    O     0.06348   0.10893   0.04917   0.00000  Uiso   1.00
N42    N     0.22264   0.22888   0.28988   0.00000  Uiso   1.00
O43    O     0.20619   0.26597   0.28843   0.00000  Uiso   1.00
O44    O     0.26985   0.22441   0.28416   0.00000  Uiso   1.00
C45    C     0.10283   0.10436   0.27967   0.00000  Uiso   1.00
H46    H     0.09531   0.10885   0.24213   0.00000  Uiso   1.00
H47    H     0.11925   0.07395   0.28700   0.00000  Uiso   1.00
H48    H     0.06452   0.10316   0.29140   0.00000  Uiso   1.00
C49    C     0.23050   0.22897   0.05366   0.00000  Uiso   1.00
H50    H     0.23803   0.22448   0.09121   0.00000  Uiso   1.00
H51    H     0.26881   0.23017   0.04193   0.00000  Uiso   1.00
H52    H     0.21408   0.25938   0.04633   0.00000  Uiso   1.00
O53    O     0.50000   0.10655   0.20625   0.00000  Uiso   1.00
O54    O     0.50000   0.22678   0.12709   0.00000  Uiso   1.00
O55    O     0.50000   0.10654   0.12706   0.00000  Uiso   1.00
O56    O     0.50000   0.22679   0.20628   0.00000  Uiso   1.00
C57    C     0.49988   0.08751   0.16684   0.00000  Uiso   1.00
C58    C     0.50012   0.24582   0.16649   0.00000  Uiso   1.00
O59    O     0.42495   0.16667   0.19712   0.00000  Uiso   1.00
O60    O     0.57505   0.16666   0.13621   0.00000  Uiso   1.00
O61    O     0.42494   0.16666   0.11793   0.00000  Uiso   1.00
O62    O     0.57506   0.16667   0.21540   0.00000  Uiso   1.00
C63    C     0.40158   0.16662   0.15481   0.00000  Uiso   1.00
C64    C     0.59842   0.16671   0.17852   0.00000  Uiso   1.00
Cu65   Cu    0.50000   0.16667   0.21355   0.00000  Uiso   1.00
Cu66   Cu    0.50000   0.16666   0.11978   0.00000  Uiso   1.00
N67    N     0.50001   0.16668   0.28403   0.00000  Uiso   1.00
N68    N     0.49999   0.16666   0.04931   0.00000  Uiso   1.00
C69    C     0.34641   0.16271   0.14870   0.00000  Uiso   1.00
C70    C     0.65359   0.17062   0.18464   0.00000  Uiso   1.00
C71    C     0.52502   0.02320   0.13452   0.00000  Uiso   1.00
C72    C     0.47498   0.31014   0.19882   0.00000  Uiso   1.00
H73    H     0.54505   0.04091   0.10982   0.00000  Uiso   1.00
H74    H     0.45495   0.29242   0.22351   0.00000  Uiso   1.00
C75    C     0.52493   0.31376   0.13425   0.00000  Uiso   1.00
C76    C     0.47507   0.01957   0.19909   0.00000  Uiso   1.00
H77    H     0.54540   0.29905   0.10984   0.00000  Uiso   1.00
H78    H     0.45460   0.03428   0.22349   0.00000  Uiso   1.00
C79    C     0.49985   0.29048   0.16631   0.00000  Uiso   1.00
C80    C     0.50015   0.04285   0.16703   0.00000  Uiso   1.00
C81    C     0.47187   0.13705   0.02209   0.00000  Uiso   1.00
C82    C     0.52813   0.19628   0.31124   0.00000  Uiso   1.00
C83    C     0.47083   0.13739   0.30599   0.00000  Uiso   1.00
C84    C     0.52917   0.19594   0.02734   0.00000  Uiso   1.00
N85    N     0.65486   0.14568   0.10528   0.00000  Uiso   1.00
O86    O     0.65828   0.16576   0.06653   0.00000  Uiso   1.00
O87    O     0.63366   0.10828   0.10403   0.00000  Uiso   1.00
N88    N     0.34514   0.18765   0.22805   0.00000  Uiso   1.00
O89    O     0.34172   0.16758   0.26680   0.00000  Uiso   1.00
O90    O     0.36634   0.22505   0.22930   0.00000  Uiso   1.00
N91    N     0.44403   0.10445   0.04345   0.00000  Uiso   1.00
O92    O     0.46048   0.06736   0.04491   0.00000  Uiso   1.00
O93    O     0.39681   0.10893   0.04917   0.00000  Uiso   1.00
N94    N     0.55597   0.22888   0.28988   0.00000  Uiso   1.00
O95    O     0.53952   0.26597   0.28843   0.00000  Uiso   1.00
O96    O     0.60318   0.22441   0.28416   0.00000  Uiso   1.00
C97    C     0.43616   0.10436   0.27967   0.00000  Uiso   1.00
H98    H     0.42864   0.10885   0.24213   0.00000  Uiso   1.00
H99    H     0.45259   0.07395   0.28700   0.00000  Uiso   1.00
H100   H     0.39785   0.10316   0.29140   0.00000  Uiso   1.00
C101   C     0.56384   0.22897   0.05366   0.00000  Uiso   1.00
H102   H     0.57136   0.22448   0.09121   0.00000  Uiso   1.00
H103   H     0.60214   0.23017   0.04193   0.00000  Uiso   1.00
H104   H     0.54741   0.25938   0.04633   0.00000  Uiso   1.00
O105   O     0.83333   0.10655   0.20625   0.00000  Uiso   1.00
O106   O     0.83334   0.22678   0.12709   0.00000  Uiso   1.00
O107   O     0.83333   0.10654   0.12706   0.00000  Uiso   1.00
O108   O     0.83334   0.22679   0.20628   0.00000  Uiso   1.00
C109   C     0.83321   0.08751   0.16684   0.00000  Uiso   1.00
C110   C     0.83346   0.24582   0.16649   0.00000  Uiso   1.00
O111   O     0.75828   0.16667   0.19712   0.00000  Uiso   1.00
O112   O     0.90839   0.16666   0.13621   0.00000  Uiso   1.00
O113   O     0.75828   0.16666   0.11793   0.00000  Uiso   1.00
O114   O     0.90839   0.16667   0.21540   0.00000  Uiso   1.00
C115   C     0.73492   0.16662   0.15481   0.00000  Uiso   1.00
C116   C     0.93175   0.16671   0.17852   0.00000  Uiso   1.00
Cu117  Cu    0.83333   0.16667   0.21355   0.00000  Uiso   1.00
Cu118  Cu    0.83333   0.16666   0.11978   0.00000  Uiso   1.00
N119   N     0.83335   0.16668   0.28403   0.00000  Uiso   1.00
N120   N     0.83332   0.16666   0.04931   0.00000  Uiso   1.00
C121   C     0.67975   0.16271   0.14870   0.00000  Uiso   1.00
C122   C     0.98692   0.17062   0.18464   0.00000  Uiso   1.00
C123   C     0.85835   0.02320   0.13452   0.00000  Uiso   1.00
C124   C     0.80831   0.31014   0.19882   0.00000  Uiso   1.00
H125   H     0.87838   0.04091   0.10982   0.00000  Uiso   1.00
H126   H     0.78828   0.29242   0.22351   0.00000  Uiso   1.00
C127   C     0.85827   0.31376   0.13425   0.00000  Uiso   1.00
C128   C     0.80840   0.01957   0.19909   0.00000  Uiso   1.00
H129   H     0.87873   0.29905   0.10984   0.00000  Uiso   1.00
H130   H     0.78793   0.03428   0.22349   0.00000  Uiso   1.00
C131   C     0.83319   0.29048   0.16631   0.00000  Uiso   1.00
C132   C     0.83348   0.04285   0.16703   0.00000  Uiso   1.00
C133   C     0.80521   0.13705   0.02209   0.00000  Uiso   1.00
C134   C     0.86146   0.19628   0.31124   0.00000  Uiso   1.00
C135   C     0.80416   0.13739   0.30599   0.00000  Uiso   1.00
C136   C     0.86251   0.19594   0.02734   0.00000  Uiso   1.00
N137   N     0.98819   0.14568   0.10528   0.00000  Uiso   1.00
O138   O     0.99161   0.16576   0.06653   0.00000  Uiso   1.00
O139   O     0.96699   0.10828   0.10403   0.00000  Uiso   1.00
N140   N     0.67847   0.18765   0.22805   0.00000  Uiso   1.00
O141   O     0.67505   0.16758   0.26680   0.00000  Uiso   1.00
O142   O     0.69967   0.22505   0.22930   0.00000  Uiso   1.00
N143   N     0.77736   0.10445   0.04345   0.00000  Uiso   1.00
O144   O     0.79381   0.06736   0.04491   0.00000  Uiso   1.00
O145   O     0.73015   0.10893   0.04917   0.00000  Uiso   1.00
N146   N     0.88930   0.22888   0.28988   0.00000  Uiso   1.00
O147   O     0.87285   0.26597   0.28843   0.00000  Uiso   1.00
O148   O     0.93651   0.22441   0.28416   0.00000  Uiso   1.00
C149   C     0.76950   0.10436   0.27967   0.00000  Uiso   1.00
H150   H     0.76197   0.10885   0.24213   0.00000  Uiso   1.00
H151   H     0.78592   0.07395   0.28700   0.00000  Uiso   1.00
H152   H     0.73119   0.10316   0.29140   0.00000  Uiso   1.00
C153   C     0.89717   0.22897   0.05366   0.00000  Uiso   1.00
H154   H     0.90469   0.22448   0.09121   0.00000  Uiso   1.00
H155   H     0.93548   0.23017   0.04193   0.00000  Uiso   1.00
H156   H     0.88074   0.25938   0.04633   0.00000  Uiso   1.00
O157   O     0.16666   0.43989   0.20625   0.00000  Uiso   1.00
O158   O     0.16667   0.56011   0.12709   0.00000  Uiso   1.00
O159   O     0.16666   0.43988   0.12706   0.00000  Uiso   1.00
O160   O     0.16667   0.56012   0.20628   0.00000  Uiso   1.00
C161   C     0.16654   0.42085   0.16684   0.00000  Uiso   1.00
C162   C     0.16679   0.57915   0.16649   0.00000  Uiso   1.00
O163   O     0.09161   0.50000   0.19712   0.00000  Uiso   1.00
O164   O     0.24172   0.50000   0.13621   0.00000  Uiso   1.00
O165   O     0.09161   0.49999   0.11793   0.00000  Uiso   1.00
O166   O     0.24172   0.50001   0.21540   0.00000  Uiso   1.00
C167   C     0.06825   0.49995   0.15481   0.00000  Uiso   1.00
C168   C     0.26508   0.50005   0.17852   0.00000  Uiso   1.00
Cu169  Cu    0.16667   0.50001   0.21355   0.00000  Uiso   1.00
Cu170  Cu    0.16667   0.49999   0.11978   0.00000  Uiso   1.00
N171   N     0.16668   0.50001   0.28403   0.00000  Uiso   1.00
N172   N     0.16665   0.49999   0.04931   0.00000  Uiso   1.00
C173   C     0.01308   0.49604   0.14870   0.00000  Uiso   1.00
C174   C     0.32025   0.50396   0.18464   0.00000  Uiso   1.00
C175   C     0.19169   0.35653   0.13452   0.00000  Uiso   1.00
C176   C     0.14164   0.64347   0.19882   0.00000  Uiso   1.00
H177   H     0.21172   0.37425   0.10982   0.00000  Uiso   1.00
H178   H     0.12162   0.62576   0.22351   0.00000  Uiso   1.00
C179   C     0.19160   0.64709   0.13425   0.00000  Uiso   1.00
C180   C     0.14173   0.35291   0.19909   0.00000  Uiso   1.00
H181   H     0.21206   0.63239   0.10984   0.00000  Uiso   1.00
H182   H     0.12127   0.36761   0.22349   0.00000  Uiso   1.00
C183   C     0.16652   0.62381   0.16631   0.00000  Uiso   1.00
C184   C     0.16681   0.37619   0.16703   0.00000  Uiso   1.00
C185   C     0.13854   0.47038   0.02209   0.00000  Uiso   1.00
C186   C     0.19479   0.52962   0.31124   0.00000  Uiso   1.00
C187   C     0.13749   0.47073   0.30599   0.00000  Uiso   1.00
C188   C     0.19584   0.52928   0.02734   0.00000  Uiso   1.00
N189   N     0.32153   0.47902   0.10528   0.00000  Uiso   1.00
O190   O     0.32495   0.49909   0.06653   0.00000  Uiso   1.00
O191   O     0.30033   0.44161   0.10403   0.00000  Uiso   1.00
N192   N     0.01181   0.52099   0.22805   0.00000  Uiso   1.00
O193   O     0.00838   0.50091   0.26680   0.00000  Uiso   1.00
O194   O     0.03301   0.55839   0.22930   0.00000  Uiso   1.00
N195   N     0.11069   0.43778   0.04345   0.00000  Uiso   1.00
O196   O     0.12714   0.40070   0.04491   0.00000  Uiso   1.00
O197   O     0.06348   0.44226   0.04917   0.00000  Uiso   1.00
N198   N     0.22264   0.56222   0.28988   0.00000  Uiso   1.00
O199   O     0.20619   0.59931   0.28843   0.00000  Uiso   1.00
O200   O     0.26985   0.55774   0.28416   0.00000  Uiso   1.00
C201   C     0.10283   0.43770   0.27967   0.00000  Uiso   1.00
H202   H     0.09531   0.44219   0.24213   0.00000  Uiso   1.00
H203   H     0.11925   0.40728   0.28700   0.00000  Uiso   1.00
H204   H     0.06452   0.43650   0.29140   0.00000  Uiso   1.00
C205   C     0.23050   0.56230   0.05366   0.00000  Uiso   1.00
H206   H     0.23803   0.55781   0.09121   0.00000  Uiso   1.00
H207   H     0.26881   0.56350   0.04193   0.00000  Uiso   1.00
H208   H     0.21408   0.59272   0.04633   0.00000  Uiso   1.00
O209   O     0.50000   0.43989   0.20625   0.00000  Uiso   1.00
O210   O     0.50000   0.56011   0.12709   0.00000  Uiso   1.00
O211   O     0.50000   0.43988   0.12706   0.00000  Uiso   1.00
O212   O     0.50000   0.56012   0.20628   0.00000  Uiso   1.00
C213   C     0.49988   0.42085   0.16684   0.00000  Uiso   1.00
C214   C     0.50012   0.57915   0.16649   0.00000  Uiso   1.00
O215   O     0.42495   0.50000   0.19712   0.00000  Uiso   1.00
O216   O     0.57505   0.50000   0.13621   0.00000  Uiso   1.00
O217   O     0.42494   0.49999   0.11793   0.00000  Uiso   1.00
O218   O     0.57506   0.50001   0.21540   0.00000  Uiso   1.00
C219   C     0.40158   0.49995   0.15481   0.00000  Uiso   1.00
C220   C     0.59842   0.50005   0.17852   0.00000  Uiso   1.00
Cu221  Cu    0.50000   0.50001   0.21355   0.00000  Uiso   1.00
Cu222  Cu    0.50000   0.49999   0.11978   0.00000  Uiso   1.00
N223   N     0.50001   0.50001   0.28403   0.00000  Uiso   1.00
N224   N     0.49999   0.49999   0.04931   0.00000  Uiso   1.00
C225   C     0.34641   0.49604   0.14870   0.00000  Uiso   1.00
C226   C     0.65359   0.50396   0.18464   0.00000  Uiso   1.00
C227   C     0.52502   0.35653   0.13452   0.00000  Uiso   1.00
C228   C     0.47498   0.64347   0.19882   0.00000  Uiso   1.00
H229   H     0.54505   0.37425   0.10982   0.00000  Uiso   1.00
H230   H     0.45495   0.62576   0.22351   0.00000  Uiso   1.00
C231   C     0.52493   0.64709   0.13425   0.00000  Uiso   1.00
C232   C     0.47507   0.35291   0.19909   0.00000  Uiso   1.00
H233   H     0.54540   0.63239   0.10984   0.00000  Uiso   1.00
H234   H     0.45460   0.36761   0.22349   0.00000  Uiso   1.00
C235   C     0.49985   0.62381   0.16631   0.00000  Uiso   1.00
C236   C     0.50015   0.37619   0.16703   0.00000  Uiso   1.00
C237   C     0.47187   0.47038   0.02209   0.00000  Uiso   1.00
C238   C     0.52813   0.52962   0.31124   0.00000  Uiso   1.00
C239   C     0.47083   0.47073   0.30599   0.00000  Uiso   1.00
C240   C     0.52917   0.52928   0.02734   0.00000  Uiso   1.00
N241   N     0.65486   0.47902   0.10528   0.00000  Uiso   1.00
O242   O     0.65828   0.49909   0.06653   0.00000  Uiso   1.00
O243   O     0.63366   0.44161   0.10403   0.00000  Uiso   1.00
N244   N     0.34514   0.52099   0.22805   0.00000  Uiso   1.00
O245   O     0.34172   0.50091   0.26680   0.00000  Uiso   1.00
O246   O     0.36634   0.55839   0.22930   0.00000  Uiso   1.00
N247   N     0.44403   0.43778   0.04345   0.00000  Uiso   1.00
O248   O     0.46048   0.40070   0.04491   0.00000  Uiso   1.00
O249   O     0.39681   0.44226   0.04917   0.00000  Uiso   1.00
N250   N     0.55597   0.56222   0.28988   0.00000  Uiso   1.00
O251   O     0.53952   0.59931   0.28843   0.00000  Uiso   1.00
O252   O     0.60318   0.55774   0.28416   0.00000  Uiso   1.00
C253   C     0.43616   0.43770   0.27967   0.00000  Uiso   1.00
H254   H     0.42864   0.44219   0.24213   0.00000  Uiso   1.00
H255   H     0.45259   0.40728   0.28700   0.00000  Uiso   1.00
H256   H     0.39785   0.43650   0.29140   0.00000  Uiso   1.00
C257   C     0.56384   0.56230   0.05366   0.00000  Uiso   1.00
H258   H     0.57136   0.55781   0.09121   0.00000  Uiso   1.00
H259   H     0.60214   0.56350   0.04193   0.00000  Uiso   1.00
H260   H     0.54741   0.59272   0.04633   0.00000  Uiso   1.00
O261   O     0.83333   0.43989   0.20625   0.00000  Uiso   1.00
O262   O     0.83334   0.56011   0.12709   0.00000  Uiso   1.00
O263   O     0.83333   0.43988   0.12706   0.00000  Uiso   1.00
O264   O     0.83334   0.56012   0.20628   0.00000  Uiso   1.00
C265   C     0.83321   0.42085   0.16684   0.00000  Uiso   1.00
C266   C     0.83346   0.57915   0.16649   0.00000  Uiso   1.00
O267   O     0.75828   0.50000   0.19712   0.00000  Uiso   1.00
O268   O     0.90839   0.50000   0.13621   0.00000  Uiso   1.00
O269   O     0.75828   0.49999   0.11793   0.00000  Uiso   1.00
O270   O     0.90839   0.50001   0.21540   0.00000  Uiso   1.00
C271   C     0.73492   0.49995   0.15481   0.00000  Uiso   1.00
C272   C     0.93175   0.50005   0.17852   0.00000  Uiso   1.00
Cu273  Cu    0.83333   0.50001   0.21355   0.00000  Uiso   1.00
Cu274  Cu    0.83333   0.49999   0.11978   0.00000  Uiso   1.00
N275   N     0.83335   0.50001   0.28403   0.00000  Uiso   1.00
N276   N     0.83332   0.49999   0.04931   0.00000  Uiso   1.00
C277   C     0.67975   0.49604   0.14870   0.00000  Uiso   1.00
C278   C     0.98692   0.50396   0.18464   0.00000  Uiso   1.00
C279   C     0.85835   0.35653   0.13452   0.00000  Uiso   1.00
C280   C     0.80831   0.64347   0.19882   0.00000  Uiso   1.00
H281   H     0.87838   0.37425   0.10982   0.00000  Uiso   1.00
H282   H     0.78828   0.62576   0.22351   0.00000  Uiso   1.00
C283   C     0.85827   0.64709   0.13425   0.00000  Uiso   1.00
C284   C     0.80840   0.35291   0.19909   0.00000  Uiso   1.00
H285   H     0.87873   0.63239   0.10984   0.00000  Uiso   1.00
H286   H     0.78793   0.36761   0.22349   0.00000  Uiso   1.00
C287   C     0.83319   0.62381   0.16631   0.00000  Uiso   1.00
C288   C     0.83348   0.37619   0.16703   0.00000  Uiso   1.00
C289   C     0.80521   0.47038   0.02209   0.00000  Uiso   1.00
C290   C     0.86146   0.52962   0.31124   0.00000  Uiso   1.00
C291   C     0.80416   0.47073   0.30599   0.00000  Uiso   1.00
C292   C     0.86251   0.52928   0.02734   0.00000  Uiso   1.00
N293   N     0.98819   0.47902   0.10528   0.00000  Uiso   1.00
O294   O     0.99161   0.49909   0.06653   0.00000  Uiso   1.00
O295   O     0.96699   0.44161   0.10403   0.00000  Uiso   1.00
N296   N     0.67847   0.52099   0.22805   0.00000  Uiso   1.00
O297   O     0.67505   0.50091   0.26680   0.00000  Uiso   1.00
O298   O     0.69967   0.55839   0.22930   0.00000  Uiso   1.00
N299   N     0.77736   0.43778   0.04345   0.00000  Uiso   1.00
O300   O     0.79381   0.40070   0.04491   0.00000  Uiso   1.00
O301   O     0.73015   0.44226   0.04917   0.00000  Uiso   1.00
N302   N     0.88930   0.56222   0.28988   0.00000  Uiso   1.00
O303   O     0.87285   0.59931   0.28843   0.00000  Uiso   1.00
O304   O     0.93651   0.55774   0.28416   0.00000  Uiso   1.00
C305   C     0.76950   0.43770   0.27967   0.00000  Uiso   1.00
H306   H     0.76197   0.44219   0.24213   0.00000  Uiso   1.00
H307   H     0.78592   0.40728   0.28700   0.00000  Uiso   1.00
H308   H     0.73119   0.43650   0.29140   0.00000  Uiso   1.00
C309   C     0.89717   0.56230   0.05366   0.00000  Uiso   1.00
H310   H     0.90469   0.55781   0.09121   0.00000  Uiso   1.00
H311   H     0.93548   0.56350   0.04193   0.00000  Uiso   1.00
H312   H     0.88074   0.59272   0.04633   0.00000  Uiso   1.00
O313   O     0.16666   0.77322   0.20625   0.00000  Uiso   1.00
O314   O     0.16667   0.89345   0.12709   0.00000  Uiso   1.00
O315   O     0.16666   0.77321   0.12706   0.00000  Uiso   1.00
O316   O     0.16667   0.89346   0.20628   0.00000  Uiso   1.00
C317   C     0.16654   0.75418   0.16684   0.00000  Uiso   1.00
C318   C     0.16679   0.91249   0.16649   0.00000  Uiso   1.00
O319   O     0.09161   0.83334   0.19712   0.00000  Uiso   1.00
O320   O     0.24172   0.83333   0.13621   0.00000  Uiso   1.00
O321   O     0.09161   0.83333   0.11793   0.00000  Uiso   1.00
O322   O     0.24172   0.83334   0.21540   0.00000  Uiso   1.00
C323   C     0.06825   0.83329   0.15481   0.00000  Uiso   1.00
C324   C     0.26508   0.83338   0.17852   0.00000  Uiso   1.00
Cu325  Cu    0.16667   0.83334   0.21355   0.00000  Uiso   1.00
Cu326  Cu    0.16667   0.83333   0.11978   0.00000  Uiso   1.00
N327   N     0.16668   0.83334   0.28403   0.00000  Uiso   1.00
N328   N     0.16665   0.83332   0.04931   0.00000  Uiso   1.00
C329   C     0.01308   0.82938   0.14870   0.00000  Uiso   1.00
C330   C     0.32025   0.83729   0.18464   0.00000  Uiso   1.00
C331   C     0.19169   0.68986   0.13452   0.00000  Uiso   1.00
C332   C     0.14164   0.97680   0.19882   0.00000  Uiso   1.00
H333   H     0.21172   0.70758   0.10982   0.00000  Uiso   1.00
H334   H     0.12162   0.95909   0.22351   0.00000  Uiso   1.00
C335   C     0.19160   0.98043   0.13425   0.00000  Uiso   1.00
C336   C     0.14173   0.68624   0.19909   0.00000  Uiso   1.00
H337   H     0.21206   0.96572   0.10984   0.00000  Uiso   1.00
H338   H     0.12127   0.70095   0.22349   0.00000  Uiso   1.00
C339   C     0.16652   0.95715   0.16631   0.00000  Uiso   1.00
C340   C     0.16681   0.70952   0.16703   0.00000  Uiso   1.00
C341   C     0.13854   0.80372   0.02209   0.00000  Uiso   1.00
C342   C     0.19479   0.86295   0.31124   0.00000  Uiso   1.00
C343   C     0.13749   0.80406   0.30599   0.00000  Uiso   1.00
C344   C     0.19584   0.86261   0.02734   0.00000  Uiso   1.00
N345   N     0.32153   0.81235   0.10528   0.00000  Uiso   1.00
O346   O     0.32495   0.83242   0.06653   0.00000  Uiso   1.00
O347   O     0.30033   0.77495   0.10403   0.00000  Uiso   1.00
N348   N     0.01181   0.85432   0.22805   0.00000  Uiso   1.00
O349   O     0.00838   0.83425   0.26680   0.00000  Uiso   1.00
O350   O     0.03301   0.89172   0.22930   0.00000  Uiso   1.00
N351   N     0.11069   0.77112   0.04345   0.00000  Uiso   1.00
O352   O     0.12714   0.73403   0.04491   0.00000  Uiso   1.00
O353   O     0.06348   0.77559   0.04917   0.00000  Uiso   1.00
N354   N     0.22264   0.89555   0.28988   0.00000  Uiso   1.00
O355   O     0.20619   0.93264   0.28843   0.00000  Uiso   1.00
O356   O     0.26985   0.89107   0.28416   0.00000  Uiso   1.00
C357   C     0.10283   0.77103   0.27967   0.00000  Uiso   1.00
H358   H     0.09531   0.77552   0.24213   0.00000  Uiso   1.00
H359   H     0.11925   0.74062   0.28700   0.00000  Uiso   1.00
H360   H     0.06452   0.76983   0.29140   0.00000  Uiso   1.00
C361   C     0.23050   0.89564   0.05366   0.00000  Uiso   1.00
H362   H     0.23803   0.89115   0.09121   0.00000  Uiso   1.00
H363   H     0.26881   0.89684   0.04193   0.00000  Uiso   1.00
H364   H     0.21408   0.92605   0.04633   0.00000  Uiso   1.00
O365   O     0.50000   0.77322   0.20625   0.00000  Uiso   1.00
O366   O     0.50000   0.89345   0.12709   0.00000  Uiso   1.00
O367   O     0.50000   0.77321   0.12706   0.00000  Uiso   1.00
O368   O     0.50000   0.89346   0.20628   0.00000  Uiso   1.00
C369   C     0.49988   0.75418   0.16684   0.00000  Uiso   1.00
C370   C     0.50012   0.91249   0.16649   0.00000  Uiso   1.00
O371   O     0.42495   0.83334   0.19712   0.00000  Uiso   1.00
O372   O     0.57505   0.83333   0.13621   0.00000  Uiso   1.00
O373   O     0.42494   0.83333   0.11793   0.00000  Uiso   1.00
O374   O     0.57506   0.83334   0.21540   0.00000  Uiso   1.00
C375   C     0.40158   0.83329   0.15481   0.00000  Uiso   1.00
C376   C     0.59842   0.83338   0.17852   0.00000  Uiso   1.00
Cu377  Cu    0.50000   0.83334   0.21355   0.00000  Uiso   1.00
Cu378  Cu    0.50000   0.83333   0.11978   0.00000  Uiso   1.00
N379   N     0.50001   0.83334   0.28403   0.00000  Uiso   1.00
N380   N     0.49999   0.83332   0.04931   0.00000  Uiso   1.00
C381   C     0.34641   0.82938   0.14870   0.00000  Uiso   1.00
C382   C     0.65359   0.83729   0.18464   0.00000  Uiso   1.00
C383   C     0.52502   0.68986   0.13452   0.00000  Uiso   1.00
C384   C     0.47498   0.97680   0.19882   0.00000  Uiso   1.00
H385   H     0.54505   0.70758   0.10982   0.00000  Uiso   1.00
H386   H     0.45495   0.95909   0.22351   0.00000  Uiso   1.00
C387   C     0.52493   0.98043   0.13425   0.00000  Uiso   1.00
C388   C     0.47507   0.68624   0.19909   0.00000  Uiso   1.00
H389   H     0.54540   0.96572   0.10984   0.00000  Uiso   1.00
H390   H     0.45460   0.70095   0.22349   0.00000  Uiso   1.00
C391   C     0.49985   0.95715   0.16631   0.00000  Uiso   1.00
C392   C     0.50015   0.70952   0.16703   0.00000  Uiso   1.00
C393   C     0.47187   0.80372   0.02209   0.00000  Uiso   1.00
C394   C     0.52813   0.86295   0.31124   0.00000  Uiso   1.00
C395   C     0.47083   0.80406   0.30599   0.00000  Uiso   1.00
C396   C     0.52917   0.86261   0.02734   0.00000  Uiso   1.00
N397   N     0.65486   0.81235   0.10528   0.00000  Uiso   1.00
O398   O     0.65828   0.83242   0.06653   0.00000  Uiso   1.00
O399   O     0.63366   0.77495   0.10403   0.00000  Uiso   1.00
N400   N     0.34514   0.85432   0.22805   0.00000  Uiso   1.00
O401   O     0.34172   0.83425   0.26680   0.00000  Uiso   1.00
O402   O     0.36634   0.89172   0.22930   0.00000  Uiso   1.00
N403   N     0.44403   0.77112   0.04345   0.00000  Uiso   1.00
O404   O     0.46048   0.73403   0.04491   0.00000  Uiso   1.00
O405   O     0.39681   0.77559   0.04917   0.00000  Uiso   1.00
N406   N     0.55597   0.89555   0.28988   0.00000  Uiso   1.00
O407   O     0.53952   0.93264   0.28843   0.00000  Uiso   1.00
O408   O     0.60318   0.89107   0.28416   0.00000  Uiso   1.00
C409   C     0.43616   0.77103   0.27967   0.00000  Uiso   1.00
H410   H     0.42864   0.77552   0.24213   0.00000  Uiso   1.00
H411   H     0.45259   0.74062   0.28700   0.00000  Uiso   1.00
H412   H     0.39785   0.76983   0.29140   0.00000  Uiso   1.00
C413   C     0.56384   0.89564   0.05366   0.00000  Uiso   1.00
H414   H     0.57136   0.89115   0.09121   0.00000  Uiso   1.00
H415   H     0.60214   0.89684   0.04193   0.00000  Uiso   1.00
H416   H     0.54741   0.92605   0.04633   0.00000  Uiso   1.00
O417   O     0.83333   0.77322   0.20625   0.00000  Uiso   1.00
O418   O     0.83334   0.89345   0.12709   0.00000  Uiso   1.00
O419   O     0.83333   0.77321   0.12706   0.00000  Uiso   1.00
O420   O     0.83334   0.89346   0.20628   0.00000  Uiso   1.00
C421   C     0.83321   0.75418   0.16684   0.00000  Uiso   1.00
C422   C     0.83346   0.91249   0.16649   0.00000  Uiso   1.00
O423   O     0.75828   0.83334   0.19712   0.00000  Uiso   1.00
O424   O     0.90839   0.83333   0.13621   0.00000  Uiso   1.00
O425   O     0.75828   0.83333   0.11793   0.00000  Uiso   1.00
O426   O     0.90839   0.83334   0.21540   0.00000  Uiso   1.00
C427   C     0.73492   0.83329   0.15481   0.00000  Uiso   1.00
C428   C     0.93175   0.83338   0.17852   0.00000  Uiso   1.00
Cu429  Cu    0.83333   0.83334   0.21355   0.00000  Uiso   1.00
Cu430  Cu    0.83333   0.83333   0.11978   0.00000  Uiso   1.00
N431   N     0.83335   0.83334   0.28403   0.00000  Uiso   1.00
N432   N     0.83332   0.83332   0.04931   0.00000  Uiso   1.00
C433   C     0.67975   0.82938   0.14870   0.00000  Uiso   1.00
C434   C     0.98692   0.83729   0.18464   0.00000  Uiso   1.00
C435   C     0.85835   0.68986   0.13452   0.00000  Uiso   1.00
C436   C     0.80831   0.97680   0.19882   0.00000  Uiso   1.00
H437   H     0.87838   0.70758   0.10982   0.00000  Uiso   1.00
H438   H     0.78828   0.95909   0.22351   0.00000  Uiso   1.00
C439   C     0.85827   0.98043   0.13425   0.00000  Uiso   1.00
C440   C     0.80840   0.68624   0.19909   0.00000  Uiso   1.00
H441   H     0.87873   0.96572   0.10984   0.00000  Uiso   1.00
H442   H     0.78793   0.70095   0.22349   0.00000  Uiso   1.00
C443   C     0.83319   0.95715   0.16631   0.00000  Uiso   1.00
C444   C     0.83348   0.70952   0.16703   0.00000  Uiso   1.00
C445   C     0.80521   0.80372   0.02209   0.00000  Uiso   1.00
C446   C     0.86146   0.86295   0.31124   0.00000  Uiso   1.00
C447   C     0.80416   0.80406   0.30599   0.00000  Uiso   1.00
C448   C     0.86251   0.86261   0.02734   0.00000  Uiso   1.00
N449   N     0.98819   0.81235   0.10528   0.00000  Uiso   1.00
O450   O     0.99161   0.83242   0.06653   0.00000  Uiso   1.00
O451   O     0.96699   0.77495   0.10403   0.00000  Uiso   1.00
N452   N     0.67847   0.85432   0.22805   0.00000  Uiso   1.00
O453   O     0.67505   0.83425   0.26680   0.00000  Uiso   1.00
O454   O     0.69967   0.89172   0.22930   0.00000  Uiso   1.00
N455   N     0.77736   0.77112   0.04345   0.00000  Uiso   1.00
O456   O     0.79381   0.73403   0.04491   0.00000  Uiso   1.00
O457   O     0.73015   0.77559   0.04917   0.00000  Uiso   1.00
N458   N     0.88930   0.89555   0.28988   0.00000  Uiso   1.00
O459   O     0.87285   0.93264   0.28843   0.00000  Uiso   1.00
O460   O     0.93651   0.89107   0.28416   0.00000  Uiso   1.00
C461   C     0.76950   0.77103   0.27967   0.00000  Uiso   1.00
H462   H     0.76197   0.77552   0.24213   0.00000  Uiso   1.00
H463   H     0.78592   0.74062   0.28700   0.00000  Uiso   1.00
H464   H     0.73119   0.76983   0.29140   0.00000  Uiso   1.00
C465   C     0.89717   0.89564   0.05366   0.00000  Uiso   1.00
H466   H     0.90469   0.89115   0.09121   0.00000  Uiso   1.00
H467   H     0.93548   0.89684   0.04193   0.00000  Uiso   1.00
H468   H     0.88074   0.92605   0.04633   0.00000  Uiso   1.00
O469   O     0.16666   0.10655   0.53958   0.00000  Uiso   1.00
O470   O     0.16667   0.22678   0.46042   0.00000  Uiso   1.00
O471   O     0.16666   0.10654   0.46039   0.00000  Uiso   1.00
O472   O     0.16667   0.22679   0.53961   0.00000  Uiso   1.00
C473   C     0.16654   0.08751   0.50017   0.00000  Uiso   1.00
C474   C     0.16679   0.24582   0.49983   0.00000  Uiso   1.00
O475   O     0.09161   0.16667   0.53046   0.00000  Uiso   1.00
O476   O     0.24172   0.16666   0.46954   0.00000  Uiso   1.00
O477   O     0.09161   0.16666   0.45127   0.00000  Uiso   1.00
O478   O     0.24172   0.16667   0.54873   0.00000  Uiso   1.00
C479   C     0.06825   0.16662   0.48814   0.00000  Uiso   1.00
C480   C     0.26508   0.16671   0.51186   0.00000  Uiso   1.00
Cu481  Cu    0.16667   0.16667   0.54689   0.00000  Uiso   1.00
Cu482  Cu    0.16667   0.16666   0.45311   0.00000  Uiso   1.00
N483   N     0.16668   0.16668   0.61736   0.00000  Uiso   1.00
N484   N     0.16665   0.16666   0.38264   0.00000  Uiso   1.00
C485   C     0.01308   0.16271   0.48203   0.00000  Uiso   1.00
C486   C     0.32025   0.17062   0.51797   0.00000  Uiso   1.00
C487   C     0.19169   0.02320   0.46785   0.00000  Uiso   1.00
C488   C     0.14164   0.31014   0.53215   0.00000  Uiso   1.00
H489   H     0.21172   0.04091   0.44316   0.00000  Uiso   1.00
H490   H     0.12162   0.29242   0.55684   0.00000  Uiso   1.00
C491   C     0.19160   0.31376   0.46758   0.00000  Uiso   1.00
C492   C     0.14173   0.01957   0.53242   0.00000  Uiso   1.00
H493   H     0.21206   0.29905   0.44318   0.00000  Uiso   1.00
H494   H     0.12127   0.03428   0.55682   0.00000  Uiso   1.00
C495   C     0.16652   0.29048   0.49964   0.00000  Uiso   1.00
C496   C     0.16681   0.04285   0.50036   0.00000  Uiso   1.00
C497   C     0.13854   0.13705   0.35543   0.00000  Uiso   1.00
C498   C     0.19479   0.19628   0.64457   0.00000  Uiso   1.00
C499   C     0.13749   0.13739   0.63933   0.00000  Uiso   1.00
C500   C     0.19584   0.19594   0.36067   0.00000  Uiso   1.00
N501   N     0.32153   0.14568   0.43862   0.00000  Uiso   1.00
O502   O     0.32495   0.16576   0.39986   0.00000  Uiso   1.00
O503   O     0.30033   0.10828   0.43736   0.00000  Uiso   1.00
N504   N     0.01181   0.18765   0.56138   0.00000  Uiso   1.00
O505   O     0.00838   0.16758   0.60014   0.00000  Uiso   1.00
O506   O     0.03301   0.22505   0.56264   0.00000  Uiso   1.00
N507   N     0.11069   0.10445   0.37678   0.00000  Uiso   1.00
O508   O     0.12714   0.06736   0.37824   0.00000  Uiso   1.00
O509   O     0.06348   0.10893   0.38250   0.00000  Uiso   1.00
N510   N     0.22264   0.22888   0.62322   0.00000  Uiso   1.00
O511   O     0.20619   0.26597   0.62176   0.00000  Uiso   1.00
O512   O     0.26985   0.22441   0.61749   0.00000  Uiso   1.00
C513   C     0.10283   0.10436   0.61300   0.00000  Uiso   1.00
H514   H     0.09531   0.10885   0.57546   0.00000  Uiso   1.00
H515   H     0.11925   0.07395   0.62033   0.00000  Uiso   1.00
H516   H     0.06452   0.10316   0.62473   0.00000  Uiso   1.00
C517   C     0.23050   0.22897   0.38700   0.00000  Uiso   1.00
H518   H     0.23803   0.22448   0.42454   0.00000  Uiso   1.00
H519   H     0.26881   0.23017   0.37526   0.00000  Uiso   1.00
H520   H     0.21408   0.25938   0.37967   0.00000  Uiso   1.00
O521   O     0.50000   0.10655   0.53958   0.00000  Uiso   1.00
O522   O     0.50000   0.22678   0.46042   0.00000  Uiso   1.00
O523   O     0.50000   0.10654   0.46039   0.00000  Uiso   1.00
O524   O     0.50000   0.22679   0.53961   0.00000  Uiso   1.00
C525   C     0.49988   0.08751   0.50017   0.00000  Uiso   1.00
C526   C     0.50012   0.24582   0.49983   0.00000  Uiso   1.00
O527   O     0.42495   0.16667   0.53046   0.00000  Uiso   1.00
O528   O     0.57505   0.16666   0.46954   0.00000  Uiso   1.00
O529   O     0.42494   0.16666   0.45127   0.00000  Uiso   1.00
O530   O     0.57506   0.16667   0.54873   0.00000  Uiso   1.00
C531   C     0.40158   0.16662   0.48814   0.00000  Uiso   1.00
C532   C     0.59842   0.16671   0.51186   0.00000  Uiso   1.00
Cu533  Cu    0.50000   0.16667   0.54689   0.00000  Uiso   1.00
Cu534  Cu    0.50000   0.16666   0.45311   0.00000  Uiso   1.00
N535   N     0.50001   0.16668   0.61736   0.00000  Uiso   1.00
N536   N     0.49999   0.16666   0.38264   0.00000  Uiso   1.00
C537   C     0.34641   0.16271   0.48203   0.00000  Uiso   1.00
C538   C     0.65359   0.17062   0.51797   0.00000  Uiso   1.00
C539   C     0.52502   0.02320   0.46785   0.00000  Uiso   1.00
C540   C     0.47498   0.31014   0.53215   0.00000  Uiso   1.00
H541   H     0.54505   0.04091   0.44316   0.00000  Uiso   1.00
H542   H     0.45495   0.29242   0.55684   0.00000  Uiso   1.00
C543   C     0.52493   0.31376   0.46758   0.00000  Uiso   1.00
C544   C     0.47507   0.01957   0.53242   0.00000  Uiso   1.00
H545   H     0.54540   0.29905   0.44318   0.00000  Uiso   1.00
H546   H     0.45460   0.03428   0.55682   0.00000  Uiso   1.00
C547   C     0.49985   0.29048   0.49964   0.00000  Uiso   1.00
C548   C     0.50015   0.04285   0.50036   0.00000  Uiso   1.00
C549   C     0.47187   0.13705   0.35543   0.00000  Uiso   1.00
C550   C     0.52813   0.19628   0.64457   0.00000  Uiso   1.00
C551   C     0.47083   0.13739   0.63933   0.00000  Uiso   1.00
C552   C     0.52917   0.19594   0.36067   0.00000  Uiso   1.00
N553   N     0.65486   0.14568   0.43862   0.00000  Uiso   1.00
O554   O     0.65828   0.16576   0.39986   0.00000  Uiso   1.00
O555   O     0.63366   0.10828   0.43736   0.00000  Uiso   1.00
N556   N     0.34514   0.18765   0.56138   0.00000  Uiso   1.00
O557   O     0.34172   0.16758   0.60014   0.00000  Uiso   1.00
O558   O     0.36634   0.22505   0.56264   0.00000  Uiso   1.00
N559   N     0.44403   0.10445   0.37678   0.00000  Uiso   1.00
O560   O     0.46048   0.06736   0.37824   0.00000  Uiso   1.00
O561   O     0.39681   0.10893   0.38250   0.00000  Uiso   1.00
N562   N     0.55597   0.22888   0.62322   0.00000  Uiso   1.00
O563   O     0.53952   0.26597   0.62176   0.00000  Uiso   1.00
O564   O     0.60318   0.22441   0.61749   0.00000  Uiso   1.00
C565   C     0.43616   0.10436   0.61300   0.00000  Uiso   1.00
H566   H     0.42864   0.10885   0.57546   0.00000  Uiso   1.00
H567   H     0.45259   0.07395   0.62033   0.00000  Uiso   1.00
H568   H     0.39785   0.10316   0.62473   0.00000  Uiso   1.00
C569   C     0.56384   0.22897   0.38700   0.00000  Uiso   1.00
H570   H     0.57136   0.22448   0.42454   0.00000  Uiso   1.00
H571   H     0.60214   0.23017   0.37526   0.00000  Uiso   1.00
H572   H     0.54741   0.25938   0.37967   0.00000  Uiso   1.00
O573   O     0.83333   0.10655   0.53958   0.00000  Uiso   1.00
O574   O     0.83334   0.22678   0.46042   0.00000  Uiso   1.00
O575   O     0.83333   0.10654   0.46039   0.00000  Uiso   1.00
O576   O     0.83334   0.22679   0.53961   0.00000  Uiso   1.00
C577   C     0.83321   0.08751   0.50017   0.00000  Uiso   1.00
C578   C     0.83346   0.24582   0.49983   0.00000  Uiso   1.00
O579   O     0.75828   0.16667   0.53046   0.00000  Uiso   1.00
O580   O     0.90839   0.16666   0.46954   0.00000  Uiso   1.00
O581   O     0.75828   0.16666   0.45127   0.00000  Uiso   1.00
O582   O     0.90839   0.16667   0.54873   0.00000  Uiso   1.00
C583   C     0.73492   0.16662   0.48814   0.00000  Uiso   1.00
C584   C     0.93175   0.16671   0.51186   0.00000  Uiso   1.00
Cu585  Cu    0.83333   0.16667   0.54689   0.00000  Uiso   1.00
Cu586  Cu    0.83333   0.16666   0.45311   0.00000  Uiso   1.00
N587   N     0.83335   0.16668   0.61736   0.00000  Uiso   1.00
N588   N     0.83332   0.16666   0.38264   0.00000  Uiso   1.00
C589   C     0.67975   0.16271   0.48203   0.00000  Uiso   1.00
C590   C     0.98692   0.17062   0.51797   0.00000  Uiso   1.00
C591   C     0.85835   0.02320   0.46785   0.00000  Uiso   1.00
C592   C     0.80831   0.31014   0.53215   0.00000  Uiso   1.00
H593   H     0.87838   0.04091   0.44316   0.00000  Uiso   1.00
H594   H     0.78828   0.29242   0.55684   0.00000  Uiso   1.00
C595   C     0.85827   0.31376   0.46758   0.00000  Uiso   1.00
C596   C     0.80840   0.01957   0.53242   0.00000  Uiso   1.00
H597   H     0.87873   0.29905   0.44318   0.00000  Uiso   1.00
H598   H     0.78793   0.03428   0.55682   0.00000  Uiso   1.00
C599   C     0.83319   0.29048   0.49964   0.00000  Uiso   1.00
C600   C     0.83348   0.04285   0.50036   0.00000  Uiso   1.00
C601   C     0.80521   0.13705   0.35543   0.00000  Uiso   1.00
C602   C     0.86146   0.19628   0.64457   0.00000  Uiso   1.00
C603   C     0.80416   0.13739   0.63933   0.00000  Uiso   1.00
C604   C     0.86251   0.19594   0.36067   0.00000  Uiso   1.00
N605   N     0.98819   0.14568   0.43862   0.00000  Uiso   1.00
O606   O     0.99161   0.16576   0.39986   0.00000  Uiso   1.00
O607   O     0.96699   0.10828   0.43736   0.00000  Uiso   1.00
N608   N     0.67847   0.18765   0.56138   0.00000  Uiso   1.00
O609   O     0.67505   0.16758   0.60014   0.00000  Uiso   1.00
O610   O     0.69967   0.22505   0.56264   0.00000  Uiso   1.00
N611   N     0.77736   0.10445   0.37678   0.00000  Uiso   1.00
O612   O     0.79381   0.06736   0.37824   0.00000  Uiso   1.00
O613   O     0.73015   0.10893   0.38250   0.00000  Uiso   1.00
N614   N     0.88930   0.22888   0.62322   0.00000  Uiso   1.00
O615   O     0.87285   0.26597   0.62176   0.00000  Uiso   1.00
O616   O     0.93651   0.22441   0.61749   0.00000  Uiso   1.00
C617   C     0.76950   0.10436   0.61300   0.00000  Uiso   1.00
H618   H     0.76197   0.10885   0.57546   0.00000  Uiso   1.00
H619   H     0.78592   0.07395   0.62033   0.00000  Uiso   1.00
H620   H     0.73119   0.10316   0.62473   0.00000  Uiso   1.00
C621   C     0.89717   0.22897   0.38700   0.00000  Uiso   1.00
H622   H     0.90469   0.22448   0.42454   0.00000  Uiso   1.00
H623   H     0.93548   0.23017   0.37526   0.00000  Uiso   1.00
H624   H     0.88074   0.25938   0.37967   0.00000  Uiso   1.00
O625   O     0.16666   0.43989   0.53958   0.00000  Uiso   1.00
O626   O     0.16667   0.56011   0.46042   0.00000  Uiso   1.00
O627   O     0.16666   0.43988   0.46039   0.00000  Uiso   1.00
O628   O     0.16667   0.56012   0.53961   0.00000  Uiso   1.00
C629   C     0.16654   0.42085   0.50017   0.00000  Uiso   1.00
C630   C     0.16679   0.57915   0.49983   0.00000  Uiso   1.00
O631   O     0.09161   0.50000   0.53046   0.00000  Uiso   1.00
O632   O     0.24172   0.50000   0.46954   0.00000  Uiso   1.00
O633   O     0.09161   0.49999   0.45127   0.00000  Uiso   1.00
O634   O     0.24172   0.50001   0.54873   0.00000  Uiso   1.00
C635   C     0.06825   0.49995   0.48814   0.00000  Uiso   1.00
C636   C     0.26508   0.50005   0.51186   0.00000  Uiso   1.00
Cu637  Cu    0.16667   0.50001   0.54689   0.00000  Uiso   1.00
Cu638  Cu    0.16667   0.49999   0.45311   0.00000  Uiso   1.00
N639   N     0.16668   0.50001   0.61736   0.00000  Uiso   1.00
N640   N     0.16665   0.49999   0.38264   0.00000  Uiso   1.00
C641   C     0.01308   0.49604   0.48203   0.00000  Uiso   1.00
C642   C     0.32025   0.50396   0.51797   0.00000  Uiso   1.00
C643   C     0.19169   0.35653   0.46785   0.00000  Uiso   1.00
C644   C     0.14164   0.64347   0.53215   0.00000  Uiso   1.00
H645   H     0.21172   0.37425   0.44316   0.00000  Uiso   1.00
H646   H     0.12162   0.62576   0.55684   0.00000  Uiso   1.00
C647   C     0.19160   0.64709   0.46758   0.00000  Uiso   1.00
C648   C     0.14173   0.35291   0.53242   0.00000  Uiso   1.00
H649   H     0.21206   0.63239   0.44318   0.00000  Uiso   1.00
H650   H     0.12127   0.36761   0.55682   0.00000  Uiso   1.00
C651   C     0.16652   0.62381   0.49964   0.00000  Uiso   1.00
C652   C     0.16681   0.37619   0.50036   0.00000  Uiso   1.00
C653   C     0.13854   0.47038   0.35543   0.00000  Uiso   1.00
C654   C     0.19479   0.52962   0.64457   0.00000  Uiso   1.00
C655   C     0.13749   0.47073   0.63933   0.00000  Uiso   1.00
C656   C     0.19584   0.52928   0.36067   0.00000  Uiso   1.00
N657   N     0.32153   0.47902   0.43862   0.00000  Uiso   1.00
O658   O     0.32495   0.49909   0.39986   0.00000  Uiso   1.00
O659   O     0.30033   0.44161   0.43736   0.00000  Uiso   1.00
N660   N     0.01181   0.52099   0.56138   0.00000  Uiso   1.00
O661   O     0.00838   0.50091   0.60014   0.00000  Uiso   1.00
O662   O     0.03301   0.55839   0.56264   0.00000  Uiso   1.00
N663   N     0.11069   0.43778   0.37678   0.00000  Uiso   1.00
O664   O     0.12714   0.40070   0.37824   0.00000  Uiso   1.00
O665   O     0.06348   0.44226   0.38250   0.00000  Uiso   1.00
N666   N     0.22264   0.56222   0.62322   0.00000  Uiso   1.00
O667   O     0.20619   0.59931   0.62176   0.00000  Uiso   1.00
O668   O     0.26985   0.55774   0.61749   0.00000  Uiso   1.00
C669   C     0.10283   0.43770   0.61300   0.00000  Uiso   1.00
H670   H     0.09531   0.44219   0.57546   0.00000  Uiso   1.00
H671   H     0.11925   0.40728   0.62033   0.00000  Uiso   1.00
H672   H     0.06452   0.43650   0.62473   0.00000  Uiso   1.00
C673   C     0.23050   0.56230   0.38700   0.00000  Uiso   1.00
H674   H     0.23803   0.55781   0.42454   0.00000  Uiso   1.00
H675   H     0.26881   0.56350   0.37526   0.00000  Uiso   1.00
H676   H     0.21408   0.59272   0.37967   0.00000  Uiso   1.00
O677   O     0.50000   0.43989   0.53958   0.00000  Uiso   1.00
O678   O     0.50000   0.56011   0.46042   0.00000  Uiso   1.00
O679   O     0.50000   0.43988   0.46039   0.00000  Uiso   1.00
O680   O     0.50000   0.56012   0.53961   0.00000  Uiso   1.00
C681   C     0.49988   0.42085   0.50017   0.00000  Uiso   1.00
C682   C     0.50012   0.57915   0.49983   0.00000  Uiso   1.00
O683   O     0.42495   0.50000   0.53046   0.00000  Uiso   1.00
O684   O     0.57505   0.50000   0.46954   0.00000  Uiso   1.00
O685   O     0.42494   0.49999   0.45127   0.00000  Uiso   1.00
O686   O     0.57506   0.50001   0.54873   0.00000  Uiso   1.00
C687   C     0.40158   0.49995   0.48814   0.00000  Uiso   1.00
C688   C     0.59842   0.50005   0.51186   0.00000  Uiso   1.00
Cu689  Cu    0.50000   0.50001   0.54689   0.00000  Uiso   1.00
Cu690  Cu    0.50000   0.49999   0.45311   0.00000  Uiso   1.00
N691   N     0.50001   0.50001   0.61736   0.00000  Uiso   1.00
N692   N     0.49999   0.49999   0.38264   0.00000  Uiso   1.00
C693   C     0.34641   0.49604   0.48203   0.00000  Uiso   1.00
C694   C     0.65359   0.50396   0.51797   0.00000  Uiso   1.00
C695   C     0.52502   0.35653   0.46785   0.00000  Uiso   1.00
C696   C     0.47498   0.64347   0.53215   0.00000  Uiso   1.00
H697   H     0.54505   0.37425   0.44316   0.00000  Uiso   1.00
H698   H     0.45495   0.62576   0.55684   0.00000  Uiso   1.00
C699   C     0.52493   0.64709   0.46758   0.00000  Uiso   1.00
C700   C     0.47507   0.35291   0.53242   0.00000  Uiso   1.00
H701   H     0.54540   0.63239   0.44318   0.00000  Uiso   1.00
H702   H     0.45460   0.36761   0.55682   0.00000  Uiso   1.00
C703   C     0.49985   0.62381   0.49964   0.00000  Uiso   1.00
C704   C     0.50015   0.37619   0.50036   0.00000  Uiso   1.00
C705   C     0.47187   0.47038   0.35543   0.00000  Uiso   1.00
C706   C     0.52813   0.52962   0.64457   0.00000  Uiso   1.00
C707   C     0.47083   0.47073   0.63933   0.00000  Uiso   1.00
C708   C     0.52917   0.52928   0.36067   0.00000  Uiso   1.00
N709   N     0.65486   0.47902   0.43862   0.00000  Uiso   1.00
O710   O     0.65828   0.49909   0.39986   0.00000  Uiso   1.00
O711   O     0.63366   0.44161   0.43736   0.00000  Uiso   1.00
N712   N     0.34514   0.52099   0.56138   0.00000  Uiso   1.00
O713   O     0.34172   0.50091   0.60014   0.00000  Uiso   1.00
O714   O     0.36634   0.55839   0.56264   0.00000  Uiso   1.00
N715   N     0.44403   0.43778   0.37678   0.00000  Uiso   1.00
O716   O     0.46048   0.40070   0.37824   0.00000  Uiso   1.00
O717   O     0.39681   0.44226   0.38250   0.00000  Uiso   1.00
N718   N     0.55597   0.56222   0.62322   0.00000  Uiso   1.00
O719   O     0.53952   0.59931   0.62176   0.00000  Uiso   1.00
O720   O     0.60318   0.55774   0.61749   0.00000  Uiso   1.00
C721   C     0.43616   0.43770   0.61300   0.00000  Uiso   1.00
H722   H     0.42864   0.44219   0.57546   0.00000  Uiso   1.00
H723   H     0.45259   0.40728   0.62033   0.00000  Uiso   1.00
H724   H     0.39785   0.43650   0.62473   0.00000  Uiso   1.00
C725   C     0.56384   0.56230   0.38700   0.00000  Uiso   1.00
H726   H     0.57136   0.55781   0.42454   0.00000  Uiso   1.00
H727   H     0.60214   0.56350   0.37526   0.00000  Uiso   1.00
H728   H     0.54741   0.59272   0.37967   0.00000  Uiso   1.00
O729   O     0.83333   0.43989   0.53958   0.00000  Uiso   1.00
O730   O     0.83334   0.56011   0.46042   0.00000  Uiso   1.00
O731   O     0.83333   0.43988   0.46039   0.00000  Uiso   1.00
O732   O     0.83334   0.56012   0.53961   0.00000  Uiso   1.00
C733   C     0.83321   0.42085   0.50017   0.00000  Uiso   1.00
C734   C     0.83346   0.57915   0.49983   0.00000  Uiso   1.00
O735   O     0.75828   0.50000   0.53046   0.00000  Uiso   1.00
O736   O     0.90839   0.50000   0.46954   0.00000  Uiso   1.00
O737   O     0.75828   0.49999   0.45127   0.00000  Uiso   1.00
O738   O     0.90839   0.50001   0.54873   0.00000  Uiso   1.00
C739   C     0.73492   0.49995   0.48814   0.00000  Uiso   1.00
C740   C     0.93175   0.50005   0.51186   0.00000  Uiso   1.00
Cu741  Cu    0.83333   0.50001   0.54689   0.00000  Uiso   1.00
Cu742  Cu    0.83333   0.49999   0.45311   0.00000  Uiso   1.00
N743   N     0.83335   0.50001   0.61736   0.00000  Uiso   1.00
N744   N     0.83332   0.49999   0.38264   0.00000  Uiso   1.00
C745   C     0.67975   0.49604   0.48203   0.00000  Uiso   1.00
C746   C     0.98692   0.50396   0.51797   0.00000  Uiso   1.00
C747   C     0.85835   0.35653   0.46785   0.00000  Uiso   1.00
C748   C     0.80831   0.64347   0.53215   0.00000  Uiso   1.00
H749   H     0.87838   0.37425   0.44316   0.00000  Uiso   1.00
H750   H     0.78828   0.62576   0.55684   0.00000  Uiso   1.00
C751   C     0.85827   0.64709   0.46758   0.00000  Uiso   1.00
C752   C     0.80840   0.35291   0.53242   0.00000  Uiso   1.00
H753   H     0.87873   0.63239   0.44318   0.00000  Uiso   1.00
H754   H     0.78793   0.36761   0.55682   0.00000  Uiso   1.00
C755   C     0.83319   0.62381   0.49964   0.00000  Uiso   1.00
C756   C     0.83348   0.37619   0.50036   0.00000  Uiso   1.00
C757   C     0.80521   0.47038   0.35543   0.00000  Uiso   1.00
C758   C     0.86146   0.52962   0.64457   0.00000  Uiso   1.00
C759   C     0.80416   0.47073   0.63933   0.00000  Uiso   1.00
C760   C     0.86251   0.52928   0.36067   0.00000  Uiso   1.00
N761   N     0.98819   0.47902   0.43862   0.00000  Uiso   1.00
O762   O     0.99161   0.49909   0.39986   0.00000  Uiso   1.00
O763   O     0.96699   0.44161   0.43736   0.00000  Uiso   1.00
N764   N     0.67847   0.52099   0.56138   0.00000  Uiso   1.00
O765   O     0.67505   0.50091   0.60014   0.00000  Uiso   1.00
O766   O     0.69967   0.55839   0.56264   0.00000  Uiso   1.00
N767   N     0.77736   0.43778   0.37678   0.00000  Uiso   1.00
O768   O     0.79381   0.40070   0.37824   0.00000  Uiso   1.00
O769   O     0.73015   0.44226   0.38250   0.00000  Uiso   1.00
N770   N     0.88930   0.56222   0.62322   0.00000  Uiso   1.00
O771   O     0.87285   0.59931   0.62176   0.00000  Uiso   1.00
O772   O     0.93651   0.55774   0.61749   0.00000  Uiso   1.00
C773   C     0.76950   0.43770   0.61300   0.00000  Uiso   1.00
H774   H     0.76197   0.44219   0.57546   0.00000  Uiso   1.00
H775   H     0.78592   0.40728   0.62033   0.00000  Uiso   1.00
H776   H     0.73119   0.43650   0.62473   0.00000  Uiso   1.00
C777   C     0.89717   0.56230   0.38700   0.00000  Uiso   1.00
H778   H     0.90469   0.55781   0.42454   0.00000  Uiso   1.00
H779   H     0.93548   0.56350   0.37526   0.00000  Uiso   1.00
H780   H     0.88074   0.59272   0.37967   0.00000  Uiso   1.00
O781   O     0.16666   0.77322   0.53958   0.00000  Uiso   1.00
O782   O     0.16667   0.89345   0.46042   0.00000  Uiso   1.00
O783   O     0.16666   0.77321   0.46039   0.00000  Uiso   1.00
O784   O     0.16667   0.89346   0.53961   0.00000  Uiso   1.00
C785   C     0.16654   0.75418   0.50017   0.00000  Uiso   1.00
C786   C     0.16679   0.91249   0.49983   0.00000  Uiso   1.00
O787   O     0.09161   0.83334   0.53046   0.00000  Uiso   1.00
O788   O     0.24172   0.83333   0.46954   0.00000  Uiso   1.00
O789   O     0.09161   0.83333   0.45127   0.00000  Uiso   1.00
O790   O     0.24172   0.83334   0.54873   0.00000  Uiso   1.00
C791   C     0.06825   0.83329   0.48814   0.00000  Uiso   1.00
C792   C     0.26508   0.83338   0.51186   0.00000  Uiso   1.00
Cu793  Cu    0.16667   0.83334   0.54689   0.00000  Uiso   1.00
Cu794  Cu    0.16667   0.83333   0.45311   0.00000  Uiso   1.00
N795   N     0.16668   0.83334   0.61736   0.00000  Uiso   1.00
N796   N     0.16665   0.83332   0.38264   0.00000  Uiso   1.00
C797   C     0.01308   0.82938   0.48203   0.00000  Uiso   1.00
C798   C     0.32025   0.83729   0.51797   0.00000  Uiso   1.00
C799   C     0.19169   0.68986   0.46785   0.00000  Uiso   1.00
C800   C     0.14164   0.97680   0.53215   0.00000  Uiso   1.00
H801   H     0.21172   0.70758   0.44316   0.00000  Uiso   1.00
H802   H     0.12162   0.95909   0.55684   0.00000  Uiso   1.00
C803   C     0.19160   0.98043   0.46758   0.00000  Uiso   1.00
C804   C     0.14173   0.68624   0.53242   0.00000  Uiso   1.00
H805   H     0.21206   0.96572   0.44318   0.00000  Uiso   1.00
H806   H     0.12127   0.70095   0.55682   0.00000  Uiso   1.00
C807   C     0.16652   0.95715   0.49964   0.00000  Uiso   1.00
C808   C     0.16681   0.70952   0.50036   0.00000  Uiso   1.00
C809   C     0.13854   0.80372   0.35543   0.00000  Uiso   1.00
C810   C     0.19479   0.86295   0.64457   0.00000  Uiso   1.00
C811   C     0.13749   0.80406   0.63933   0.00000  Uiso   1.00
C812   C     0.19584   0.86261   0.36067   0.00000  Uiso   1.00
N813   N     0.32153   0.81235   0.43862   0.00000  Uiso   1.00
O814   O     0.32495   0.83242   0.39986   0.00000  Uiso   1.00
O815   O     0.30033   0.77495   0.43736   0.00000  Uiso   1.00
N816   N     0.01181   0.85432   0.56138   0.00000  Uiso   1.00
O817   O     0.00838   0.83425   0.60014   0.00000  Uiso   1.00
O818   O     0.03301   0.89172   0.56264   0.00000  Uiso   1.00
N819   N     0.11069   0.77112   0.37678   0.00000  Uiso   1.00
O820   O     0.12714   0.73403   0.37824   0.00000  Uiso   1.00
O821   O     0.06348   0.77559   0.38250   0.00000  Uiso   1.00
N822   N     0.22264   0.89555   0.62322   0.00000  Uiso   1.00
O823   O     0.20619   0.93264   0.62176   0.00000  Uiso   1.00
O824   O     0.26985   0.89107   0.61749   0.00000  Uiso   1.00
C825   C     0.10283   0.77103   0.61300   0.00000  Uiso   1.00
H826   H     0.09531   0.77552   0.57546   0.00000  Uiso   1.00
H827   H     0.11925   0.74062   0.62033   0.00000  Uiso   1.00
H828   H     0.06452   0.76983   0.62473   0.00000  Uiso   1.00
C829   C     0.23050   0.89564   0.38700   0.00000  Uiso   1.00
H830   H     0.23803   0.89115   0.42454   0.00000  Uiso   1.00
H831   H     0.26881   0.89684   0.37526   0.00000  Uiso   1.00
H832   H     0.21408   0.92605   0.37967   0.00000  Uiso   1.00
O833   O     0.50000   0.77322   0.53958   0.00000  Uiso   1.00
O834   O     0.50000   0.89345   0.46042   0.00000  Uiso   1.00
O835   O     0.50000   0.77321   0.46039   0.00000  Uiso   1.00
O836   O     0.50000   0.89346   0.53961   0.00000  Uiso   1.00
C837   C     0.49988   0.75418   0.50017   0.00000  Uiso   1.00
C838   C     0.50012   0.91249   0.49983   0.00000  Uiso   1.00
O839   O     0.42495   0.83334   0.53046   0.00000  Uiso   1.00
O840   O     0.57505   0.83333   0.46954   0.00000  Uiso   1.00
O841   O     0.42494   0.83333   0.45127   0.00000  Uiso   1.00
O842   O     0.57506   0.83334   0.54873   0.00000  Uiso   1.00
C843   C     0.40158   0.83329   0.48814   0.00000  Uiso   1.00
C844   C     0.59842   0.83338   0.51186   0.00000  Uiso   1.00
Cu845  Cu    0.50000   0.83334   0.54689   0.00000  Uiso   1.00
Cu846  Cu    0.50000   0.83333   0.45311   0.00000  Uiso   1.00
N847   N     0.50001   0.83334   0.61736   0.00000  Uiso   1.00
N848   N     0.49999   0.83332   0.38264   0.00000  Uiso   1.00
C849   C     0.34641   0.82938   0.48203   0.00000  Uiso   1.00
C850   C     0.65359   0.83729   0.51797   0.00000  Uiso   1.00
C851   C     0.52502   0.68986   0.46785   0.00000  Uiso   1.00
C852   C     0.47498   0.97680   0.53215   0.00000  Uiso   1.00
H853   H     0.54505   0.70758   0.44316   0.00000  Uiso   1.00
H854   H     0.45495   0.95909   0.55684   0.00000  Uiso   1.00
C855   C     0.52493   0.98043   0.46758   0.00000  Uiso   1.00
C856   C     0.47507   0.68624   0.53242   0.00000  Uiso   1.00
H857   H     0.54540   0.96572   0.44318   0.00000  Uiso   1.00
H858   H     0.45460   0.70095   0.55682   0.00000  Uiso   1.00
C859   C     0.49985   0.95715   0.49964   0.00000  Uiso   1.00
C860   C     0.50015   0.70952   0.50036   0.00000  Uiso   1.00
C861   C     0.47187   0.80372   0.35543   0.00000  Uiso   1.00
C862   C     0.52813   0.86295   0.64457   0.00000  Uiso   1.00
C863   C     0.47083   0.80406   0.63933   0.00000  Uiso   1.00
C864   C     0.52917   0.86261   0.36067   0.00000  Uiso   1.00
N865   N     0.65486   0.81235   0.43862   0.00000  Uiso   1.00
O866   O     0.65828   0.83242   0.39986   0.00000  Uiso   1.00
O867   O     0.63366   0.77495   0.43736   0.00000  Uiso   1.00
N868   N     0.34514   0.85432   0.56138   0.00000  Uiso   1.00
O869   O     0.34172   0.83425   0.60014   0.00000  Uiso   1.00
O870   O     0.36634   0.89172   0.56264   0.00000  Uiso   1.00
N871   N     0.44403   0.77112   0.37678   0.00000  Uiso   1.00
O872   O     0.46048   0.73403   0.37824   0.00000  Uiso   1.00
O873   O     0.39681   0.77559   0.38250   0.00000  Uiso   1.00
N874   N     0.55597   0.89555   0.62322   0.00000  Uiso   1.00
O875   O     0.53952   0.93264   0.62176   0.00000  Uiso   1.00
O876   O     0.60318   0.89107   0.61749   0.00000  Uiso   1.00
C877   C     0.43616   0.77103   0.61300   0.00000  Uiso   1.00
H878   H     0.42864   0.77552   0.57546   0.00000  Uiso   1.00
H879   H     0.45259   0.74062   0.62033   0.00000  Uiso   1.00
H880   H     0.39785   0.76983   0.62473   0.00000  Uiso   1.00
C881   C     0.56384   0.89564   0.38700   0.00000  Uiso   1.00
H882   H     0.57136   0.89115   0.42454   0.00000  Uiso   1.00
H883   H     0.60214   0.89684   0.37526   0.00000  Uiso   1.00
H884   H     0.54741   0.92605   0.37967   0.00000  Uiso   1.00
O885   O     0.83333   0.77322   0.53958   0.00000  Uiso   1.00
O886   O     0.83334   0.89345   0.46042   0.00000  Uiso   1.00
O887   O     0.83333   0.77321   0.46039   0.00000  Uiso   1.00
O888   O     0.83334   0.89346   0.53961   0.00000  Uiso   1.00
C889   C     0.83321   0.75418   0.50017   0.00000  Uiso   1.00
C890   C     0.83346   0.91249   0.49983   0.00000  Uiso   1.00
O891   O     0.75828   0.83334   0.53046   0.00000  Uiso   1.00
O892   O     0.90839   0.83333   0.46954   0.00000  Uiso   1.00
O893   O     0.75828   0.83333   0.45127   0.00000  Uiso   1.00
O894   O     0.90839   0.83334   0.54873   0.00000  Uiso   1.00
C895   C     0.73492   0.83329   0.48814   0.00000  Uiso   1.00
C896   C     0.93175   0.83338   0.51186   0.00000  Uiso   1.00
Cu897  Cu    0.83333   0.83334   0.54689   0.00000  Uiso   1.00
Cu898  Cu    0.83333   0.83333   0.45311   0.00000  Uiso   1.00
N899   N     0.83335   0.83334   0.61736   0.00000  Uiso   1.00
N900   N     0.83332   0.83332   0.38264   0.00000  Uiso   1.00
C901   C     0.67975   0.82938   0.48203   0.00000  Uiso   1.00
C902   C     0.98692   0.83729   0.51797   0.00000  Uiso   1.00
C903   C     0.85835   0.68986   0.46785   0.00000  Uiso   1.00
C904   C     0.80831   0.97680   0.53215   0.00000  Uiso   1.00
H905   H     0.87838   0.70758   0.44316   0.00000  Uiso   1.00
H906   H     0.78828   0.95909   0.55684   0.00000  Uiso   1.00
C907   C     0.85827   0.98043   0.46758   0.00000  Uiso   1.00
C908   C     0.80840   0.68624   0.53242   0.00000  Uiso   1.00
H909   H     0.87873   0.96572   0.44318   0.00000  Uiso   1.00
H910   H     0.78793   0.70095   0.55682   0.00000  Uiso   1.00
C911   C     0.83319   0.95715   0.49964   0.00000  Uiso   1.00
C912   C     0.83348   0.70952   0.50036   0.00000  Uiso   1.00
C913   C     0.80521   0.80372   0.35543   0.00000  Uiso   1.00
C914   C     0.86146   0.86295   0.64457   0.00000  Uiso   1.00
C915   C     0.80416   0.80406   0.63933   0.00000  Uiso   1.00
C916   C     0.86251   0.86261   0.36067   0.00000  Uiso   1.00
N917   N     0.98819   0.81235   0.43862   0.00000  Uiso   1.00
O918   O     0.99161   0.83242   0.39986   0.00000  Uiso   1.00
O919   O     0.96699   0.77495   0.43736   0.00000  Uiso   1.00
N920   N     0.67847   0.85432   0.56138   0.00000  Uiso   1.00
O921   O     0.67505   0.83425   0.60014   0.00000  Uiso   1.00
O922   O     0.69967   0.89172   0.56264   0.00000  Uiso   1.00
N923   N     0.77736   0.77112   0.37678   0.00000  Uiso   1.00
O924   O     0.79381   0.73403   0.37824   0.00000  Uiso   1.00
O925   O     0.73015   0.77559   0.38250   0.00000  Uiso   1.00
N926   N     0.88930   0.89555   0.62322   0.00000  Uiso   1.00
O927   O     0.87285   0.93264   0.62176   0.00000  Uiso   1.00
O928   O     0.93651   0.89107   0.61749   0.00000  Uiso   1.00
C929   C     0.76950   0.77103   0.61300   0.00000  Uiso   1.00
H930   H     0.76197   0.77552   0.57546   0.00000  Uiso   1.00
H931   H     0.78592   0.74062   0.62033   0.00000  Uiso   1.00
H932   H     0.73119   0.76983   0.62473   0.00000  Uiso   1.00
C933   C     0.89717   0.89564   0.38700   0.00000  Uiso   1.00
H934   H     0.90469   0.89115   0.42454   0.00000  Uiso   1.00
H935   H     0.93548   0.89684   0.37526   0.00000  Uiso   1.00
H936   H     0.88074   0.92605   0.37967   0.00000  Uiso   1.00
O937   O     0.16666   0.10655   0.87291   0.00000  Uiso   1.00
O938   O     0.16667   0.22678   0.79375   0.00000  Uiso   1.00
O939   O     0.16666   0.10654   0.79372   0.00000  Uiso   1.00
O940   O     0.16667   0.22679   0.87294   0.00000  Uiso   1.00
C941   C     0.16654   0.08751   0.83351   0.00000  Uiso   1.00
C942   C     0.16679   0.24582   0.83316   0.00000  Uiso   1.00
O943   O     0.09161   0.16667   0.86379   0.00000  Uiso   1.00
O944   O     0.24172   0.16666   0.80288   0.00000  Uiso   1.00
O945   O     0.09161   0.16666   0.78460   0.00000  Uiso   1.00
O946   O     0.24172   0.16667   0.88207   0.00000  Uiso   1.00
C947   C     0.06825   0.16662   0.82148   0.00000  Uiso   1.00
C948   C     0.26508   0.16671   0.84519   0.00000  Uiso   1.00
Cu949  Cu    0.16667   0.16667   0.88022   0.00000  Uiso   1.00
Cu950  Cu    0.16667   0.16666   0.78645   0.00000  Uiso   1.00
N951   N     0.16668   0.16668   0.95069   0.00000  Uiso   1.00
N952   N     0.16665   0.16666   0.71597   0.00000  Uiso   1.00
C953   C     0.01308   0.16271   0.81536   0.00000  Uiso   1.00
C954   C     0.32025   0.17062   0.85130   0.00000  Uiso   1.00
C955   C     0.19169   0.02320   0.80118   0.00000  Uiso   1.00
C956   C     0.14164   0.31014   0.86548   0.00000  Uiso   1.00
H957   H     0.21172   0.04091   0.77649   0.00000  Uiso   1.00
H958   H     0.12162   0.29242   0.89017   0.00000  Uiso   1.00
C959   C     0.19160   0.31376   0.80091   0.00000  Uiso   1.00
C960   C     0.14173   0.01957   0.86575   0.00000  Uiso   1.00
H961   H     0.21206   0.29905   0.77651   0.00000  Uiso   1.00
H962   H     0.12127   0.03428   0.89016   0.00000  Uiso   1.00
C963   C     0.16652   0.29048   0.83297   0.00000  Uiso   1.00
C964   C     0.16681   0.04285   0.83369   0.00000  Uiso   1.00
C965   C     0.13854   0.13705   0.68876   0.00000  Uiso   1.00
C966   C     0.19479   0.19628   0.97791   0.00000  Uiso   1.00
C967   C     0.13749   0.13739   0.97266   0.00000  Uiso   1.00
C968   C     0.19584   0.19594   0.69400   0.00000  Uiso   1.00
N969   N     0.32153   0.14568   0.77195   0.00000  Uiso   1.00
O970   O     0.32495   0.16576   0.73320   0.00000  Uiso   1.00
O971   O     0.30033   0.10828   0.77070   0.00000  Uiso   1.00
N972   N     0.01181   0.18765   0.89472   0.00000  Uiso   1.00
O973   O     0.00838   0.16758   0.93347   0.00000  Uiso   1.00
O974   O     0.03301   0.22505   0.89597   0.00000  Uiso   1.00
N975   N     0.11069   0.10445   0.71012   0.00000  Uiso   1.00
O976   O     0.12714   0.06736   0.71158   0.00000  Uiso   1.00
O977   O     0.06348   0.10893   0.71584   0.00000  Uiso   1.00
N978   N     0.22264   0.22888   0.95655   0.00000  Uiso   1.00
O979   O     0.20619   0.26597   0.95509   0.00000  Uiso   1.00
O980   O     0.26985   0.22441   0.95082   0.00000  Uiso   1.00
C981   C     0.10283   0.10436   0.94634   0.00000  Uiso   1.00
H982   H     0.09531   0.10885   0.90879   0.00000  Uiso   1.00
H983   H     0.11925   0.07395   0.95367   0.00000  Uiso   1.00
H984   H     0.06452   0.10316   0.95807   0.00000  Uiso   1.00
C985   C     0.23050   0.22897   0.72033   0.00000  Uiso   1.00
H986   H     0.23803   0.22448   0.75787   0.00000  Uiso   1.00
H987   H     0.26881   0.23017   0.70860   0.00000  Uiso   1.00
H988   H     0.21408   0.25938   0.71300   0.00000  Uiso   1.00
O989   O     0.50000   0.10655   0.87291   0.00000  Uiso   1.00
O990   O     0.50000   0.22678   0.79375   0.00000  Uiso   1.00
O991   O     0.50000   0.10654   0.79372   0.00000  Uiso   1.00
O992   O     0.50000   0.22679   0.87294   0.00000  Uiso   1.00
C993   C     0.49988   0.08751   0.83351   0.00000  Uiso   1.00
C994   C     0.50012   0.24582   0.83316   0.00000  Uiso   1.00
O995   O     0.42495   0.16667   0.86379   0.00000  Uiso   1.00
O996   O     0.57505   0.16666   0.80288   0.00000  Uiso   1.00
O997   O     0.42494   0.16666   0.78460   0.00000  Uiso   1.00
O998   O     0.57506   0.16667   0.88207   0.00000  Uiso   1.00
C999   C     0.40158   0.16662   0.82148   0.00000  Uiso   1.00
C1000  C     0.59842   0.16671   0.84519   0.00000  Uiso   1.00
Cu1001 Cu    0.50000   0.16667   0.88022   0.00000  Uiso   1.00
Cu1002 Cu    0.50000   0.16666   0.78645   0.00000  Uiso   1.00
N1003  N     0.50001   0.16668   0.95069   0.00000  Uiso   1.00
N1004  N     0.49999   0.16666   0.71597   0.00000  Uiso   1.00
C1005  C     0.34641   0.16271   0.81536   0.00000  Uiso   1.00
C1006  C     0.65359   0.17062   0.85130   0.00000  Uiso   1.00
C1007  C     0.52502   0.02320   0.80118   0.00000  Uiso   1.00
C1008  C     0.47498   0.31014   0.86548   0.00000  Uiso   1.00
H1009  H     0.54505   0.04091   0.77649   0.00000  Uiso   1.00
H1010  H     0.45495   0.29242   0.89017   0.00000  Uiso   1.00
C1011  C     0.52493   0.31376   0.80091   0.00000  Uiso   1.00
C1012  C     0.47507   0.01957   0.86575   0.00000  Uiso   1.00
H1013  H     0.54540   0.29905   0.77651   0.00000  Uiso   1.00
H1014  H     0.45460   0.03428   0.89016   0.00000  Uiso   1.00
C1015  C     0.49985   0.29048   0.83297   0.00000  Uiso   1.00
C1016  C     0.50015   0.04285   0.83369   0.00000  Uiso   1.00
C1017  C     0.47187   0.13705   0.68876   0.00000  Uiso   1.00
C1018  C     0.52813   0.19628   0.97791   0.00000  Uiso   1.00
C1019  C     0.47083   0.13739   0.97266   0.00000  Uiso   1.00
C1020  C     0.52917   0.19594   0.69400   0.00000  Uiso   1.00
N1021  N     0.65486   0.14568   0.77195   0.00000  Uiso   1.00
O1022  O     0.65828   0.16576   0.73320   0.00000  Uiso   1.00
O1023  O     0.63366   0.10828   0.77070   0.00000  Uiso   1.00
N1024  N     0.34514   0.18765   0.89472   0.00000  Uiso   1.00
O1025  O     0.34172   0.16758   0.93347   0.00000  Uiso   1.00
O1026  O     0.36634   0.22505   0.89597   0.00000  Uiso   1.00
N1027  N     0.44403   0.10445   0.71012   0.00000  Uiso   1.00
O1028  O     0.46048   0.06736   0.71158   0.00000  Uiso   1.00
O1029  O     0.39681   0.10893   0.71584   0.00000  Uiso   1.00
N1030  N     0.55597   0.22888   0.95655   0.00000  Uiso   1.00
O1031  O     0.53952   0.26597   0.95509   0.00000  Uiso   1.00
O1032  O     0.60318   0.22441   0.95082   0.00000  Uiso   1.00
C1033  C     0.43616   0.10436   0.94634   0.00000  Uiso   1.00
H1034  H     0.42864   0.10885   0.90879   0.00000  Uiso   1.00
H1035  H     0.45259   0.07395   0.95367   0.00000  Uiso   1.00
H1036  H     0.39785   0.10316   0.95807   0.00000  Uiso   1.00
C1037  C     0.56384   0.22897   0.72033   0.00000  Uiso   1.00
H1038  H     0.57136   0.22448   0.75787   0.00000  Uiso   1.00
H1039  H     0.60214   0.23017   0.70860   0.00000  Uiso   1.00
H1040  H     0.54741   0.25938   0.71300   0.00000  Uiso   1.00
O1041  O     0.83333   0.10655   0.87291   0.00000  Uiso   1.00
O1042  O     0.83334   0.22678   0.79375   0.00000  Uiso   1.00
O1043  O     0.83333   0.10654   0.79372   0.00000  Uiso   1.00
O1044  O     0.83334   0.22679   0.87294   0.00000  Uiso   1.00
C1045  C     0.83321   0.08751   0.83351   0.00000  Uiso   1.00
C1046  C     0.83346   0.24582   0.83316   0.00000  Uiso   1.00
O1047  O     0.75828   0.16667   0.86379   0.00000  Uiso   1.00
O1048  O     0.90839   0.16666   0.80288   0.00000  Uiso   1.00
O1049  O     0.75828   0.16666   0.78460   0.00000  Uiso   1.00
O1050  O     0.90839   0.16667   0.88207   0.00000  Uiso   1.00
C1051  C     0.73492   0.16662   0.82148   0.00000  Uiso   1.00
C1052  C     0.93175   0.16671   0.84519   0.00000  Uiso   1.00
Cu1053 Cu    0.83333   0.16667   0.88022   0.00000  Uiso   1.00
Cu1054 Cu    0.83333   0.16666   0.78645   0.00000  Uiso   1.00
N1055  N     0.83335   0.16668   0.95069   0.00000  Uiso   1.00
N1056  N     0.83332   0.16666   0.71597   0.00000  Uiso   1.00
C1057  C     0.67975   0.16271   0.81536   0.00000  Uiso   1.00
C1058  C     0.98692   0.17062   0.85130   0.00000  Uiso   1.00
C1059  C     0.85835   0.02320   0.80118   0.00000  Uiso   1.00
C1060  C     0.80831   0.31014   0.86548   0.00000  Uiso   1.00
H1061  H     0.87838   0.04091   0.77649   0.00000  Uiso   1.00
H1062  H     0.78828   0.29242   0.89017   0.00000  Uiso   1.00
C1063  C     0.85827   0.31376   0.80091   0.00000  Uiso   1.00
C1064  C     0.80840   0.01957   0.86575   0.00000  Uiso   1.00
H1065  H     0.87873   0.29905   0.77651   0.00000  Uiso   1.00
H1066  H     0.78793   0.03428   0.89016   0.00000  Uiso   1.00
C1067  C     0.83319   0.29048   0.83297   0.00000  Uiso   1.00
C1068  C     0.83348   0.04285   0.83369   0.00000  Uiso   1.00
C1069  C     0.80521   0.13705   0.68876   0.00000  Uiso   1.00
C1070  C     0.86146   0.19628   0.97791   0.00000  Uiso   1.00
C1071  C     0.80416   0.13739   0.97266   0.00000  Uiso   1.00
C1072  C     0.86251   0.19594   0.69400   0.00000  Uiso   1.00
N1073  N     0.98819   0.14568   0.77195   0.00000  Uiso   1.00
O1074  O     0.99161   0.16576   0.73320   0.00000  Uiso   1.00
O1075  O     0.96699   0.10828   0.77070   0.00000  Uiso   1.00
N1076  N     0.67847   0.18765   0.89472   0.00000  Uiso   1.00
O1077  O     0.67505   0.16758   0.93347   0.00000  Uiso   1.00
O1078  O     0.69967   0.22505   0.89597   0.00000  Uiso   1.00
N1079  N     0.77736   0.10445   0.71012   0.00000  Uiso   1.00
O1080  O     0.79381   0.06736   0.71158   0.00000  Uiso   1.00
O1081  O     0.73015   0.10893   0.71584   0.00000  Uiso   1.00
N1082  N     0.88930   0.22888   0.95655   0.00000  Uiso   1.00
O1083  O     0.87285   0.26597   0.95509   0.00000  Uiso   1.00
O1084  O     0.93651   0.22441   0.95082   0.00000  Uiso   1.00
C1085  C     0.76950   0.10436   0.94634   0.00000  Uiso   1.00
H1086  H     0.76197   0.10885   0.90879   0.00000  Uiso   1.00
H1087  H     0.78592   0.07395   0.95367   0.00000  Uiso   1.00
H1088  H     0.73119   0.10316   0.95807   0.00000  Uiso   1.00
C1089  C     0.89717   0.22897   0.72033   0.00000  Uiso   1.00
H1090  H     0.90469   0.22448   0.75787   0.00000  Uiso   1.00
H1091  H     0.93548   0.23017   0.70860   0.00000  Uiso   1.00
H1092  H     0.88074   0.25938   0.71300   0.00000  Uiso   1.00
O1093  O     0.16666   0.43989   0.87291   0.00000  Uiso   1.00
O1094  O     0.16667   0.56011   0.79375   0.00000  Uiso   1.00
O1095  O     0.16666   0.43988   0.79372   0.00000  Uiso   1.00
O1096  O     0.16667   0.56012   0.87294   0.00000  Uiso   1.00
C1097  C     0.16654   0.42085   0.83351   0.00000  Uiso   1.00
C1098  C     0.16679   0.57915   0.83316   0.00000  Uiso   1.00
O1099  O     0.09161   0.50000   0.86379   0.00000  Uiso   1.00
O1100  O     0.24172   0.50000   0.80288   0.00000  Uiso   1.00
O1101  O     0.09161   0.49999   0.78460   0.00000  Uiso   1.00
O1102  O     0.24172   0.50001   0.88207   0.00000  Uiso   1.00
C1103  C     0.06825   0.49995   0.82148   0.00000  Uiso   1.00
C1104  C     0.26508   0.50005   0.84519   0.00000  Uiso   1.00
Cu1105 Cu    0.16667   0.50001   0.88022   0.00000  Uiso   1.00
Cu1106 Cu    0.16667   0.49999   0.78645   0.00000  Uiso   1.00
N1107  N     0.16668   0.50001   0.95069   0.00000  Uiso   1.00
N1108  N     0.16665   0.49999   0.71597   0.00000  Uiso   1.00
C1109  C     0.01308   0.49604   0.81536   0.00000  Uiso   1.00
C1110  C     0.32025   0.50396   0.85130   0.00000  Uiso   1.00
C1111  C     0.19169   0.35653   0.80118   0.00000  Uiso   1.00
C1112  C     0.14164   0.64347   0.86548   0.00000  Uiso   1.00
H1113  H     0.21172   0.37425   0.77649   0.00000  Uiso   1.00
H1114  H     0.12162   0.62576   0.89017   0.00000  Uiso   1.00
C1115  C     0.19160   0.64709   0.80091   0.00000  Uiso   1.00
C1116  C     0.14173   0.35291   0.86575   0.00000  Uiso   1.00
H1117  H     0.21206   0.63239   0.77651   0.00000  Uiso   1.00
H1118  H     0.12127   0.36761   0.89016   0.00000  Uiso   1.00
C1119  C     0.16652   0.62381   0.83297   0.00000  Uiso   1.00
C1120  C     0.16681   0.37619   0.83369   0.00000  Uiso   1.00
C1121  C     0.13854   0.47038   0.68876   0.00000  Uiso   1.00
C1122  C     0.19479   0.52962   0.97791   0.00000  Uiso   1.00
C1123  C     0.13749   0.47073   0.97266   0.00000  Uiso   1.00
C1124  C     0.19584   0.52928   0.69400   0.00000  Uiso   1.00
N1125  N     0.32153   0.47902   0.77195   0.00000  Uiso   1.00
O1126  O     0.32495   0.49909   0.73320   0.00000  Uiso   1.00
O1127  O     0.30033   0.44161   0.77070   0.00000  Uiso   1.00
N1128  N     0.01181   0.52099   0.89472   0.00000  Uiso   1.00
O1129  O     0.00838   0.50091   0.93347   0.00000  Uiso   1.00
O1130  O     0.03301   0.55839   0.89597   0.00000  Uiso   1.00
N1131  N     0.11069   0.43778   0.71012   0.00000  Uiso   1.00
O1132  O     0.12714   0.40070   0.71158   0.00000  Uiso   1.00
O1133  O     0.06348   0.44226   0.71584   0.00000  Uiso   1.00
N1134  N     0.22264   0.56222   0.95655   0.00000  Uiso   1.00
O1135  O     0.20619   0.59931   0.95509   0.00000  Uiso   1.00
O1136  O     0.26985   0.55774   0.95082   0.00000  Uiso   1.00
C1137  C     0.10283   0.43770   0.94634   0.00000  Uiso   1.00
H1138  H     0.09531   0.44219   0.90879   0.00000  Uiso   1.00
H1139  H     0.11925   0.40728   0.95367   0.00000  Uiso   1.00
H1140  H     0.06452   0.43650   0.95807   0.00000  Uiso   1.00
C1141  C     0.23050   0.56230   0.72033   0.00000  Uiso   1.00
H1142  H     0.23803   0.55781   0.75787   0.00000  Uiso   1.00
H1143  H     0.26881   0.56350   0.70860   0.00000  Uiso   1.00
H1144  H     0.21408   0.59272   0.71300   0.00000  Uiso   1.00
O1145  O     0.50000   0.43989   0.87291   0.00000  Uiso   1.00
O1146  O     0.50000   0.56011   0.79375   0.00000  Uiso   1.00
O1147  O     0.50000   0.43988   0.79372   0.00000  Uiso   1.00
O1148  O     0.50000   0.56012   0.87294   0.00000  Uiso   1.00
C1149  C     0.49988   0.42085   0.83351   0.00000  Uiso   1.00
C1150  C     0.50012   0.57915   0.83316   0.00000  Uiso   1.00
O1151  O     0.42495   0.50000   0.86379   0.00000  Uiso   1.00
O1152  O     0.57505   0.50000   0.80288   0.00000  Uiso   1.00
O1153  O     0.42494   0.49999   0.78460   0.00000  Uiso   1.00
O1154  O     0.57506   0.50001   0.88207   0.00000  Uiso   1.00
C1155  C     0.40158   0.49995   0.82148   0.00000  Uiso   1.00
C1156  C     0.59842   0.50005   0.84519   0.00000  Uiso   1.00
Cu1157 Cu    0.50000   0.50001   0.88022   0.00000  Uiso   1.00
Cu1158 Cu    0.50000   0.49999   0.78645   0.00000  Uiso   1.00
N1159  N     0.50001   0.50001   0.95069   0.00000  Uiso   1.00
N1160  N     0.49999   0.49999   0.71597   0.00000  Uiso   1.00
C1161  C     0.34641   0.49604   0.81536   0.00000  Uiso   1.00
C1162  C     0.65359   0.50396   0.85130   0.00000  Uiso   1.00
C1163  C     0.52502   0.35653   0.80118   0.00000  Uiso   1.00
C1164  C     0.47498   0.64347   0.86548   0.00000  Uiso   1.00
H1165  H     0.54505   0.37425   0.77649   0.00000  Uiso   1.00
H1166  H     0.45495   0.62576   0.89017   0.00000  Uiso   1.00
C1167  C     0.52493   0.64709   0.80091   0.00000  Uiso   1.00
C1168  C     0.47507   0.35291   0.86575   0.00000  Uiso   1.00
H1169  H     0.54540   0.63239   0.77651   0.00000  Uiso   1.00
H1170  H     0.45460   0.36761   0.89016   0.00000  Uiso   1.00
C1171  C     0.49985   0.62381   0.83297   0.00000  Uiso   1.00
C1172  C     0.50015   0.37619   0.83369   0.00000  Uiso   1.00
C1173  C     0.47187   0.47038   0.68876   0.00000  Uiso   1.00
C1174  C     0.52813   0.52962   0.97791   0.00000  Uiso   1.00
C1175  C     0.47083   0.47073   0.97266   0.00000  Uiso   1.00
C1176  C     0.52917   0.52928   0.69400   0.00000  Uiso   1.00
N1177  N     0.65486   0.47902   0.77195   0.00000  Uiso   1.00
O1178  O     0.65828   0.49909   0.73320   0.00000  Uiso   1.00
O1179  O     0.63366   0.44161   0.77070   0.00000  Uiso   1.00
N1180  N     0.34514   0.52099   0.89472   0.00000  Uiso   1.00
O1181  O     0.34172   0.50091   0.93347   0.00000  Uiso   1.00
O1182  O     0.36634   0.55839   0.89597   0.00000  Uiso   1.00
N1183  N     0.44403   0.43778   0.71012   0.00000  Uiso   1.00
O1184  O     0.46048   0.40070   0.71158   0.00000  Uiso   1.00
O1185  O     0.39681   0.44226   0.71584   0.00000  Uiso   1.00
N1186  N     0.55597   0.56222   0.95655   0.00000  Uiso   1.00
O1187  O     0.53952   0.59931   0.95509   0.00000  Uiso   1.00
O1188  O     0.60318   0.55774   0.95082   0.00000  Uiso   1.00
C1189  C     0.43616   0.43770   0.94634   0.00000  Uiso   1.00
H1190  H     0.42864   0.44219   0.90879   0.00000  Uiso   1.00
H1191  H     0.45259   0.40728   0.95367   0.00000  Uiso   1.00
H1192  H     0.39785   0.43650   0.95807   0.00000  Uiso   1.00
C1193  C     0.56384   0.56230   0.72033   0.00000  Uiso   1.00
H1194  H     0.57136   0.55781   0.75787   0.00000  Uiso   1.00
H1195  H     0.60214   0.56350   0.70860   0.00000  Uiso   1.00
H1196  H     0.54741   0.59272   0.71300   0.00000  Uiso   1.00
O1197  O     0.83333   0.43989   0.87291   0.00000  Uiso   1.00
O1198  O     0.83334   0.56011   0.79375   0.00000  Uiso   1.00
O1199  O     0.83333   0.43988   0.79372   0.00000  Uiso   1.00
O1200  O     0.83334   0.56012   0.87294   0.00000  Uiso   1.00
C1201  C     0.83321   0.42085   0.83351   0.00000  Uiso   1.00
C1202  C     0.83346   0.57915   0.83316   0.00000  Uiso   1.00
O1203  O     0.75828   0.50000   0.86379   0.00000  Uiso   1.00
O1204  O     0.90839   0.50000   0.80288   0.00000  Uiso   1.00
O1205  O     0.75828   0.49999   0.78460   0.00000  Uiso   1.00
O1206  O     0.90839   0.50001   0.88207   0.00000  Uiso   1.00
C1207  C     0.73492   0.49995   0.82148   0.00000  Uiso   1.00
C1208  C     0.93175   0.50005   0.84519   0.00000  Uiso   1.00
Cu1209 Cu    0.83333   0.50001   0.88022   0.00000  Uiso   1.00
Cu1210 Cu    0.83333   0.49999   0.78645   0.00000  Uiso   1.00
N1211  N     0.83335   0.50001   0.95069   0.00000  Uiso   1.00
N1212  N     0.83332   0.49999   0.71597   0.00000  Uiso   1.00
C1213  C     0.67975   0.49604   0.81536   0.00000  Uiso   1.00
C1214  C     0.98692   0.50396   0.85130   0.00000  Uiso   1.00
C1215  C     0.85835   0.35653   0.80118   0.00000  Uiso   1.00
C1216  C     0.80831   0.64347   0.86548   0.00000  Uiso   1.00
H1217  H     0.87838   0.37425   0.77649   0.00000  Uiso   1.00
H1218  H     0.78828   0.62576   0.89017   0.00000  Uiso   1.00
C1219  C     0.85827   0.64709   0.80091   0.00000  Uiso   1.00
C1220  C     0.80840   0.35291   0.86575   0.00000  Uiso   1.00
H1221  H     0.87873   0.63239   0.77651   0.00000  Uiso   1.00
H1222  H     0.78793   0.36761   0.89016   0.00000  Uiso   1.00
C1223  C     0.83319   0.62381   0.83297   0.00000  Uiso   1.00
C1224  C     0.83348   0.37619   0.83369   0.00000  Uiso   1.00
C1225  C     0.80521   0.47038   0.68876   0.00000  Uiso   1.00
C1226  C     0.86146   0.52962   0.97791   0.00000  Uiso   1.00
C1227  C     0.80416   0.47073   0.97266   0.00000  Uiso   1.00
C1228  C     0.86251   0.52928   0.69400   0.00000  Uiso   1.00
N1229  N     0.98819   0.47902   0.77195   0.00000  Uiso   1.00
O1230  O     0.99161   0.49909   0.73320   0.00000  Uiso   1.00
O1231  O     0.96699   0.44161   0.77070   0.00000  Uiso   1.00
N1232  N     0.67847   0.52099   0.89472   0.00000  Uiso   1.00
O1233  O     0.67505   0.50091   0.93347   0.00000  Uiso   1.00
O1234  O     0.69967   0.55839   0.89597   0.00000  Uiso   1.00
N1235  N     0.77736   0.43778   0.71012   0.00000  Uiso   1.00
O1236  O     0.79381   0.40070   0.71158   0.00000  Uiso   1.00
O1237  O     0.73015   0.44226   0.71584   0.00000  Uiso   1.00
N1238  N     0.88930   0.56222   0.95655   0.00000  Uiso   1.00
O1239  O     0.87285   0.59931   0.95509   0.00000  Uiso   1.00
O1240  O     0.93651   0.55774   0.95082   0.00000  Uiso   1.00
C1241  C     0.76950   0.43770   0.94634   0.00000  Uiso   1.00
H1242  H     0.76197   0.44219   0.90879   0.00000  Uiso   1.00
H1243  H     0.78592   0.40728   0.95367   0.00000  Uiso   1.00
H1244  H     0.73119   0.43650   0.95807   0.00000  Uiso   1.00
C1245  C     0.89717   0.56230   0.72033   0.00000  Uiso   1.00
H1246  H     0.90469   0.55781   0.75787   0.00000  Uiso   1.00
H1247  H     0.93548   0.56350   0.70860   0.00000  Uiso   1.00
H1248  H     0.88074   0.59272   0.71300   0.00000  Uiso   1.00
O1249  O     0.16666   0.77322   0.87291   0.00000  Uiso   1.00
O1250  O     0.16667   0.89345   0.79375   0.00000  Uiso   1.00
O1251  O     0.16666   0.77321   0.79372   0.00000  Uiso   1.00
O1252  O     0.16667   0.89346   0.87294   0.00000  Uiso   1.00
C1253  C     0.16654   0.75418   0.83351   0.00000  Uiso   1.00
C1254  C     0.16679   0.91249   0.83316   0.00000  Uiso   1.00
O1255  O     0.09161   0.83334   0.86379   0.00000  Uiso   1.00
O1256  O     0.24172   0.83333   0.80288   0.00000  Uiso   1.00
O1257  O     0.09161   0.83333   0.78460   0.00000  Uiso   1.00
O1258  O     0.24172   0.83334   0.88207   0.00000  Uiso   1.00
C1259  C     0.06825   0.83329   0.82148   0.00000  Uiso   1.00
C1260  C     0.26508   0.83338   0.84519   0.00000  Uiso   1.00
Cu1261 Cu    0.16667   0.83334   0.88022   0.00000  Uiso   1.00
Cu1262 Cu    0.16667   0.83333   0.78645   0.00000  Uiso   1.00
N1263  N     0.16668   0.83334   0.95069   0.00000  Uiso   1.00
N1264  N     0.16665   0.83332   0.71597   0.00000  Uiso   1.00
C1265  C     0.01308   0.82938   0.81536   0.00000  Uiso   1.00
C1266  C     0.32025   0.83729   0.85130   0.00000  Uiso   1.00
C1267  C     0.19169   0.68986   0.80118   0.00000  Uiso   1.00
C1268  C     0.14164   0.97680   0.86548   0.00000  Uiso   1.00
H1269  H     0.21172   0.70758   0.77649   0.00000  Uiso   1.00
H1270  H     0.12162   0.95909   0.89017   0.00000  Uiso   1.00
C1271  C     0.19160   0.98043   0.80091   0.00000  Uiso   1.00
C1272  C     0.14173   0.68624   0.86575   0.00000  Uiso   1.00
H1273  H     0.21206   0.96572   0.77651   0.00000  Uiso   1.00
H1274  H     0.12127   0.70095   0.89016   0.00000  Uiso   1.00
C1275  C     0.16652   0.95715   0.83297   0.00000  Uiso   1.00
C1276  C     0.16681   0.70952   0.83369   0.00000  Uiso   1.00
C1277  C     0.13854   0.80372   0.68876   0.00000  Uiso   1.00
C1278  C     0.19479   0.86295   0.97791   0.00000  Uiso   1.00
C1279  C     0.13749   0.80406   0.97266   0.00000  Uiso   1.00
C1280  C     0.19584   0.86261   0.69400   0.00000  Uiso   1.00
N1281  N     0.32153   0.81235   0.77195   0.00000  Uiso   1.00
O1282  O     0.32495   0.83242   0.73320   0.00000  Uiso   1.00
O1283  O     0.30033   0.77495   0.77070   0.00000  Uiso   1.00
N1284  N     0.01181   0.85432   0.89472   0.00000  Uiso   1.00
O1285  O     0.00838   0.83425   0.93347   0.00000  Uiso   1.00
O1286  O     0.03301   0.89172   0.89597   0.00000  Uiso   1.00
N1287  N     0.11069   0.77112   0.71012   0.00000  Uiso   1.00
O1288  O     0.12714   0.73403   0.71158   0.00000  Uiso   1.00
O1289  O     0.06348   0.77559   0.71584   0.00000  Uiso   1.00
N1290  N     0.22264   0.89555   0.95655   0.00000  Uiso   1.00
O1291  O     0.20619   0.93264   0.95509   0.00000  Uiso   1.00
O1292  O     0.26985   0.89107   0.95082   0.00000  Uiso   1.00
C1293  C     0.10283   0.77103   0.94634   0.00000  Uiso   1.00
H1294  H     0.09531   0.77552   0.90879   0.00000  Uiso   1.00
H1295  H     0.11925   0.74062   0.95367   0.00000  Uiso   1.00
H1296  H     0.06452   0.76983   0.95807   0.00000  Uiso   1.00
C1297  C     0.23050   0.89564   0.72033   0.00000  Uiso   1.00
H1298  H     0.23803   0.89115   0.75787   0.00000  Uiso   1.00
H1299  H     0.26881   0.89684   0.70860   0.00000  Uiso   1.00
H1300  H     0.21408   0.92605   0.71300   0.00000  Uiso   1.00
O1301  O     0.50000   0.77322   0.87291   0.00000  Uiso   1.00
O1302  O     0.50000   0.89345   0.79375   0.00000  Uiso   1.00
O1303  O     0.50000   0.77321   0.79372   0.00000  Uiso   1.00
O1304  O     0.50000   0.89346   0.87294   0.00000  Uiso   1.00
C1305  C     0.49988   0.75418   0.83351   0.00000  Uiso   1.00
C1306  C     0.50012   0.91249   0.83316   0.00000  Uiso   1.00
O1307  O     0.42495   0.83334   0.86379   0.00000  Uiso   1.00
O1308  O     0.57505   0.83333   0.80288   0.00000  Uiso   1.00
O1309  O     0.42494   0.83333   0.78460   0.00000  Uiso   1.00
O1310  O     0.57506   0.83334   0.88207   0.00000  Uiso   1.00
C1311  C     0.40158   0.83329   0.82148   0.00000  Uiso   1.00
C1312  C     0.59842   0.83338   0.84519   0.00000  Uiso   1.00
Cu1313 Cu    0.50000   0.83334   0.88022   0.00000  Uiso   1.00
Cu1314 Cu    0.50000   0.83333   0.78645   0.00000  Uiso   1.00
N1315  N     0.50001   0.83334   0.95069   0.00000  Uiso   1.00
N1316  N     0.49999   0.83332   0.71597   0.00000  Uiso   1.00
C1317  C     0.34641   0.82938   0.81536   0.00000  Uiso   1.00
C1318  C     0.65359   0.83729   0.85130   0.00000  Uiso   1.00
C1319  C     0.52502   0.68986   0.80118   0.00000  Uiso   1.00
C1320  C     0.47498   0.97680   0.86548   0.00000  Uiso   1.00
H1321  H     0.54505   0.70758   0.77649   0.00000  Uiso   1.00
H1322  H     0.45495   0.95909   0.89017   0.00000  Uiso   1.00
C1323  C     0.52493   0.98043   0.80091   0.00000  Uiso   1.00
C1324  C     0.47507   0.68624   0.86575   0.00000  Uiso   1.00
H1325  H     0.54540   0.96572   0.77651   0.00000  Uiso   1.00
H1326  H     0.45460   0.70095   0.89016   0.00000  Uiso   1.00
C1327  C     0.49985   0.95715   0.83297   0.00000  Uiso   1.00
C1328  C     0.50015   0.70952   0.83369   0.00000  Uiso   1.00
C1329  C     0.47187   0.80372   0.68876   0.00000  Uiso   1.00
C1330  C     0.52813   0.86295   0.97791   0.00000  Uiso   1.00
C1331  C     0.47083   0.80406   0.97266   0.00000  Uiso   1.00
C1332  C     0.52917   0.86261   0.69400   0.00000  Uiso   1.00
N1333  N     0.65486   0.81235   0.77195   0.00000  Uiso   1.00
O1334  O     0.65828   0.83242   0.73320   0.00000  Uiso   1.00
O1335  O     0.63366   0.77495   0.77070   0.00000  Uiso   1.00
N1336  N     0.34514   0.85432   0.89472   0.00000  Uiso   1.00
O1337  O     0.34172   0.83425   0.93347   0.00000  Uiso   1.00
O1338  O     0.36634   0.89172   0.89597   0.00000  Uiso   1.00
N1339  N     0.44403   0.77112   0.71012   0.00000  Uiso   1.00
O1340  O     0.46048   0.73403   0.71158   0.00000  Uiso   1.00
O1341  O     0.39681   0.77559   0.71584   0.00000  Uiso   1.00
N1342  N     0.55597   0.89555   0.95655   0.00000  Uiso   1.00
O1343  O     0.53952   0.93264   0.95509   0.00000  Uiso   1.00
O1344  O     0.60318   0.89107   0.95082   0.00000  Uiso   1.00
C1345  C     0.43616   0.77103   0.94634   0.00000  Uiso   1.00
H1346  H     0.42864   0.77552   0.90879   0.00000  Uiso   1.00
H1347  H     0.45259   0.74062   0.95367   0.00000  Uiso   1.00
H1348  H     0.39785   0.76983   0.95807   0.00000  Uiso   1.00
C1349  C     0.56384   0.89564   0.72033   0.00000  Uiso   1.00
H1350  H     0.57136   0.89115   0.75787   0.00000  Uiso   1.00
H1351  H     0.60214   0.89684   0.70860   0.00000  Uiso   1.00
H1352  H     0.54741   0.92605   0.71300   0.00000  Uiso   1.00
O1353  O     0.83333   0.77322   0.87291   0.00000  Uiso   1.00
O1354  O     0.83334   0.89345   0.79375   0.00000  Uiso   1.00
O1355  O     0.83333   0.77321   0.79372   0.00000  Uiso   1.00
O1356  O     0.83334   0.89346   0.87294   0.00000  Uiso   1.00
C1357  C     0.83321   0.75418   0.83351   0.00000  Uiso   1.00
C1358  C     0.83346   0.91249   0.83316   0.00000  Uiso   1.00
O1359  O     0.75828   0.83334   0.86379   0.00000  Uiso   1.00
O1360  O     0.90839   0.83333   0.80288   0.00000  Uiso   1.00
O1361  O     0.75828   0.83333   0.78460   0.00000  Uiso   1.00
O1362  O     0.90839   0.83334   0.88207   0.00000  Uiso   1.00
C1363  C     0.73492   0.83329   0.82148   0.00000  Uiso   1.00
C1364  C     0.93175   0.83338   0.84519   0.00000  Uiso   1.00
Cu1365 Cu    0.83333   0.83334   0.88022   0.00000  Uiso   1.00
Cu1366 Cu    0.83333   0.83333   0.78645   0.00000  Uiso   1.00
N1367  N     0.83335   0.83334   0.95069   0.00000  Uiso   1.00
N1368  N     0.83332   0.83332   0.71597   0.00000  Uiso   1.00
C1369  C     0.67975   0.82938   0.81536   0.00000  Uiso   1.00
C1370  C     0.98692   0.83729   0.85130   0.00000  Uiso   1.00
C1371  C     0.85835   0.68986   0.80118   0.00000  Uiso   1.00
C1372  C     0.80831   0.97680   0.86548   0.00000  Uiso   1.00
H1373  H     0.87838   0.70758   0.77649   0.00000  Uiso   1.00
H1374  H     0.78828   0.95909   0.89017   0.00000  Uiso   1.00
C1375  C     0.85827   0.98043   0.80091   0.00000  Uiso   1.00
C1376  C     0.80840   0.68624   0.86575   0.00000  Uiso   1.00
H1377  H     0.87873   0.96572   0.77651   0.00000  Uiso   1.00
H1378  H     0.78793   0.70095   0.89016   0.00000  Uiso   1.00
C1379  C     0.83319   0.95715   0.83297   0.00000  Uiso   1.00
C1380  C     0.83348   0.70952   0.83369   0.00000  Uiso   1.00
C1381  C     0.80521   0.80372   0.68876   0.00000  Uiso   1.00
C1382  C     0.86146   0.86295   0.97791   0.00000  Uiso   1.00
C1383  C     0.80416   0.80406   0.97266   0.00000  Uiso   1.00
C1384  C     0.86251   0.86261   0.69400   0.00000  Uiso   1.00
N1385  N     0.98819   0.81235   0.77195   0.00000  Uiso   1.00
O1386  O     0.99161   0.83242   0.73320   0.00000  Uiso   1.00
O1387  O     0.96699   0.77495   0.77070   0.00000  Uiso   1.00
N1388  N     0.67847   0.85432   0.89472   0.00000  Uiso   1.00
O1389  O     0.67505   0.83425   0.93347   0.00000  Uiso   1.00
O1390  O     0.69967   0.89172   0.89597   0.00000  Uiso   1.00
N1391  N     0.77736   0.77112   0.71012   0.00000  Uiso   1.00
O1392  O     0.79381   0.73403   0.71158   0.00000  Uiso   1.00
O1393  O     0.73015   0.77559   0.71584   0.00000  Uiso   1.00
N1394  N     0.88930   0.89555   0.95655   0.00000  Uiso   1.00
O1395  O     0.87285   0.93264   0.95509   0.00000  Uiso   1.00
O1396  O     0.93651   0.89107   0.95082   0.00000  Uiso   1.00
C1397  C     0.76950   0.77103   0.94634   0.00000  Uiso   1.00
H1398  H     0.76197   0.77552   0.90879   0.00000  Uiso   1.00
H1399  H     0.78592   0.74062   0.95367   0.00000  Uiso   1.00
H1400  H     0.73119   0.76983   0.95807   0.00000  Uiso   1.00
C1401  C     0.89717   0.89564   0.72033   0.00000  Uiso   1.00
H1402  H     0.90469   0.89115   0.75787   0.00000  Uiso   1.00
H1403  H     0.93548   0.89684   0.70860   0.00000  Uiso   1.00
H1404  H     0.88074   0.92605   0.71300   0.00000  Uiso   1.00
loop_
_geom_bond_atom_site_label_1
_geom_bond_atom_site_label_2
_geom_bond_distance
_geom_bond_site_symmetry_2
_ccdc_geom_bond_type
O1     C5      1.304   .     A
O1     Cu13    1.961   .     S
O2     C6      1.304   .     A
O2     Cu14    1.961   .     S
O3     C5      1.300   .     A
O3     Cu14    1.956   .     S
O4     C6      1.300   .     A
O4     Cu13    1.956   .     S
C5     C28     1.447   .     S
C6     C27     1.447   .     S
O7     C11     1.296   .     A
O7     Cu13    1.978   .     S
O8     C12     1.296   .     A
O8     Cu14    1.978   .     S
O9     Cu14    1.979   .     S
O9     C11     1.304   .     A
O10    C12     1.304   .     A
O10    Cu13    1.979   .     S
C11    C17     1.444   .     S
C12    C18     1.444   .     S
Cu13   N15     2.041   .     S
Cu13   Cu14    2.716   .     S
Cu14   N16     2.041   .     S
N15    C31     1.387   .     A
N15    C30     1.366   .     A
N16    C32     1.387   .     A
N16    C29     1.366   .     A
C17    C122    1.360   1_455 S
C17    N137    1.439   1_455 S
C18    C69     1.360   .     S
C18    N88     1.439   .     S
C19    C28     1.400   .     A
C19    H21     1.084   .     S
C19    C335    1.385   1_545 S
C20    C27     1.400   .     A
C20    H22     1.084   .     S
C20    C180    1.385   .     S
C23    C27     1.398   .     A
C23    H25     1.078   .     S
C23    C175    1.385   .     S
C24    C28     1.398   .     A
C24    H26     1.078   .     S
C24    C332    1.385   1_545 S
C29    N39     1.431   .     S
C29    C967    1.428   1_554 S
C30    N42     1.431   .     S
C30    C500    1.428   .     S
C31    C45     1.509   .     S
C31    C497    1.428   .     S
C32    C49     1.509   .     S
C32    C966    1.428   1_554 S
N33    O34     1.301   .     A
N33    O35     1.302   .     A
N33    C69     1.439   .     S
N36    O38     1.302   .     A
N36    O37     1.301   .     A
N36    C122    1.439   1_455 S
N39    O41     1.299   .     A
N39    O40     1.301   .     A
N42    O44     1.299   .     A
N42    O43     1.301   .     A
C45    H46     1.089   .     S
C45    H47     1.108   .     S
C45    H48     1.109   .     S
C49    H52     1.108   .     S
C49    H50     1.089   .     S
C49    H51     1.109   .     S
O53    C57     1.304   .     A
O53    Cu65    1.961   .     S
O54    C58     1.304   .     A
O54    Cu66    1.961   .     S
O55    C57     1.300   .     A
O55    Cu66    1.956   .     S
O56    C58     1.300   .     A
O56    Cu65    1.956   .     S
C57    C80     1.447   .     S
C58    C79     1.447   .     S
O59    C63     1.296   .     A
O59    Cu65    1.978   .     S
O60    C64     1.296   .     A
O60    Cu66    1.978   .     S
O61    Cu66    1.979   .     S
O61    C63     1.304   .     A
O62    C64     1.304   .     A
O62    Cu65    1.979   .     S
C63    C69     1.444   .     S
C64    C70     1.444   .     S
Cu65   N67     2.041   .     S
Cu65   Cu66    2.716   .     S
Cu66   N68     2.041   .     S
N67    C83     1.387   .     A
N67    C82     1.366   .     A
N68    C84     1.387   .     A
N68    C81     1.366   .     A
C70    C121    1.360   .     S
C70    N140    1.439   .     S
C71    C80     1.400   .     A
C71    H73     1.084   .     S
C71    C387    1.385   1_545 S
C72    C79     1.400   .     A
C72    H74     1.084   .     S
C72    C232    1.385   .     S
C75    C79     1.398   .     A
C75    H77     1.078   .     S
C75    C227    1.385   .     S
C76    C80     1.398   .     A
C76    H78     1.078   .     S
C76    C384    1.385   1_545 S
C81    N91     1.431   .     S
C81    C1019   1.428   1_554 S
C82    N94     1.431   .     S
C82    C552    1.428   .     S
C83    C97     1.509   .     S
C83    C549    1.428   .     S
C84    C101    1.509   .     S
C84    C1018   1.428   1_554 S
N85    O86     1.301   .     A
N85    O87     1.302   .     A
N85    C121    1.439   .     S
N88    O90     1.302   .     A
N88    O89     1.301   .     A
N91    O93     1.299   .     A
N91    O92     1.301   .     A
N94    O96     1.299   .     A
N94    O95     1.301   .     A
C97    H98     1.089   .     S
C97    H99     1.108   .     S
C97    H100    1.109   .     S
C101   H104    1.108   .     S
C101   H102    1.089   .     S
C101   H103    1.109   .     S
O105   C109    1.304   .     A
O105   Cu117   1.961   .     S
O106   C110    1.304   .     A
O106   Cu118   1.961   .     S
O107   C109    1.300   .     A
O107   Cu118   1.956   .     S
O108   C110    1.300   .     A
O108   Cu117   1.956   .     S
C109   C132    1.447   .     S
C110   C131    1.447   .     S
O111   C115    1.296   .     A
O111   Cu117   1.978   .     S
O112   C116    1.296   .     A
O112   Cu118   1.978   .     S
O113   Cu118   1.979   .     S
O113   C115    1.304   .     A
O114   C116    1.304   .     A
O114   Cu117   1.979   .     S
C115   C121    1.444   .     S
C116   C122    1.444   .     S
Cu117  N119    2.041   .     S
Cu117  Cu118   2.716   .     S
Cu118  N120    2.041   .     S
N119   C135    1.387   .     A
N119   C134    1.366   .     A
N120   C136    1.387   .     A
N120   C133    1.366   .     A
C122   C17     1.360   1_655 S
C122   N36     1.439   1_655 S
C123   C132    1.400   .     A
C123   H125    1.084   .     S
C123   C439    1.385   1_545 S
C124   C131    1.400   .     A
C124   H126    1.084   .     S
C124   C284    1.385   .     S
C127   C131    1.398   .     A
C127   H129    1.078   .     S
C127   C279    1.385   .     S
C128   C132    1.398   .     A
C128   H130    1.078   .     S
C128   C436    1.385   1_545 S
C133   N143    1.431   .     S
C133   C1071   1.428   1_554 S
C134   N146    1.431   .     S
C134   C604    1.428   .     S
C135   C149    1.509   .     S
C135   C601    1.428   .     S
C136   C153    1.509   .     S
C136   C1070   1.428   1_554 S
N137   O138    1.301   .     A
N137   O139    1.302   .     A
N137   C17     1.439   1_655 S
N140   O142    1.302   .     A
N140   O141    1.301   .     A
N143   O145    1.299   .     A
N143   O144    1.301   .     A
N146   O148    1.299   .     A
N146   O147    1.301   .     A
C149   H150    1.089   .     S
C149   H151    1.108   .     S
C149   H152    1.109   .     S
C153   H156    1.108   .     S
C153   H154    1.089   .     S
C153   H155    1.109   .     S
O157   C161    1.304   .     A
O157   Cu169   1.961   .     S
O158   C162    1.304   .     A
O158   Cu170   1.961   .     S
O159   C161    1.300   .     A
O159   Cu170   1.956   .     S
O160   C162    1.300   .     A
O160   Cu169   1.956   .     S
C161   C184    1.447   .     S
C162   C183    1.447   .     S
O163   C167    1.296   .     A
O163   Cu169   1.978   .     S
O164   C168    1.296   .     A
O164   Cu170   1.978   .     S
O165   Cu170   1.979   .     S
O165   C167    1.304   .     A
O166   C168    1.304   .     A
O166   Cu169   1.979   .     S
C167   C173    1.444   .     S
C168   C174    1.444   .     S
Cu169  N171    2.041   .     S
Cu169  Cu170   2.716   .     S
Cu170  N172    2.041   .     S
N171   C187    1.387   .     A
N171   C186    1.366   .     A
N172   C188    1.387   .     A
N172   C185    1.366   .     A
C173   C278    1.360   1_455 S
C173   N293    1.439   1_455 S
C174   C225    1.360   .     S
C174   N244    1.439   .     S
C175   C184    1.400   .     A
C175   H177    1.084   .     S
C176   C183    1.400   .     A
C176   H178    1.084   .     S
C176   C336    1.385   .     S
C179   C183    1.398   .     A
C179   H181    1.078   .     S
C179   C331    1.385   .     S
C180   C184    1.398   .     A
C180   H182    1.078   .     S
C185   N195    1.431   .     S
C185   C1123   1.428   1_554 S
C186   N198    1.431   .     S
C186   C656    1.428   .     S
C187   C201    1.509   .     S
C187   C653    1.428   .     S
C188   C205    1.509   .     S
C188   C1122   1.428   1_554 S
N189   O190    1.301   .     A
N189   O191    1.302   .     A
N189   C225    1.439   .     S
N192   O194    1.302   .     A
N192   O193    1.301   .     A
N192   C278    1.439   1_455 S
N195   O197    1.299   .     A
N195   O196    1.301   .     A
N198   O200    1.299   .     A
N198   O199    1.301   .     A
C201   H202    1.089   .     S
C201   H203    1.108   .     S
C201   H204    1.109   .     S
C205   H208    1.108   .     S
C205   H206    1.089   .     S
C205   H207    1.109   .     S
O209   C213    1.304   .     A
O209   Cu221   1.961   .     S
O210   C214    1.304   .     A
O210   Cu222   1.961   .     S
O211   C213    1.300   .     A
O211   Cu222   1.956   .     S
O212   C214    1.300   .     A
O212   Cu221   1.956   .     S
C213   C236    1.447   .     S
C214   C235    1.447   .     S
O215   C219    1.296   .     A
O215   Cu221   1.978   .     S
O216   C220    1.296   .     A
O216   Cu222   1.978   .     S
O217   Cu222   1.979   .     S
O217   C219    1.304   .     A
O218   C220    1.304   .     A
O218   Cu221   1.979   .     S
C219   C225    1.444   .     S
C220   C226    1.444   .     S
Cu221  N223    2.041   .     S
Cu221  Cu222   2.716   .     S
Cu222  N224    2.041   .     S
N223   C239    1.387   .     A
N223   C238    1.366   .     A
N224   C240    1.387   .     A
N224   C237    1.366   .     A
C226   C277    1.360   .     S
C226   N296    1.439   .     S
C227   C236    1.400   .     A
C227   H229    1.084   .     S
C228   C235    1.400   .     A
C228   H230    1.084   .     S
C228   C388    1.385   .     S
C231   C235    1.398   .     A
C231   H233    1.078   .     S
C231   C383    1.385   .     S
C232   C236    1.398   .     A
C232   H234    1.078   .     S
C237   N247    1.431   .     S
C237   C1175   1.428   1_554 S
C238   N250    1.431   .     S
C238   C708    1.428   .     S
C239   C253    1.509   .     S
C239   C705    1.428   .     S
C240   C257    1.509   .     S
C240   C1174   1.428   1_554 S
N241   O242    1.301   .     A
N241   O243    1.302   .     A
N241   C277    1.439   .     S
N244   O246    1.302   .     A
N244   O245    1.301   .     A
N247   O249    1.299   .     A
N247   O248    1.301   .     A
N250   O252    1.299   .     A
N250   O251    1.301   .     A
C253   H254    1.089   .     S
C253   H255    1.108   .     S
C253   H256    1.109   .     S
C257   H260    1.108   .     S
C257   H258    1.089   .     S
C257   H259    1.109   .     S
O261   C265    1.304   .     A
O261   Cu273   1.961   .     S
O262   C266    1.304   .     A
O262   Cu274   1.961   .     S
O263   C265    1.300   .     A
O263   Cu274   1.956   .     S
O264   C266    1.300   .     A
O264   Cu273   1.956   .     S
C265   C288    1.447   .     S
C266   C287    1.447   .     S
O267   C271    1.296   .     A
O267   Cu273   1.978   .     S
O268   C272    1.296   .     A
O268   Cu274   1.978   .     S
O269   Cu274   1.979   .     S
O269   C271    1.304   .     A
O270   C272    1.304   .     A
O270   Cu273   1.979   .     S
C271   C277    1.444   .     S
C272   C278    1.444   .     S
Cu273  N275    2.041   .     S
Cu273  Cu274   2.716   .     S
Cu274  N276    2.041   .     S
N275   C291    1.387   .     A
N275   C290    1.366   .     A
N276   C292    1.387   .     A
N276   C289    1.366   .     A
C278   C173    1.360   1_655 S
C278   N192    1.439   1_655 S
C279   C288    1.400   .     A
C279   H281    1.084   .     S
C280   C287    1.400   .     A
C280   H282    1.084   .     S
C280   C440    1.385   .     S
C283   C287    1.398   .     A
C283   H285    1.078   .     S
C283   C435    1.385   .     S
C284   C288    1.398   .     A
C284   H286    1.078   .     S
C289   N299    1.431   .     S
C289   C1227   1.428   1_554 S
C290   N302    1.431   .     S
C290   C760    1.428   .     S
C291   C305    1.509   .     S
C291   C757    1.428   .     S
C292   C309    1.509   .     S
C292   C1226   1.428   1_554 S
N293   O294    1.301   .     A
N293   O295    1.302   .     A
N293   C173    1.439   1_655 S
N296   O298    1.302   .     A
N296   O297    1.301   .     A
N299   O301    1.299   .     A
N299   O300    1.301   .     A
N302   O304    1.299   .     A
N302   O303    1.301   .     A
C305   H306    1.089   .     S
C305   H307    1.108   .     S
C305   H308    1.109   .     S
C309   H312    1.108   .     S
C309   H310    1.089   .     S
C309   H311    1.109   .     S
O313   C317    1.304   .     A
O313   Cu325   1.961   .     S
O314   C318    1.304   .     A
O314   Cu326   1.961   .     S
O315   C317    1.300   .     A
O315   Cu326   1.956   .     S
O316   C318    1.300   .     A
O316   Cu325   1.956   .     S
C317   C340    1.447   .     S
C318   C339    1.447   .     S
O319   C323    1.296   .     A
O319   Cu325   1.978   .     S
O320   C324    1.296   .     A
O320   Cu326   1.978   .     S
O321   Cu326   1.979   .     S
O321   C323    1.304   .     A
O322   C324    1.304   .     A
O322   Cu325   1.979   .     S
C323   C329    1.444   .     S
C324   C330    1.444   .     S
Cu325  N327    2.041   .     S
Cu325  Cu326   2.716   .     S
Cu326  N328    2.041   .     S
N327   C343    1.387   .     A
N327   C342    1.366   .     A
N328   C344    1.387   .     A
N328   C341    1.366   .     A
C329   C434    1.360   1_455 S
C329   N449    1.439   1_455 S
C330   C381    1.360   .     S
C330   N400    1.439   .     S
C331   C340    1.400   .     A
C331   H333    1.084   .     S
C332   C339    1.400   .     A
C332   H334    1.084   .     S
C332   C24     1.385   1_565 S
C335   C339    1.398   .     A
C335   H337    1.078   .     S
C335   C19     1.385   1_565 S
C336   C340    1.398   .     A
C336   H338    1.078   .     S
C341   N351    1.431   .     S
C341   C1279   1.428   1_554 S
C342   N354    1.431   .     S
C342   C812    1.428   .     S
C343   C357    1.509   .     S
C343   C809    1.428   .     S
C344   C361    1.509   .     S
C344   C1278   1.428   1_554 S
N345   O346    1.301   .     A
N345   O347    1.302   .     A
N345   C381    1.439   .     S
N348   O350    1.302   .     A
N348   O349    1.301   .     A
N348   C434    1.439   1_455 S
N351   O353    1.299   .     A
N351   O352    1.301   .     A
N354   O356    1.299   .     A
N354   O355    1.301   .     A
C357   H358    1.089   .     S
C357   H359    1.108   .     S
C357   H360    1.109   .     S
C361   H364    1.108   .     S
C361   H362    1.089   .     S
C361   H363    1.109   .     S
O365   C369    1.304   .     A
O365   Cu377   1.961   .     S
O366   C370    1.304   .     A
O366   Cu378   1.961   .     S
O367   C369    1.300   .     A
O367   Cu378   1.956   .     S
O368   C370    1.300   .     A
O368   Cu377   1.956   .     S
C369   C392    1.447   .     S
C370   C391    1.447   .     S
O371   C375    1.296   .     A
O371   Cu377   1.978   .     S
O372   C376    1.296   .     A
O372   Cu378   1.978   .     S
O373   Cu378   1.979   .     S
O373   C375    1.304   .     A
O374   C376    1.304   .     A
O374   Cu377   1.979   .     S
C375   C381    1.444   .     S
C376   C382    1.444   .     S
Cu377  N379    2.041   .     S
Cu377  Cu378   2.716   .     S
Cu378  N380    2.041   .     S
N379   C395    1.387   .     A
N379   C394    1.366   .     A
N380   C396    1.387   .     A
N380   C393    1.366   .     A
C382   C433    1.360   .     S
C382   N452    1.439   .     S
C383   C392    1.400   .     A
C383   H385    1.084   .     S
C384   C391    1.400   .     A
C384   H386    1.084   .     S
C384   C76     1.385   1_565 S
C387   C391    1.398   .     A
C387   H389    1.078   .     S
C387   C71     1.385   1_565 S
C388   C392    1.398   .     A
C388   H390    1.078   .     S
C393   N403    1.431   .     S
C393   C1331   1.428   1_554 S
C394   N406    1.431   .     S
C394   C864    1.428   .     S
C395   C409    1.509   .     S
C395   C861    1.428   .     S
C396   C413    1.509   .     S
C396   C1330   1.428   1_554 S
N397   O398    1.301   .     A
N397   O399    1.302   .     A
N397   C433    1.439   .     S
N400   O402    1.302   .     A
N400   O401    1.301   .     A
N403   O405    1.299   .     A
N403   O404    1.301   .     A
N406   O408    1.299   .     A
N406   O407    1.301   .     A
C409   H410    1.089   .     S
C409   H411    1.108   .     S
C409   H412    1.109   .     S
C413   H416    1.108   .     S
C413   H414    1.089   .     S
C413   H415    1.109   .     S
O417   C421    1.304   .     A
O417   Cu429   1.961   .     S
O418   C422    1.304   .     A
O418   Cu430   1.961   .     S
O419   C421    1.300   .     A
O419   Cu430   1.956   .     S
O420   C422    1.300   .     A
O420   Cu429   1.956   .     S
C421   C444    1.447   .     S
C422   C443    1.447   .     S
O423   C427    1.296   .     A
O423   Cu429   1.978   .     S
O424   C428    1.296   .     A
O424   Cu430   1.978   .     S
O425   Cu430   1.979   .     S
O425   C427    1.304   .     A
O426   C428    1.304   .     A
O426   Cu429   1.979   .     S
C427   C433    1.444   .     S
C428   C434    1.444   .     S
Cu429  N431    2.041   .     S
Cu429  Cu430   2.716   .     S
Cu430  N432    2.041   .     S
N431   C447    1.387   .     A
N431   C446    1.366   .     A
N432   C448    1.387   .     A
N432   C445    1.366   .     A
C434   C329    1.360   1_655 S
C434   N348    1.439   1_655 S
C435   C444    1.400   .     A
C435   H437    1.084   .     S
C436   C443    1.400   .     A
C436   H438    1.084   .     S
C436   C128    1.385   1_565 S
C439   C443    1.398   .     A
C439   H441    1.078   .     S
C439   C123    1.385   1_565 S
C440   C444    1.398   .     A
C440   H442    1.078   .     S
C445   N455    1.431   .     S
C445   C1383   1.428   1_554 S
C446   N458    1.431   .     S
C446   C916    1.428   .     S
C447   C461    1.509   .     S
C447   C913    1.428   .     S
C448   C465    1.509   .     S
C448   C1382   1.428   1_554 S
N449   O450    1.301   .     A
N449   O451    1.302   .     A
N449   C329    1.439   1_655 S
N452   O454    1.302   .     A
N452   O453    1.301   .     A
N455   O457    1.299   .     A
N455   O456    1.301   .     A
N458   O460    1.299   .     A
N458   O459    1.301   .     A
C461   H462    1.089   .     S
C461   H463    1.108   .     S
C461   H464    1.109   .     S
C465   H468    1.108   .     S
C465   H466    1.089   .     S
C465   H467    1.109   .     S
O469   C473    1.304   .     A
O469   Cu481   1.961   .     S
O470   C474    1.304   .     A
O470   Cu482   1.961   .     S
O471   C473    1.300   .     A
O471   Cu482   1.956   .     S
O472   C474    1.300   .     A
O472   Cu481   1.956   .     S
C473   C496    1.447   .     S
C474   C495    1.447   .     S
O475   C479    1.296   .     A
O475   Cu481   1.978   .     S
O476   C480    1.296   .     A
O476   Cu482   1.978   .     S
O477   Cu482   1.979   .     S
O477   C479    1.304   .     A
O478   C480    1.304   .     A
O478   Cu481   1.979   .     S
C479   C485    1.444   .     S
C480   C486    1.444   .     S
Cu481  N483    2.041   .     S
Cu481  Cu482   2.716   .     S
Cu482  N484    2.041   .     S
N483   C499    1.387   .     A
N483   C498    1.366   .     A
N484   C500    1.387   .     A
N484   C497    1.366   .     A
C485   C590    1.360   1_455 S
C485   N605    1.439   1_455 S
C486   C537    1.360   .     S
C486   N556    1.439   .     S
C487   C496    1.400   .     A
C487   H489    1.084   .     S
C487   C803    1.385   1_545 S
C488   C495    1.400   .     A
C488   H490    1.084   .     S
C488   C648    1.385   .     S
C491   C495    1.398   .     A
C491   H493    1.078   .     S
C491   C643    1.385   .     S
C492   C496    1.398   .     A
C492   H494    1.078   .     S
C492   C800    1.385   1_545 S
C497   N507    1.431   .     S
C498   N510    1.431   .     S
C498   C968    1.428   .     S
C499   C513    1.509   .     S
C499   C965    1.428   .     S
C500   C517    1.509   .     S
N501   O502    1.301   .     A
N501   O503    1.302   .     A
N501   C537    1.439   .     S
N504   O506    1.302   .     A
N504   O505    1.301   .     A
N504   C590    1.439   1_455 S
N507   O509    1.299   .     A
N507   O508    1.301   .     A
N510   O512    1.299   .     A
N510   O511    1.301   .     A
C513   H514    1.089   .     S
C513   H515    1.108   .     S
C513   H516    1.109   .     S
C517   H520    1.108   .     S
C517   H518    1.089   .     S
C517   H519    1.109   .     S
O521   C525    1.304   .     A
O521   Cu533   1.961   .     S
O522   C526    1.304   .     A
O522   Cu534   1.961   .     S
O523   C525    1.300   .     A
O523   Cu534   1.956   .     S
O524   C526    1.300   .     A
O524   Cu533   1.956   .     S
C525   C548    1.447   .     S
C526   C547    1.447   .     S
O527   C531    1.296   .     A
O527   Cu533   1.978   .     S
O528   C532    1.296   .     A
O528   Cu534   1.978   .     S
O529   Cu534   1.979   .     S
O529   C531    1.304   .     A
O530   C532    1.304   .     A
O530   Cu533   1.979   .     S
C531   C537    1.444   .     S
C532   C538    1.444   .     S
Cu533  N535    2.041   .     S
Cu533  Cu534   2.716   .     S
Cu534  N536    2.041   .     S
N535   C551    1.387   .     A
N535   C550    1.366   .     A
N536   C552    1.387   .     A
N536   C549    1.366   .     A
C538   C589    1.360   .     S
C538   N608    1.439   .     S
C539   C548    1.400   .     A
C539   H541    1.084   .     S
C539   C855    1.385   1_545 S
C540   C547    1.400   .     A
C540   H542    1.084   .     S
C540   C700    1.385   .     S
C543   C547    1.398   .     A
C543   H545    1.078   .     S
C543   C695    1.385   .     S
C544   C548    1.398   .     A
C544   H546    1.078   .     S
C544   C852    1.385   1_545 S
C549   N559    1.431   .     S
C550   N562    1.431   .     S
C550   C1020   1.428   .     S
C551   C565    1.509   .     S
C551   C1017   1.428   .     S
C552   C569    1.509   .     S
N553   O554    1.301   .     A
N553   O555    1.302   .     A
N553   C589    1.439   .     S
N556   O558    1.302   .     A
N556   O557    1.301   .     A
N559   O561    1.299   .     A
N559   O560    1.301   .     A
N562   O564    1.299   .     A
N562   O563    1.301   .     A
C565   H566    1.089   .     S
C565   H567    1.108   .     S
C565   H568    1.109   .     S
C569   H572    1.108   .     S
C569   H570    1.089   .     S
C569   H571    1.109   .     S
O573   C577    1.304   .     A
O573   Cu585   1.961   .     S
O574   C578    1.304   .     A
O574   Cu586   1.961   .     S
O575   C577    1.300   .     A
O575   Cu586   1.956   .     S
O576   C578    1.300   .     A
O576   Cu585   1.956   .     S
C577   C600    1.447   .     S
C578   C599    1.447   .     S
O579   C583    1.296   .     A
O579   Cu585   1.978   .     S
O580   C584    1.296   .     A
O580   Cu586   1.978   .     S
O581   Cu586   1.979   .     S
O581   C583    1.304   .     A
O582   C584    1.304   .     A
O582   Cu585   1.979   .     S
C583   C589    1.444   .     S
C584   C590    1.444   .     S
Cu585  N587    2.041   .     S
Cu585  Cu586   2.716   .     S
Cu586  N588    2.041   .     S
N587   C603    1.387   .     A
N587   C602    1.366   .     A
N588   C604    1.387   .     A
N588   C601    1.366   .     A
C590   C485    1.360   1_655 S
C590   N504    1.439   1_655 S
C591   C600    1.400   .     A
C591   H593    1.084   .     S
C591   C907    1.385   1_545 S
C592   C599    1.400   .     A
C592   H594    1.084   .     S
C592   C752    1.385   .     S
C595   C599    1.398   .     A
C595   H597    1.078   .     S
C595   C747    1.385   .     S
C596   C600    1.398   .     A
C596   H598    1.078   .     S
C596   C904    1.385   1_545 S
C601   N611    1.431   .     S
C602   N614    1.431   .     S
C602   C1072   1.428   .     S
C603   C617    1.509   .     S
C603   C1069   1.428   .     S
C604   C621    1.509   .     S
N605   O606    1.301   .     A
N605   O607    1.302   .     A
N605   C485    1.439   1_655 S
N608   O610    1.302   .     A
N608   O609    1.301   .     A
N611   O613    1.299   .     A
N611   O612    1.301   .     A
N614   O616    1.299   .     A
N614   O615    1.301   .     A
C617   H618    1.089   .     S
C617   H619    1.108   .     S
C617   H620    1.109   .     S
C621   H624    1.108   .     S
C621   H622    1.089   .     S
C621   H623    1.109   .     S
O625   C629    1.304   .     A
O625   Cu637   1.961   .     S
O626   C630    1.304   .     A
O626   Cu638   1.961   .     S
O627   C629    1.300   .     A
O627   Cu638   1.956   .     S
O628   C630    1.300   .     A
O628   Cu637   1.956   .     S
C629   C652    1.447   .     S
C630   C651    1.447   .     S
O631   C635    1.296   .     A
O631   Cu637   1.978   .     S
O632   C636    1.296   .     A
O632   Cu638   1.978   .     S
O633   Cu638   1.979   .     S
O633   C635    1.304   .     A
O634   C636    1.304   .     A
O634   Cu637   1.979   .     S
C635   C641    1.444   .     S
C636   C642    1.444   .     S
Cu637  N639    2.041   .     S
Cu637  Cu638   2.716   .     S
Cu638  N640    2.041   .     S
N639   C655    1.387   .     A
N639   C654    1.366   .     A
N640   C656    1.387   .     A
N640   C653    1.366   .     A
C641   C746    1.360   1_455 S
C641   N761    1.439   1_455 S
C642   C693    1.360   .     S
C642   N712    1.439   .     S
C643   C652    1.400   .     A
C643   H645    1.084   .     S
C644   C651    1.400   .     A
C644   H646    1.084   .     S
C644   C804    1.385   .     S
C647   C651    1.398   .     A
C647   H649    1.078   .     S
C647   C799    1.385   .     S
C648   C652    1.398   .     A
C648   H650    1.078   .     S
C653   N663    1.431   .     S
C654   N666    1.431   .     S
C654   C1124   1.428   .     S
C655   C669    1.509   .     S
C655   C1121   1.428   .     S
C656   C673    1.509   .     S
N657   O658    1.301   .     A
N657   O659    1.302   .     A
N657   C693    1.439   .     S
N660   O662    1.302   .     A
N660   O661    1.301   .     A
N660   C746    1.439   1_455 S
N663   O665    1.299   .     A
N663   O664    1.301   .     A
N666   O668    1.299   .     A
N666   O667    1.301   .     A
C669   H670    1.089   .     S
C669   H671    1.108   .     S
C669   H672    1.109   .     S
C673   H676    1.108   .     S
C673   H674    1.089   .     S
C673   H675    1.109   .     S
O677   C681    1.304   .     A
O677   Cu689   1.961   .     S
O678   C682    1.304   .     A
O678   Cu690   1.961   .     S
O679   C681    1.300   .     A
O679   Cu690   1.956   .     S
O680   C682    1.300   .     A
O680   Cu689   1.956   .     S
C681   C704    1.447   .     S
C682   C703    1.447   .     S
O683   C687    1.296   .     A
O683   Cu689   1.978   .     S
O684   C688    1.296   .     A
O684   Cu690   1.978   .     S
O685   Cu690   1.979   .     S
O685   C687    1.304   .     A
O686   C688    1.304   .     A
O686   Cu689   1.979   .     S
C687   C693    1.444   .     S
C688   C694    1.444   .     S
Cu689  N691    2.041   .     S
Cu689  Cu690   2.716   .     S
Cu690  N692    2.041   .     S
N691   C707    1.387   .     A
N691   C706    1.366   .     A
N692   C708    1.387   .     A
N692   C705    1.366   .     A
C694   C745    1.360   .     S
C694   N764    1.439   .     S
C695   C704    1.400   .     A
C695   H697    1.084   .     S
C696   C703    1.400   .     A
C696   H698    1.084   .     S
C696   C856    1.385   .     S
C699   C703    1.398   .     A
C699   H701    1.078   .     S
C699   C851    1.385   .     S
C700   C704    1.398   .     A
C700   H702    1.078   .     S
C705   N715    1.431   .     S
C706   N718    1.431   .     S
C706   C1176   1.428   .     S
C707   C721    1.509   .     S
C707   C1173   1.428   .     S
C708   C725    1.509   .     S
N709   O710    1.301   .     A
N709   O711    1.302   .     A
N709   C745    1.439   .     S
N712   O714    1.302   .     A
N712   O713    1.301   .     A
N715   O717    1.299   .     A
N715   O716    1.301   .     A
N718   O720    1.299   .     A
N718   O719    1.301   .     A
C721   H722    1.089   .     S
C721   H723    1.108   .     S
C721   H724    1.109   .     S
C725   H728    1.108   .     S
C725   H726    1.089   .     S
C725   H727    1.109   .     S
O729   C733    1.304   .     A
O729   Cu741   1.961   .     S
O730   C734    1.304   .     A
O730   Cu742   1.961   .     S
O731   C733    1.300   .     A
O731   Cu742   1.956   .     S
O732   C734    1.300   .     A
O732   Cu741   1.956   .     S
C733   C756    1.447   .     S
C734   C755    1.447   .     S
O735   C739    1.296   .     A
O735   Cu741   1.978   .     S
O736   C740    1.296   .     A
O736   Cu742   1.978   .     S
O737   Cu742   1.979   .     S
O737   C739    1.304   .     A
O738   C740    1.304   .     A
O738   Cu741   1.979   .     S
C739   C745    1.444   .     S
C740   C746    1.444   .     S
Cu741  N743    2.041   .     S
Cu741  Cu742   2.716   .     S
Cu742  N744    2.041   .     S
N743   C759    1.387   .     A
N743   C758    1.366   .     A
N744   C760    1.387   .     A
N744   C757    1.366   .     A
C746   C641    1.360   1_655 S
C746   N660    1.439   1_655 S
C747   C756    1.400   .     A
C747   H749    1.084   .     S
C748   C755    1.400   .     A
C748   H750    1.084   .     S
C748   C908    1.385   .     S
C751   C755    1.398   .     A
C751   H753    1.078   .     S
C751   C903    1.385   .     S
C752   C756    1.398   .     A
C752   H754    1.078   .     S
C757   N767    1.431   .     S
C758   N770    1.431   .     S
C758   C1228   1.428   .     S
C759   C773    1.509   .     S
C759   C1225   1.428   .     S
C760   C777    1.509   .     S
N761   O762    1.301   .     A
N761   O763    1.302   .     A
N761   C641    1.439   1_655 S
N764   O766    1.302   .     A
N764   O765    1.301   .     A
N767   O769    1.299   .     A
N767   O768    1.301   .     A
N770   O772    1.299   .     A
N770   O771    1.301   .     A
C773   H774    1.089   .     S
C773   H775    1.108   .     S
C773   H776    1.109   .     S
C777   H780    1.108   .     S
C777   H778    1.089   .     S
C777   H779    1.109   .     S
O781   C785    1.304   .     A
O781   Cu793   1.961   .     S
O782   C786    1.304   .     A
O782   Cu794   1.961   .     S
O783   C785    1.300   .     A
O783   Cu794   1.956   .     S
O784   C786    1.300   .     A
O784   Cu793   1.956   .     S
C785   C808    1.447   .     S
C786   C807    1.447   .     S
O787   C791    1.296   .     A
O787   Cu793   1.978   .     S
O788   C792    1.296   .     A
O788   Cu794   1.978   .     S
O789   Cu794   1.979   .     S
O789   C791    1.304   .     A
O790   C792    1.304   .     A
O790   Cu793   1.979   .     S
C791   C797    1.444   .     S
C792   C798    1.444   .     S
Cu793  N795    2.041   .     S
Cu793  Cu794   2.716   .     S
Cu794  N796    2.041   .     S
N795   C811    1.387   .     A
N795   C810    1.366   .     A
N796   C812    1.387   .     A
N796   C809    1.366   .     A
C797   C902    1.360   1_455 S
C797   N917    1.439   1_455 S
C798   C849    1.360   .     S
C798   N868    1.439   .     S
C799   C808    1.400   .     A
C799   H801    1.084   .     S
C800   C807    1.400   .     A
C800   H802    1.084   .     S
C800   C492    1.385   1_565 S
C803   C807    1.398   .     A
C803   H805    1.078   .     S
C803   C487    1.385   1_565 S
C804   C808    1.398   .     A
C804   H806    1.078   .     S
C809   N819    1.431   .     S
C810   N822    1.431   .     S
C810   C1280   1.428   .     S
C811   C825    1.509   .     S
C811   C1277   1.428   .     S
C812   C829    1.509   .     S
N813   O814    1.301   .     A
N813   O815    1.302   .     A
N813   C849    1.439   .     S
N816   O818    1.302   .     A
N816   O817    1.301   .     A
N816   C902    1.439   1_455 S
N819   O821    1.299   .     A
N819   O820    1.301   .     A
N822   O824    1.299   .     A
N822   O823    1.301   .     A
C825   H826    1.089   .     S
C825   H827    1.108   .     S
C825   H828    1.109   .     S
C829   H832    1.108   .     S
C829   H830    1.089   .     S
C829   H831    1.109   .     S
O833   C837    1.304   .     A
O833   Cu845   1.961   .     S
O834   C838    1.304   .     A
O834   Cu846   1.961   .     S
O835   C837    1.300   .     A
O835   Cu846   1.956   .     S
O836   C838    1.300   .     A
O836   Cu845   1.956   .     S
C837   C860    1.447   .     S
C838   C859    1.447   .     S
O839   C843    1.296   .     A
O839   Cu845   1.978   .     S
O840   C844    1.296   .     A
O840   Cu846   1.978   .     S
O841   Cu846   1.979   .     S
O841   C843    1.304   .     A
O842   C844    1.304   .     A
O842   Cu845   1.979   .     S
C843   C849    1.444   .     S
C844   C850    1.444   .     S
Cu845  N847    2.041   .     S
Cu845  Cu846   2.716   .     S
Cu846  N848    2.041   .     S
N847   C863    1.387   .     A
N847   C862    1.366   .     A
N848   C864    1.387   .     A
N848   C861    1.366   .     A
C850   C901    1.360   .     S
C850   N920    1.439   .     S
C851   C860    1.400   .     A
C851   H853    1.084   .     S
C852   C859    1.400   .     A
C852   H854    1.084   .     S
C852   C544    1.385   1_565 S
C855   C859    1.398   .     A
C855   H857    1.078   .     S
C855   C539    1.385   1_565 S
C856   C860    1.398   .     A
C856   H858    1.078   .     S
C861   N871    1.431   .     S
C862   N874    1.431   .     S
C862   C1332   1.428   .     S
C863   C877    1.509   .     S
C863   C1329   1.428   .     S
C864   C881    1.509   .     S
N865   O866    1.301   .     A
N865   O867    1.302   .     A
N865   C901    1.439   .     S
N868   O870    1.302   .     A
N868   O869    1.301   .     A
N871   O873    1.299   .     A
N871   O872    1.301   .     A
N874   O876    1.299   .     A
N874   O875    1.301   .     A
C877   H878    1.089   .     S
C877   H879    1.108   .     S
C877   H880    1.109   .     S
C881   H884    1.108   .     S
C881   H882    1.089   .     S
C881   H883    1.109   .     S
O885   C889    1.304   .     A
O885   Cu897   1.961   .     S
O886   C890    1.304   .     A
O886   Cu898   1.961   .     S
O887   C889    1.300   .     A
O887   Cu898   1.956   .     S
O888   C890    1.300   .     A
O888   Cu897   1.956   .     S
C889   C912    1.447   .     S
C890   C911    1.447   .     S
O891   C895    1.296   .     A
O891   Cu897   1.978   .     S
O892   C896    1.296   .     A
O892   Cu898   1.978   .     S
O893   Cu898   1.979   .     S
O893   C895    1.304   .     A
O894   C896    1.304   .     A
O894   Cu897   1.979   .     S
C895   C901    1.444   .     S
C896   C902    1.444   .     S
Cu897  N899    2.041   .     S
Cu897  Cu898   2.716   .     S
Cu898  N900    2.041   .     S
N899   C915    1.387   .     A
N899   C914    1.366   .     A
N900   C916    1.387   .     A
N900   C913    1.366   .     A
C902   C797    1.360   1_655 S
C902   N816    1.439   1_655 S
C903   C912    1.400   .     A
C903   H905    1.084   .     S
C904   C911    1.400   .     A
C904   H906    1.084   .     S
C904   C596    1.385   1_565 S
C907   C911    1.398   .     A
C907   H909    1.078   .     S
C907   C591    1.385   1_565 S
C908   C912    1.398   .     A
C908   H910    1.078   .     S
C913   N923    1.431   .     S
C914   N926    1.431   .     S
C914   C1384   1.428   .     S
C915   C929    1.509   .     S
C915   C1381   1.428   .     S
C916   C933    1.509   .     S
N917   O918    1.301   .     A
N917   O919    1.302   .     A
N917   C797    1.439   1_655 S
N920   O922    1.302   .     A
N920   O921    1.301   .     A
N923   O925    1.299   .     A
N923   O924    1.301   .     A
N926   O928    1.299   .     A
N926   O927    1.301   .     A
C929   H930    1.089   .     S
C929   H931    1.108   .     S
C929   H932    1.109   .     S
C933   H936    1.108   .     S
C933   H934    1.089   .     S
C933   H935    1.109   .     S
O937   C941    1.304   .     A
O937   Cu949   1.961   .     S
O938   C942    1.304   .     A
O938   Cu950   1.961   .     S
O939   C941    1.300   .     A
O939   Cu950   1.956   .     S
O940   C942    1.300   .     A
O940   Cu949   1.956   .     S
C941   C964    1.447   .     S
C942   C963    1.447   .     S
O943   C947    1.296   .     A
O943   Cu949   1.978   .     S
O944   C948    1.296   .     A
O944   Cu950   1.978   .     S
O945   Cu950   1.979   .     S
O945   C947    1.304   .     A
O946   C948    1.304   .     A
O946   Cu949   1.979   .     S
C947   C953    1.444   .     S
C948   C954    1.444   .     S
Cu949  N951    2.041   .     S
Cu949  Cu950   2.716   .     S
Cu950  N952    2.041   .     S
N951   C967    1.387   .     A
N951   C966    1.366   .     A
N952   C968    1.387   .     A
N952   C965    1.366   .     A
C953   C1058   1.360   1_455 S
C953   N1073   1.439   1_455 S
C954   C1005   1.360   .     S
C954   N1024   1.439   .     S
C955   C964    1.400   .     A
C955   H957    1.084   .     S
C955   C1271   1.385   1_545 S
C956   C963    1.400   .     A
C956   H958    1.084   .     S
C956   C1116   1.385   .     S
C959   C963    1.398   .     A
C959   H961    1.078   .     S
C959   C1111   1.385   .     S
C960   C964    1.398   .     A
C960   H962    1.078   .     S
C960   C1268   1.385   1_545 S
C965   N975    1.431   .     S
C966   N978    1.431   .     S
C966   C32     1.428   1_556 S
C967   C981    1.509   .     S
C967   C29     1.428   1_556 S
C968   C985    1.509   .     S
N969   O970    1.301   .     A
N969   O971    1.302   .     A
N969   C1005   1.439   .     S
N972   O974    1.302   .     A
N972   O973    1.301   .     A
N972   C1058   1.439   1_455 S
N975   O977    1.299   .     A
N975   O976    1.301   .     A
N978   O980    1.299   .     A
N978   O979    1.301   .     A
C981   H982    1.089   .     S
C981   H983    1.108   .     S
C981   H984    1.109   .     S
C985   H988    1.108   .     S
C985   H986    1.089   .     S
C985   H987    1.109   .     S
O989   C993    1.304   .     A
O989   Cu1001  1.961   .     S
O990   C994    1.304   .     A
O990   Cu1002  1.961   .     S
O991   C993    1.300   .     A
O991   Cu1002  1.956   .     S
O992   C994    1.300   .     A
O992   Cu1001  1.956   .     S
C993   C1016   1.447   .     S
C994   C1015   1.447   .     S
O995   C999    1.296   .     A
O995   Cu1001  1.978   .     S
O996   C1000   1.296   .     A
O996   Cu1002  1.978   .     S
O997   Cu1002  1.979   .     S
O997   C999    1.304   .     A
O998   C1000   1.304   .     A
O998   Cu1001  1.979   .     S
C999   C1005   1.444   .     S
C1000  C1006   1.444   .     S
Cu1001 N1003   2.041   .     S
Cu1001 Cu1002  2.716   .     S
Cu1002 N1004   2.041   .     S
N1003  C1019   1.387   .     A
N1003  C1018   1.366   .     A
N1004  C1020   1.387   .     A
N1004  C1017   1.366   .     A
C1006  C1057   1.360   .     S
C1006  N1076   1.439   .     S
C1007  C1016   1.400   .     A
C1007  H1009   1.084   .     S
C1007  C1323   1.385   1_545 S
C1008  C1015   1.400   .     A
C1008  H1010   1.084   .     S
C1008  C1168   1.385   .     S
C1011  C1015   1.398   .     A
C1011  H1013   1.078   .     S
C1011  C1163   1.385   .     S
C1012  C1016   1.398   .     A
C1012  H1014   1.078   .     S
C1012  C1320   1.385   1_545 S
C1017  N1027   1.431   .     S
C1018  N1030   1.431   .     S
C1018  C84     1.428   1_556 S
C1019  C1033   1.509   .     S
C1019  C81     1.428   1_556 S
C1020  C1037   1.509   .     S
N1021  O1022   1.301   .     A
N1021  O1023   1.302   .     A
N1021  C1057   1.439   .     S
N1024  O1026   1.302   .     A
N1024  O1025   1.301   .     A
N1027  O1029   1.299   .     A
N1027  O1028   1.301   .     A
N1030  O1032   1.299   .     A
N1030  O1031   1.301   .     A
C1033  H1034   1.089   .     S
C1033  H1035   1.108   .     S
C1033  H1036   1.109   .     S
C1037  H1040   1.108   .     S
C1037  H1038   1.089   .     S
C1037  H1039   1.109   .     S
O1041  C1045   1.304   .     A
O1041  Cu1053  1.961   .     S
O1042  C1046   1.304   .     A
O1042  Cu1054  1.961   .     S
O1043  C1045   1.300   .     A
O1043  Cu1054  1.956   .     S
O1044  C1046   1.300   .     A
O1044  Cu1053  1.956   .     S
C1045  C1068   1.447   .     S
C1046  C1067   1.447   .     S
O1047  C1051   1.296   .     A
O1047  Cu1053  1.978   .     S
O1048  C1052   1.296   .     A
O1048  Cu1054  1.978   .     S
O1049  Cu1054  1.979   .     S
O1049  C1051   1.304   .     A
O1050  C1052   1.304   .     A
O1050  Cu1053  1.979   .     S
C1051  C1057   1.444   .     S
C1052  C1058   1.444   .     S
Cu1053 N1055   2.041   .     S
Cu1053 Cu1054  2.716   .     S
Cu1054 N1056   2.041   .     S
N1055  C1071   1.387   .     A
N1055  C1070   1.366   .     A
N1056  C1072   1.387   .     A
N1056  C1069   1.366   .     A
C1058  C953    1.360   1_655 S
C1058  N972    1.439   1_655 S
C1059  C1068   1.400   .     A
C1059  H1061   1.084   .     S
C1059  C1375   1.385   1_545 S
C1060  C1067   1.400   .     A
C1060  H1062   1.084   .     S
C1060  C1220   1.385   .     S
C1063  C1067   1.398   .     A
C1063  H1065   1.078   .     S
C1063  C1215   1.385   .     S
C1064  C1068   1.398   .     A
C1064  H1066   1.078   .     S
C1064  C1372   1.385   1_545 S
C1069  N1079   1.431   .     S
C1070  N1082   1.431   .     S
C1070  C136    1.428   1_556 S
C1071  C1085   1.509   .     S
C1071  C133    1.428   1_556 S
C1072  C1089   1.509   .     S
N1073  O1074   1.301   .     A
N1073  O1075   1.302   .     A
N1073  C953    1.439   1_655 S
N1076  O1078   1.302   .     A
N1076  O1077   1.301   .     A
N1079  O1081   1.299   .     A
N1079  O1080   1.301   .     A
N1082  O1084   1.299   .     A
N1082  O1083   1.301   .     A
C1085  H1086   1.089   .     S
C1085  H1087   1.108   .     S
C1085  H1088   1.109   .     S
C1089  H1092   1.108   .     S
C1089  H1090   1.089   .     S
C1089  H1091   1.109   .     S
O1093  C1097   1.304   .     A
O1093  Cu1105  1.961   .     S
O1094  C1098   1.304   .     A
O1094  Cu1106  1.961   .     S
O1095  C1097   1.300   .     A
O1095  Cu1106  1.956   .     S
O1096  C1098   1.300   .     A
O1096  Cu1105  1.956   .     S
C1097  C1120   1.447   .     S
C1098  C1119   1.447   .     S
O1099  C1103   1.296   .     A
O1099  Cu1105  1.978   .     S
O1100  C1104   1.296   .     A
O1100  Cu1106  1.978   .     S
O1101  Cu1106  1.979   .     S
O1101  C1103   1.304   .     A
O1102  C1104   1.304   .     A
O1102  Cu1105  1.979   .     S
C1103  C1109   1.444   .     S
C1104  C1110   1.444   .     S
Cu1105 N1107   2.041   .     S
Cu1105 Cu1106  2.716   .     S
Cu1106 N1108   2.041   .     S
N1107  C1123   1.387   .     A
N1107  C1122   1.366   .     A
N1108  C1124   1.387   .     A
N1108  C1121   1.366   .     A
C1109  C1214   1.360   1_455 S
C1109  N1229   1.439   1_455 S
C1110  C1161   1.360   .     S
C1110  N1180   1.439   .     S
C1111  C1120   1.400   .     A
C1111  H1113   1.084   .     S
C1112  C1119   1.400   .     A
C1112  H1114   1.084   .     S
C1112  C1272   1.385   .     S
C1115  C1119   1.398   .     A
C1115  H1117   1.078   .     S
C1115  C1267   1.385   .     S
C1116  C1120   1.398   .     A
C1116  H1118   1.078   .     S
C1121  N1131   1.431   .     S
C1122  N1134   1.431   .     S
C1122  C188    1.428   1_556 S
C1123  C1137   1.509   .     S
C1123  C185    1.428   1_556 S
C1124  C1141   1.509   .     S
N1125  O1126   1.301   .     A
N1125  O1127   1.302   .     A
N1125  C1161   1.439   .     S
N1128  O1130   1.302   .     A
N1128  O1129   1.301   .     A
N1128  C1214   1.439   1_455 S
N1131  O1133   1.299   .     A
N1131  O1132   1.301   .     A
N1134  O1136   1.299   .     A
N1134  O1135   1.301   .     A
C1137  H1138   1.089   .     S
C1137  H1139   1.108   .     S
C1137  H1140   1.109   .     S
C1141  H1144   1.108   .     S
C1141  H1142   1.089   .     S
C1141  H1143   1.109   .     S
O1145  C1149   1.304   .     A
O1145  Cu1157  1.961   .     S
O1146  C1150   1.304   .     A
O1146  Cu1158  1.961   .     S
O1147  C1149   1.300   .     A
O1147  Cu1158  1.956   .     S
O1148  C1150   1.300   .     A
O1148  Cu1157  1.956   .     S
C1149  C1172   1.447   .     S
C1150  C1171   1.447   .     S
O1151  C1155   1.296   .     A
O1151  Cu1157  1.978   .     S
O1152  C1156   1.296   .     A
O1152  Cu1158  1.978   .     S
O1153  Cu1158  1.979   .     S
O1153  C1155   1.304   .     A
O1154  C1156   1.304   .     A
O1154  Cu1157  1.979   .     S
C1155  C1161   1.444   .     S
C1156  C1162   1.444   .     S
Cu1157 N1159   2.041   .     S
Cu1157 Cu1158  2.716   .     S
Cu1158 N1160   2.041   .     S
N1159  C1175   1.387   .     A
N1159  C1174   1.366   .     A
N1160  C1176   1.387   .     A
N1160  C1173   1.366   .     A
C1162  C1213   1.360   .     S
C1162  N1232   1.439   .     S
C1163  C1172   1.400   .     A
C1163  H1165   1.084   .     S
C1164  C1171   1.400   .     A
C1164  H1166   1.084   .     S
C1164  C1324   1.385   .     S
C1167  C1171   1.398   .     A
C1167  H1169   1.078   .     S
C1167  C1319   1.385   .     S
C1168  C1172   1.398   .     A
C1168  H1170   1.078   .     S
C1173  N1183   1.431   .     S
C1174  N1186   1.431   .     S
C1174  C240    1.428   1_556 S
C1175  C1189   1.509   .     S
C1175  C237    1.428   1_556 S
C1176  C1193   1.509   .     S
N1177  O1178   1.301   .     A
N1177  O1179   1.302   .     A
N1177  C1213   1.439   .     S
N1180  O1182   1.302   .     A
N1180  O1181   1.301   .     A
N1183  O1185   1.299   .     A
N1183  O1184   1.301   .     A
N1186  O1188   1.299   .     A
N1186  O1187   1.301   .     A
C1189  H1190   1.089   .     S
C1189  H1191   1.108   .     S
C1189  H1192   1.109   .     S
C1193  H1196   1.108   .     S
C1193  H1194   1.089   .     S
C1193  H1195   1.109   .     S
O1197  C1201   1.304   .     A
O1197  Cu1209  1.961   .     S
O1198  C1202   1.304   .     A
O1198  Cu1210  1.961   .     S
O1199  C1201   1.300   .     A
O1199  Cu1210  1.956   .     S
O1200  C1202   1.300   .     A
O1200  Cu1209  1.956   .     S
C1201  C1224   1.447   .     S
C1202  C1223   1.447   .     S
O1203  C1207   1.296   .     A
O1203  Cu1209  1.978   .     S
O1204  C1208   1.296   .     A
O1204  Cu1210  1.978   .     S
O1205  Cu1210  1.979   .     S
O1205  C1207   1.304   .     A
O1206  C1208   1.304   .     A
O1206  Cu1209  1.979   .     S
C1207  C1213   1.444   .     S
C1208  C1214   1.444   .     S
Cu1209 N1211   2.041   .     S
Cu1209 Cu1210  2.716   .     S
Cu1210 N1212   2.041   .     S
N1211  C1227   1.387   .     A
N1211  C1226   1.366   .     A
N1212  C1228   1.387   .     A
N1212  C1225   1.366   .     A
C1214  C1109   1.360   1_655 S
C1214  N1128   1.439   1_655 S
C1215  C1224   1.400   .     A
C1215  H1217   1.084   .     S
C1216  C1223   1.400   .     A
C1216  H1218   1.084   .     S
C1216  C1376   1.385   .     S
C1219  C1223   1.398   .     A
C1219  H1221   1.078   .     S
C1219  C1371   1.385   .     S
C1220  C1224   1.398   .     A
C1220  H1222   1.078   .     S
C1225  N1235   1.431   .     S
C1226  N1238   1.431   .     S
C1226  C292    1.428   1_556 S
C1227  C1241   1.509   .     S
C1227  C289    1.428   1_556 S
C1228  C1245   1.509   .     S
N1229  O1230   1.301   .     A
N1229  O1231   1.302   .     A
N1229  C1109   1.439   1_655 S
N1232  O1234   1.302   .     A
N1232  O1233   1.301   .     A
N1235  O1237   1.299   .     A
N1235  O1236   1.301   .     A
N1238  O1240   1.299   .     A
N1238  O1239   1.301   .     A
C1241  H1242   1.089   .     S
C1241  H1243   1.108   .     S
C1241  H1244   1.109   .     S
C1245  H1248   1.108   .     S
C1245  H1246   1.089   .     S
C1245  H1247   1.109   .     S
O1249  C1253   1.304   .     A
O1249  Cu1261  1.961   .     S
O1250  C1254   1.304   .     A
O1250  Cu1262  1.961   .     S
O1251  C1253   1.300   .     A
O1251  Cu1262  1.956   .     S
O1252  C1254   1.300   .     A
O1252  Cu1261  1.956   .     S
C1253  C1276   1.447   .     S
C1254  C1275   1.447   .     S
O1255  C1259   1.296   .     A
O1255  Cu1261  1.978   .     S
O1256  C1260   1.296   .     A
O1256  Cu1262  1.978   .     S
O1257  Cu1262  1.979   .     S
O1257  C1259   1.304   .     A
O1258  C1260   1.304   .     A
O1258  Cu1261  1.979   .     S
C1259  C1265   1.444   .     S
C1260  C1266   1.444   .     S
Cu1261 N1263   2.041   .     S
Cu1261 Cu1262  2.716   .     S
Cu1262 N1264   2.041   .     S
N1263  C1279   1.387   .     A
N1263  C1278   1.366   .     A
N1264  C1280   1.387   .     A
N1264  C1277   1.366   .     A
C1265  C1370   1.360   1_455 S
C1265  N1385   1.439   1_455 S
C1266  C1317   1.360   .     S
C1266  N1336   1.439   .     S
C1267  C1276   1.400   .     A
C1267  H1269   1.084   .     S
C1268  C1275   1.400   .     A
C1268  H1270   1.084   .     S
C1268  C960    1.385   1_565 S
C1271  C1275   1.398   .     A
C1271  H1273   1.078   .     S
C1271  C955    1.385   1_565 S
C1272  C1276   1.398   .     A
C1272  H1274   1.078   .     S
C1277  N1287   1.431   .     S
C1278  N1290   1.431   .     S
C1278  C344    1.428   1_556 S
C1279  C1293   1.509   .     S
C1279  C341    1.428   1_556 S
C1280  C1297   1.509   .     S
N1281  O1282   1.301   .     A
N1281  O1283   1.302   .     A
N1281  C1317   1.439   .     S
N1284  O1286   1.302   .     A
N1284  O1285   1.301   .     A
N1284  C1370   1.439   1_455 S
N1287  O1289   1.299   .     A
N1287  O1288   1.301   .     A
N1290  O1292   1.299   .     A
N1290  O1291   1.301   .     A
C1293  H1294   1.089   .     S
C1293  H1295   1.108   .     S
C1293  H1296   1.109   .     S
C1297  H1300   1.108   .     S
C1297  H1298   1.089   .     S
C1297  H1299   1.109   .     S
O1301  C1305   1.304   .     A
O1301  Cu1313  1.961   .     S
O1302  C1306   1.304   .     A
O1302  Cu1314  1.961   .     S
O1303  C1305   1.300   .     A
O1303  Cu1314  1.956   .     S
O1304  C1306   1.300   .     A
O1304  Cu1313  1.956   .     S
C1305  C1328   1.447   .     S
C1306  C1327   1.447   .     S
O1307  C1311   1.296   .     A
O1307  Cu1313  1.978   .     S
O1308  C1312   1.296   .     A
O1308  Cu1314  1.978   .     S
O1309  Cu1314  1.979   .     S
O1309  C1311   1.304   .     A
O1310  C1312   1.304   .     A
O1310  Cu1313  1.979   .     S
C1311  C1317   1.444   .     S
C1312  C1318   1.444   .     S
Cu1313 N1315   2.041   .     S
Cu1313 Cu1314  2.716   .     S
Cu1314 N1316   2.041   .     S
N1315  C1331   1.387   .     A
N1315  C1330   1.366   .     A
N1316  C1332   1.387   .     A
N1316  C1329   1.366   .     A
C1318  C1369   1.360   .     S
C1318  N1388   1.439   .     S
C1319  C1328   1.400   .     A
C1319  H1321   1.084   .     S
C1320  C1327   1.400   .     A
C1320  H1322   1.084   .     S
C1320  C1012   1.385   1_565 S
C1323  C1327   1.398   .     A
C1323  H1325   1.078   .     S
C1323  C1007   1.385   1_565 S
C1324  C1328   1.398   .     A
C1324  H1326   1.078   .     S
C1329  N1339   1.431   .     S
C1330  N1342   1.431   .     S
C1330  C396    1.428   1_556 S
C1331  C1345   1.509   .     S
C1331  C393    1.428   1_556 S
C1332  C1349   1.509   .     S
N1333  O1334   1.301   .     A
N1333  O1335   1.302   .     A
N1333  C1369   1.439   .     S
N1336  O1338   1.302   .     A
N1336  O1337   1.301   .     A
N1339  O1341   1.299   .     A
N1339  O1340   1.301   .     A
N1342  O1344   1.299   .     A
N1342  O1343   1.301   .     A
C1345  H1346   1.089   .     S
C1345  H1347   1.108   .     S
C1345  H1348   1.109   .     S
C1349  H1352   1.108   .     S
C1349  H1350   1.089   .     S
C1349  H1351   1.109   .     S
O1353  C1357   1.304   .     A
O1353  Cu1365  1.961   .     S
O1354  C1358   1.304   .     A
O1354  Cu1366  1.961   .     S
O1355  C1357   1.300   .     A
O1355  Cu1366  1.956   .     S
O1356  C1358   1.300   .     A
O1356  Cu1365  1.956   .     S
C1357  C1380   1.447   .     S
C1358  C1379   1.447   .     S
O1359  C1363   1.296   .     A
O1359  Cu1365  1.978   .     S
O1360  C1364   1.296   .     A
O1360  Cu1366  1.978   .     S
O1361  Cu1366  1.979   .     S
O1361  C1363   1.304   .     A
O1362  C1364   1.304   .     A
O1362  Cu1365  1.979   .     S
C1363  C1369   1.444   .     S
C1364  C1370   1.444   .     S
Cu1365 N1367   2.041   .     S
Cu1365 Cu1366  2.716   .     S
Cu1366 N1368   2.041   .     S
N1367  C1383   1.387   .     A
N1367  C1382   1.366   .     A
N1368  C1384   1.387   .     A
N1368  C1381   1.366   .     A
C1370  C1265   1.360   1_655 S
C1370  N1284   1.439   1_655 S
C1371  C1380   1.400   .     A
C1371  H1373   1.084   .     S
C1372  C1379   1.400   .     A
C1372  H1374   1.084   .     S
C1372  C1064   1.385   1_565 S
C1375  C1379   1.398   .     A
C1375  H1377   1.078   .     S
C1375  C1059   1.385   1_565 S
C1376  C1380   1.398   .     A
C1376  H1378   1.078   .     S
C1381  N1391   1.431   .     S
C1382  N1394   1.431   .     S
C1382  C448    1.428   1_556 S
C1383  C1397   1.509   .     S
C1383  C445    1.428   1_556 S
C1384  C1401   1.509   .     S
N1385  O1386   1.301   .     A
N1385  O1387   1.302   .     A
N1385  C1265   1.439   1_655 S
N1388  O1390   1.302   .     A
N1388  O1389   1.301   .     A
N1391  O1393   1.299   .     A
N1391  O1392   1.301   .     A
N1394  O1396   1.299   .     A
N1394  O1395   1.301   .     A
C1397  H1398   1.089   .     S
C1397  H1399   1.108   .     S
C1397  H1400   1.109   .     S
C1401  H1404   1.108   .     S
C1401  H1402   1.089   .     S
C1401  H1403   1.109   .     S
