data_str_m2_o2_o10_pcu_sym.149
_audit_creation_date              2020-01-03
_audit_creation_method            'Materials Studio'
_symmetry_space_group_name_H-M    'P1'
_symmetry_Int_Tables_number       1
_symmetry_cell_setting            triclinic
loop_
_symmetry_equiv_pos_as_xyz
  x,y,z
_cell_length_a                    26.2651
_cell_length_b                    30.1769
_cell_length_c                    27.7242
_cell_angle_alpha                 90.1932
_cell_angle_beta                  97.5427
_cell_angle_gamma                 88.9992
loop_
_atom_site_label
_atom_site_type_symbol
_atom_site_fract_x
_atom_site_fract_y
_atom_site_fract_z
_atom_site_U_iso_or_equiv
_atom_site_adp_type
_atom_site_occupancy
O1     O     0.16667   0.18573   0.29071   0.00000  Uiso   1.00
O2     O     0.16666   0.31428   0.20928   0.00000  Uiso   1.00
O3     O     0.16667   0.18573   0.20928   0.00000  Uiso   1.00
O4     O     0.16666   0.31427   0.29072   0.00000  Uiso   1.00
C5     C     0.16723   0.16502   0.25006   0.00000  Uiso   1.00
C6     C     0.16517   0.33507   0.24984   0.00000  Uiso   1.00
O7     O     0.09161   0.25000   0.28132   0.00000  Uiso   1.00
O8     O     0.24172   0.25001   0.21868   0.00000  Uiso   1.00
O9     O     0.09161   0.25000   0.19988   0.00000  Uiso   1.00
O10    O     0.24172   0.25000   0.30011   0.00000  Uiso   1.00
C11    C     0.06809   0.25145   0.23785   0.00000  Uiso   1.00
C12    C     0.26535   0.24917   0.26219   0.00000  Uiso   1.00
Cu13   Cu    0.16667   0.25000   0.29821   0.00000  Uiso   1.00
Cu14   Cu    0.16667   0.25001   0.20178   0.00000  Uiso   1.00
C15    C     0.01351   0.25924   0.23301   0.00000  Uiso   1.00
C16    C     0.32017   0.24247   0.26730   0.00000  Uiso   1.00
C17    C     0.11804   0.04973   0.23777   0.00000  Uiso   1.00
C18    C     0.19247   0.45169   0.21770   0.00000  Uiso   1.00
H19    H     0.08125   0.03382   0.22961   0.00000  Uiso   1.00
H20    H     0.21629   0.46832   0.19454   0.00000  Uiso   1.00
C21    C     0.11994   0.09574   0.23923   0.00000  Uiso   1.00
C22    C     0.19242   0.40571   0.21879   0.00000  Uiso   1.00
H23    H     0.08457   0.11498   0.23243   0.00000  Uiso   1.00
H24    H     0.21652   0.38743   0.19655   0.00000  Uiso   1.00
C25    C     0.16707   0.11684   0.25016   0.00000  Uiso   1.00
C26    C     0.16248   0.38345   0.24902   0.00000  Uiso   1.00
C27    C     0.21301   0.09160   0.26040   0.00000  Uiso   1.00
C28    C     0.13092   0.40788   0.27759   0.00000  Uiso   1.00
C29    C     0.21075   0.04543   0.25722   0.00000  Uiso   1.00
C30    C     0.13131   0.45422   0.27599   0.00000  Uiso   1.00
H31    H     0.24560   0.02559   0.26531   0.00000  Uiso   1.00
H32    H     0.10757   0.47337   0.29785   0.00000  Uiso   1.00
C33    C     0.16351   0.02449   0.24642   0.00000  Uiso   1.00
C34    C     0.16198   0.47607   0.24629   0.00000  Uiso   1.00
C35    C     0.13723   0.28331   0.05118   0.00000  Uiso   1.00
C36    C     0.13585   0.21860   0.44135   0.00000  Uiso   1.00
H37    H     0.11679   0.31027   0.03096   0.00000  Uiso   1.00
H38    H     0.11449   0.19284   0.45641   0.00000  Uiso   1.00
C39    C     0.13988   0.28255   0.10225   0.00000  Uiso   1.00
C40    C     0.13867   0.21906   0.39097   0.00000  Uiso   1.00
H41    H     0.12037   0.30839   0.12022   0.00000  Uiso   1.00
H42    H     0.11843   0.19424   0.36808   0.00000  Uiso   1.00
N43    N     0.16667   0.25001   0.12934   0.00000  Uiso   1.00
N44    N     0.16667   0.24999   0.37065   0.00000  Uiso   1.00
C45    C     0.19120   0.21702   0.10641   0.00000  Uiso   1.00
C46    C     0.19221   0.28172   0.39975   0.00000  Uiso   1.00
C47    C     0.18593   0.21467   0.05453   0.00000  Uiso   1.00
C48    C     0.18691   0.28441   0.45025   0.00000  Uiso   1.00
C49    C     0.16035   0.24932   0.02642   0.00000  Uiso   1.00
C50    C     0.16019   0.25129   0.47194   0.00000  Uiso   1.00
N51    N     0.32489   0.29152   0.19751   0.00000  Uiso   1.00
O52    O     0.29853   0.32521   0.21103   0.00000  Uiso   1.00
O53    O     0.00540   0.29166   0.15414   0.00000  Uiso   1.00
N54    N     0.00952   0.21072   0.30303   0.00000  Uiso   1.00
O55    O     0.03421   0.17604   0.28947   0.00000  Uiso   1.00
O56    O     0.00028   0.21343   0.34790   0.00000  Uiso   1.00
N57    N     0.26148   0.11195   0.27582   0.00000  Uiso   1.00
O58    O     0.26392   0.14484   0.30636   0.00000  Uiso   1.00
O59    O     0.30401   0.09250   0.26727   0.00000  Uiso   1.00
N60    N     0.09724   0.38656   0.30686   0.00000  Uiso   1.00
O61    O     0.07012   0.35296   0.28983   0.00000  Uiso   1.00
O62    O     0.08733   0.40503   0.34714   0.00000  Uiso   1.00
O63    O     0.21884   0.18443   0.13403   0.00000  Uiso   1.00
C64    C     0.27203   0.18865   0.13122   0.00000  Uiso   1.00
H65    H     0.28817   0.21403   0.15737   0.00000  Uiso   1.00
H66    H     0.28080   0.19864   0.09461   0.00000  Uiso   1.00
C67    C     0.29929   0.14442   0.14443   0.00000  Uiso   1.00
H68    H     0.29358   0.13517   0.18204   0.00000  Uiso   1.00
H69    H     0.28238   0.11830   0.11918   0.00000  Uiso   1.00
C70    C     0.02338   0.14689   0.14111   0.00000  Uiso   1.00
H71    H     0.03002   0.15719   0.10404   0.00000  Uiso   1.00
H72    H     0.04155   0.11373   0.14867   0.00000  Uiso   1.00
H73    H     0.04167   0.17093   0.16815   0.00000  Uiso   1.00
O74    O     0.22178   0.31235   0.37937   0.00000  Uiso   1.00
C75    C     0.27467   0.30496   0.39626   0.00000  Uiso   1.00
H76    H     0.29189   0.28417   0.36964   0.00000  Uiso   1.00
H77    H     0.28230   0.28773   0.43211   0.00000  Uiso   1.00
C78    C     0.30263   0.34907   0.40018   0.00000  Uiso   1.00
H79    H     0.29838   0.36534   0.36391   0.00000  Uiso   1.00
H80    H     0.28540   0.37130   0.42587   0.00000  Uiso   1.00
C81    C     0.02634   0.34219   0.41843   0.00000  Uiso   1.00
H82    H     0.03150   0.32514   0.45425   0.00000  Uiso   1.00
H83    H     0.04523   0.37482   0.42300   0.00000  Uiso   1.00
H84    H     0.04521   0.32206   0.39195   0.00000  Uiso   1.00
N85    N     0.20690   0.17721   0.03117   0.00000  Uiso   1.00
O86    O     0.19945   0.13722   0.04585   0.00000  Uiso   1.00
O87    O     0.23665   0.18296   0.49778   0.00000  Uiso   1.00
N88    N     0.20917   0.32065   0.47886   0.00000  Uiso   1.00
O89    O     0.19958   0.36122   0.46422   0.00000  Uiso   1.00
O90    O     0.24028   0.31331   0.01867   0.00000  Uiso   1.00
O91    O     0.50000   0.18573   0.29071   0.00000  Uiso   1.00
O92    O     0.50000   0.31428   0.20928   0.00000  Uiso   1.00
O93    O     0.50000   0.18573   0.20928   0.00000  Uiso   1.00
O94    O     0.50000   0.31427   0.29072   0.00000  Uiso   1.00
C95    C     0.50056   0.16502   0.25006   0.00000  Uiso   1.00
C96    C     0.49850   0.33507   0.24984   0.00000  Uiso   1.00
O97    O     0.42495   0.25000   0.28132   0.00000  Uiso   1.00
O98    O     0.57505   0.25001   0.21868   0.00000  Uiso   1.00
O99    O     0.42495   0.25000   0.19988   0.00000  Uiso   1.00
O100   O     0.57505   0.25000   0.30011   0.00000  Uiso   1.00
C101   C     0.40142   0.25145   0.23785   0.00000  Uiso   1.00
C102   C     0.59868   0.24917   0.26219   0.00000  Uiso   1.00
Cu103  Cu    0.50000   0.25000   0.29821   0.00000  Uiso   1.00
Cu104  Cu    0.50000   0.25001   0.20178   0.00000  Uiso   1.00
C105   C     0.34685   0.25924   0.23301   0.00000  Uiso   1.00
C106   C     0.65351   0.24247   0.26730   0.00000  Uiso   1.00
C107   C     0.45137   0.04973   0.23777   0.00000  Uiso   1.00
C108   C     0.52581   0.45169   0.21770   0.00000  Uiso   1.00
H109   H     0.41458   0.03382   0.22961   0.00000  Uiso   1.00
H110   H     0.54963   0.46832   0.19454   0.00000  Uiso   1.00
C111   C     0.45327   0.09574   0.23923   0.00000  Uiso   1.00
C112   C     0.52575   0.40571   0.21879   0.00000  Uiso   1.00
H113   H     0.41790   0.11498   0.23243   0.00000  Uiso   1.00
H114   H     0.54985   0.38743   0.19655   0.00000  Uiso   1.00
C115   C     0.50040   0.11684   0.25016   0.00000  Uiso   1.00
C116   C     0.49582   0.38345   0.24902   0.00000  Uiso   1.00
C117   C     0.54634   0.09160   0.26040   0.00000  Uiso   1.00
C118   C     0.46426   0.40788   0.27759   0.00000  Uiso   1.00
C119   C     0.54408   0.04543   0.25722   0.00000  Uiso   1.00
C120   C     0.46464   0.45422   0.27599   0.00000  Uiso   1.00
H121   H     0.57893   0.02559   0.26531   0.00000  Uiso   1.00
H122   H     0.44090   0.47337   0.29785   0.00000  Uiso   1.00
C123   C     0.49685   0.02449   0.24642   0.00000  Uiso   1.00
C124   C     0.49531   0.47607   0.24629   0.00000  Uiso   1.00
C125   C     0.47057   0.28331   0.05118   0.00000  Uiso   1.00
C126   C     0.46918   0.21860   0.44135   0.00000  Uiso   1.00
H127   H     0.45012   0.31027   0.03096   0.00000  Uiso   1.00
H128   H     0.44782   0.19284   0.45641   0.00000  Uiso   1.00
C129   C     0.47322   0.28255   0.10225   0.00000  Uiso   1.00
C130   C     0.47200   0.21906   0.39097   0.00000  Uiso   1.00
H131   H     0.45371   0.30839   0.12022   0.00000  Uiso   1.00
H132   H     0.45176   0.19424   0.36808   0.00000  Uiso   1.00
N133   N     0.50000   0.25001   0.12934   0.00000  Uiso   1.00
N134   N     0.50000   0.24999   0.37065   0.00000  Uiso   1.00
C135   C     0.52453   0.21702   0.10641   0.00000  Uiso   1.00
C136   C     0.52555   0.28172   0.39975   0.00000  Uiso   1.00
C137   C     0.51926   0.21467   0.05453   0.00000  Uiso   1.00
C138   C     0.52025   0.28441   0.45025   0.00000  Uiso   1.00
C139   C     0.49369   0.24932   0.02642   0.00000  Uiso   1.00
C140   C     0.49352   0.25129   0.47194   0.00000  Uiso   1.00
N141   N     0.65822   0.29152   0.19751   0.00000  Uiso   1.00
O142   O     0.63187   0.32521   0.21103   0.00000  Uiso   1.00
O143   O     0.33873   0.29166   0.15414   0.00000  Uiso   1.00
N144   N     0.34286   0.21072   0.30303   0.00000  Uiso   1.00
O145   O     0.36755   0.17604   0.28947   0.00000  Uiso   1.00
O146   O     0.33362   0.21343   0.34790   0.00000  Uiso   1.00
N147   N     0.59481   0.11195   0.27582   0.00000  Uiso   1.00
O148   O     0.59725   0.14484   0.30636   0.00000  Uiso   1.00
O149   O     0.63735   0.09250   0.26727   0.00000  Uiso   1.00
N150   N     0.43057   0.38656   0.30686   0.00000  Uiso   1.00
O151   O     0.40345   0.35296   0.28983   0.00000  Uiso   1.00
O152   O     0.42067   0.40503   0.34714   0.00000  Uiso   1.00
O153   O     0.55217   0.18443   0.13403   0.00000  Uiso   1.00
C154   C     0.60536   0.18865   0.13122   0.00000  Uiso   1.00
H155   H     0.62150   0.21403   0.15737   0.00000  Uiso   1.00
H156   H     0.61414   0.19864   0.09461   0.00000  Uiso   1.00
C157   C     0.63262   0.14442   0.14443   0.00000  Uiso   1.00
H158   H     0.62691   0.13517   0.18204   0.00000  Uiso   1.00
H159   H     0.61572   0.11830   0.11918   0.00000  Uiso   1.00
C160   C     0.35671   0.14689   0.14111   0.00000  Uiso   1.00
H161   H     0.36335   0.15719   0.10404   0.00000  Uiso   1.00
H162   H     0.37488   0.11373   0.14867   0.00000  Uiso   1.00
H163   H     0.37500   0.17093   0.16815   0.00000  Uiso   1.00
O164   O     0.55511   0.31235   0.37937   0.00000  Uiso   1.00
C165   C     0.60800   0.30496   0.39626   0.00000  Uiso   1.00
H166   H     0.62522   0.28417   0.36964   0.00000  Uiso   1.00
H167   H     0.61563   0.28773   0.43211   0.00000  Uiso   1.00
C168   C     0.63596   0.34907   0.40018   0.00000  Uiso   1.00
H169   H     0.63172   0.36534   0.36391   0.00000  Uiso   1.00
H170   H     0.61873   0.37130   0.42587   0.00000  Uiso   1.00
C171   C     0.35968   0.34219   0.41843   0.00000  Uiso   1.00
H172   H     0.36483   0.32514   0.45425   0.00000  Uiso   1.00
H173   H     0.37856   0.37482   0.42300   0.00000  Uiso   1.00
H174   H     0.37854   0.32206   0.39195   0.00000  Uiso   1.00
N175   N     0.54023   0.17721   0.03117   0.00000  Uiso   1.00
O176   O     0.53278   0.13722   0.04585   0.00000  Uiso   1.00
O177   O     0.56998   0.18296   0.49778   0.00000  Uiso   1.00
N178   N     0.54250   0.32065   0.47886   0.00000  Uiso   1.00
O179   O     0.53292   0.36122   0.46422   0.00000  Uiso   1.00
O180   O     0.57361   0.31331   0.01867   0.00000  Uiso   1.00
O181   O     0.83334   0.18573   0.29071   0.00000  Uiso   1.00
O182   O     0.83333   0.31428   0.20928   0.00000  Uiso   1.00
O183   O     0.83334   0.18573   0.20928   0.00000  Uiso   1.00
O184   O     0.83333   0.31427   0.29072   0.00000  Uiso   1.00
C185   C     0.83389   0.16502   0.25006   0.00000  Uiso   1.00
C186   C     0.83184   0.33507   0.24984   0.00000  Uiso   1.00
O187   O     0.75828   0.25000   0.28132   0.00000  Uiso   1.00
O188   O     0.90839   0.25001   0.21868   0.00000  Uiso   1.00
O189   O     0.75828   0.25000   0.19988   0.00000  Uiso   1.00
O190   O     0.90839   0.25000   0.30011   0.00000  Uiso   1.00
C191   C     0.73475   0.25145   0.23785   0.00000  Uiso   1.00
C192   C     0.93201   0.24917   0.26219   0.00000  Uiso   1.00
Cu193  Cu    0.83333   0.25000   0.29821   0.00000  Uiso   1.00
Cu194  Cu    0.83333   0.25001   0.20178   0.00000  Uiso   1.00
C195   C     0.68018   0.25924   0.23301   0.00000  Uiso   1.00
C196   C     0.98684   0.24247   0.26730   0.00000  Uiso   1.00
C197   C     0.78471   0.04973   0.23777   0.00000  Uiso   1.00
C198   C     0.85914   0.45169   0.21770   0.00000  Uiso   1.00
H199   H     0.74792   0.03382   0.22961   0.00000  Uiso   1.00
H200   H     0.88296   0.46832   0.19454   0.00000  Uiso   1.00
C201   C     0.78660   0.09574   0.23923   0.00000  Uiso   1.00
C202   C     0.85908   0.40571   0.21879   0.00000  Uiso   1.00
H203   H     0.75124   0.11498   0.23243   0.00000  Uiso   1.00
H204   H     0.88319   0.38743   0.19655   0.00000  Uiso   1.00
C205   C     0.83374   0.11684   0.25016   0.00000  Uiso   1.00
C206   C     0.82915   0.38345   0.24902   0.00000  Uiso   1.00
C207   C     0.87968   0.09160   0.26040   0.00000  Uiso   1.00
C208   C     0.79759   0.40788   0.27759   0.00000  Uiso   1.00
C209   C     0.87742   0.04543   0.25722   0.00000  Uiso   1.00
C210   C     0.79797   0.45422   0.27599   0.00000  Uiso   1.00
H211   H     0.91227   0.02559   0.26531   0.00000  Uiso   1.00
H212   H     0.77424   0.47337   0.29785   0.00000  Uiso   1.00
C213   C     0.83018   0.02449   0.24642   0.00000  Uiso   1.00
C214   C     0.82864   0.47607   0.24629   0.00000  Uiso   1.00
C215   C     0.80390   0.28331   0.05118   0.00000  Uiso   1.00
C216   C     0.80251   0.21860   0.44135   0.00000  Uiso   1.00
H217   H     0.78345   0.31027   0.03096   0.00000  Uiso   1.00
H218   H     0.78116   0.19284   0.45641   0.00000  Uiso   1.00
C219   C     0.80655   0.28255   0.10225   0.00000  Uiso   1.00
C220   C     0.80534   0.21906   0.39097   0.00000  Uiso   1.00
H221   H     0.78704   0.30839   0.12022   0.00000  Uiso   1.00
H222   H     0.78509   0.19424   0.36808   0.00000  Uiso   1.00
N223   N     0.83333   0.25001   0.12934   0.00000  Uiso   1.00
N224   N     0.83333   0.24999   0.37065   0.00000  Uiso   1.00
C225   C     0.85787   0.21702   0.10641   0.00000  Uiso   1.00
C226   C     0.85888   0.28172   0.39975   0.00000  Uiso   1.00
C227   C     0.85260   0.21467   0.05453   0.00000  Uiso   1.00
C228   C     0.85358   0.28441   0.45025   0.00000  Uiso   1.00
C229   C     0.82702   0.24932   0.02642   0.00000  Uiso   1.00
C230   C     0.82686   0.25129   0.47194   0.00000  Uiso   1.00
N231   N     0.99156   0.29152   0.19751   0.00000  Uiso   1.00
O232   O     0.96520   0.32521   0.21103   0.00000  Uiso   1.00
O233   O     0.67207   0.29166   0.15414   0.00000  Uiso   1.00
N234   N     0.67619   0.21072   0.30303   0.00000  Uiso   1.00
O235   O     0.70088   0.17604   0.28947   0.00000  Uiso   1.00
O236   O     0.66695   0.21343   0.34790   0.00000  Uiso   1.00
N237   N     0.92815   0.11195   0.27582   0.00000  Uiso   1.00
O238   O     0.93058   0.14484   0.30636   0.00000  Uiso   1.00
O239   O     0.97068   0.09250   0.26727   0.00000  Uiso   1.00
N240   N     0.76391   0.38656   0.30686   0.00000  Uiso   1.00
O241   O     0.73678   0.35296   0.28983   0.00000  Uiso   1.00
O242   O     0.75400   0.40503   0.34714   0.00000  Uiso   1.00
O243   O     0.88550   0.18443   0.13403   0.00000  Uiso   1.00
C244   C     0.93869   0.18865   0.13122   0.00000  Uiso   1.00
H245   H     0.95484   0.21403   0.15737   0.00000  Uiso   1.00
H246   H     0.94747   0.19864   0.09461   0.00000  Uiso   1.00
C247   C     0.96595   0.14442   0.14443   0.00000  Uiso   1.00
H248   H     0.96025   0.13517   0.18204   0.00000  Uiso   1.00
H249   H     0.94905   0.11830   0.11918   0.00000  Uiso   1.00
C250   C     0.69005   0.14689   0.14111   0.00000  Uiso   1.00
H251   H     0.69668   0.15719   0.10404   0.00000  Uiso   1.00
H252   H     0.70821   0.11373   0.14867   0.00000  Uiso   1.00
H253   H     0.70833   0.17093   0.16815   0.00000  Uiso   1.00
O254   O     0.88845   0.31235   0.37937   0.00000  Uiso   1.00
C255   C     0.94134   0.30496   0.39626   0.00000  Uiso   1.00
H256   H     0.95855   0.28417   0.36964   0.00000  Uiso   1.00
H257   H     0.94897   0.28773   0.43211   0.00000  Uiso   1.00
C258   C     0.96929   0.34907   0.40018   0.00000  Uiso   1.00
H259   H     0.96505   0.36534   0.36391   0.00000  Uiso   1.00
H260   H     0.95206   0.37130   0.42587   0.00000  Uiso   1.00
C261   C     0.69301   0.34219   0.41843   0.00000  Uiso   1.00
H262   H     0.69817   0.32514   0.45425   0.00000  Uiso   1.00
H263   H     0.71189   0.37482   0.42300   0.00000  Uiso   1.00
H264   H     0.71187   0.32206   0.39195   0.00000  Uiso   1.00
N265   N     0.87356   0.17721   0.03117   0.00000  Uiso   1.00
O266   O     0.86611   0.13722   0.04585   0.00000  Uiso   1.00
O267   O     0.90332   0.18296   0.49778   0.00000  Uiso   1.00
N268   N     0.87584   0.32065   0.47886   0.00000  Uiso   1.00
O269   O     0.86625   0.36122   0.46422   0.00000  Uiso   1.00
O270   O     0.90695   0.31331   0.01867   0.00000  Uiso   1.00
O271   O     0.16667   0.68573   0.29071   0.00000  Uiso   1.00
O272   O     0.16666   0.81428   0.20928   0.00000  Uiso   1.00
O273   O     0.16667   0.68573   0.20928   0.00000  Uiso   1.00
O274   O     0.16666   0.81427   0.29072   0.00000  Uiso   1.00
C275   C     0.16723   0.66502   0.25006   0.00000  Uiso   1.00
C276   C     0.16517   0.83507   0.24984   0.00000  Uiso   1.00
O277   O     0.09161   0.75000   0.28132   0.00000  Uiso   1.00
O278   O     0.24172   0.75001   0.21868   0.00000  Uiso   1.00
O279   O     0.09161   0.75000   0.19988   0.00000  Uiso   1.00
O280   O     0.24172   0.75000   0.30011   0.00000  Uiso   1.00
C281   C     0.06809   0.75145   0.23785   0.00000  Uiso   1.00
C282   C     0.26535   0.74917   0.26219   0.00000  Uiso   1.00
Cu283  Cu    0.16667   0.75000   0.29821   0.00000  Uiso   1.00
Cu284  Cu    0.16667   0.75001   0.20178   0.00000  Uiso   1.00
C285   C     0.01351   0.75924   0.23301   0.00000  Uiso   1.00
C286   C     0.32017   0.74247   0.26730   0.00000  Uiso   1.00
C287   C     0.11804   0.54973   0.23777   0.00000  Uiso   1.00
C288   C     0.19247   0.95169   0.21770   0.00000  Uiso   1.00
H289   H     0.08125   0.53382   0.22961   0.00000  Uiso   1.00
H290   H     0.21629   0.96832   0.19454   0.00000  Uiso   1.00
C291   C     0.11994   0.59574   0.23923   0.00000  Uiso   1.00
C292   C     0.19242   0.90571   0.21879   0.00000  Uiso   1.00
H293   H     0.08457   0.61498   0.23243   0.00000  Uiso   1.00
H294   H     0.21652   0.88743   0.19655   0.00000  Uiso   1.00
C295   C     0.16707   0.61684   0.25016   0.00000  Uiso   1.00
C296   C     0.16248   0.88345   0.24902   0.00000  Uiso   1.00
C297   C     0.21301   0.59160   0.26040   0.00000  Uiso   1.00
C298   C     0.13092   0.90788   0.27759   0.00000  Uiso   1.00
C299   C     0.21075   0.54543   0.25722   0.00000  Uiso   1.00
C300   C     0.13131   0.95422   0.27599   0.00000  Uiso   1.00
H301   H     0.24560   0.52559   0.26531   0.00000  Uiso   1.00
H302   H     0.10757   0.97337   0.29785   0.00000  Uiso   1.00
C303   C     0.16351   0.52449   0.24642   0.00000  Uiso   1.00
C304   C     0.16198   0.97607   0.24629   0.00000  Uiso   1.00
C305   C     0.13723   0.78331   0.05118   0.00000  Uiso   1.00
C306   C     0.13585   0.71860   0.44135   0.00000  Uiso   1.00
H307   H     0.11679   0.81027   0.03096   0.00000  Uiso   1.00
H308   H     0.11449   0.69284   0.45641   0.00000  Uiso   1.00
C309   C     0.13988   0.78255   0.10225   0.00000  Uiso   1.00
C310   C     0.13867   0.71906   0.39097   0.00000  Uiso   1.00
H311   H     0.12037   0.80839   0.12022   0.00000  Uiso   1.00
H312   H     0.11843   0.69424   0.36808   0.00000  Uiso   1.00
N313   N     0.16667   0.75001   0.12934   0.00000  Uiso   1.00
N314   N     0.16667   0.74999   0.37065   0.00000  Uiso   1.00
C315   C     0.19120   0.71702   0.10641   0.00000  Uiso   1.00
C316   C     0.19221   0.78172   0.39975   0.00000  Uiso   1.00
C317   C     0.18593   0.71467   0.05453   0.00000  Uiso   1.00
C318   C     0.18691   0.78441   0.45025   0.00000  Uiso   1.00
C319   C     0.16035   0.74932   0.02642   0.00000  Uiso   1.00
C320   C     0.16019   0.75129   0.47194   0.00000  Uiso   1.00
N321   N     0.32489   0.79152   0.19751   0.00000  Uiso   1.00
O322   O     0.29853   0.82521   0.21103   0.00000  Uiso   1.00
O323   O     0.00540   0.79166   0.15414   0.00000  Uiso   1.00
N324   N     0.00952   0.71072   0.30303   0.00000  Uiso   1.00
O325   O     0.03421   0.67604   0.28947   0.00000  Uiso   1.00
O326   O     0.00028   0.71343   0.34790   0.00000  Uiso   1.00
N327   N     0.26148   0.61195   0.27582   0.00000  Uiso   1.00
O328   O     0.26392   0.64484   0.30636   0.00000  Uiso   1.00
O329   O     0.30401   0.59250   0.26727   0.00000  Uiso   1.00
N330   N     0.09724   0.88656   0.30686   0.00000  Uiso   1.00
O331   O     0.07012   0.85296   0.28983   0.00000  Uiso   1.00
O332   O     0.08733   0.90503   0.34714   0.00000  Uiso   1.00
O333   O     0.21884   0.68443   0.13403   0.00000  Uiso   1.00
C334   C     0.27203   0.68865   0.13122   0.00000  Uiso   1.00
H335   H     0.28817   0.71403   0.15737   0.00000  Uiso   1.00
H336   H     0.28080   0.69864   0.09461   0.00000  Uiso   1.00
C337   C     0.29929   0.64442   0.14443   0.00000  Uiso   1.00
H338   H     0.29358   0.63517   0.18204   0.00000  Uiso   1.00
H339   H     0.28238   0.61830   0.11918   0.00000  Uiso   1.00
C340   C     0.02338   0.64689   0.14111   0.00000  Uiso   1.00
H341   H     0.03002   0.65719   0.10404   0.00000  Uiso   1.00
H342   H     0.04155   0.61373   0.14867   0.00000  Uiso   1.00
H343   H     0.04167   0.67093   0.16815   0.00000  Uiso   1.00
O344   O     0.22178   0.81235   0.37937   0.00000  Uiso   1.00
C345   C     0.27467   0.80496   0.39626   0.00000  Uiso   1.00
H346   H     0.29189   0.78417   0.36964   0.00000  Uiso   1.00
H347   H     0.28230   0.78773   0.43211   0.00000  Uiso   1.00
C348   C     0.30263   0.84907   0.40018   0.00000  Uiso   1.00
H349   H     0.29838   0.86534   0.36391   0.00000  Uiso   1.00
H350   H     0.28540   0.87130   0.42587   0.00000  Uiso   1.00
C351   C     0.02634   0.84219   0.41843   0.00000  Uiso   1.00
H352   H     0.03150   0.82514   0.45425   0.00000  Uiso   1.00
H353   H     0.04523   0.87482   0.42300   0.00000  Uiso   1.00
H354   H     0.04521   0.82206   0.39195   0.00000  Uiso   1.00
N355   N     0.20690   0.67721   0.03117   0.00000  Uiso   1.00
O356   O     0.19945   0.63722   0.04585   0.00000  Uiso   1.00
O357   O     0.23665   0.68296   0.49778   0.00000  Uiso   1.00
N358   N     0.20917   0.82065   0.47886   0.00000  Uiso   1.00
O359   O     0.19958   0.86122   0.46422   0.00000  Uiso   1.00
O360   O     0.24028   0.81331   0.01867   0.00000  Uiso   1.00
O361   O     0.50000   0.68573   0.29071   0.00000  Uiso   1.00
O362   O     0.50000   0.81428   0.20928   0.00000  Uiso   1.00
O363   O     0.50000   0.68573   0.20928   0.00000  Uiso   1.00
O364   O     0.50000   0.81427   0.29072   0.00000  Uiso   1.00
C365   C     0.50056   0.66502   0.25006   0.00000  Uiso   1.00
C366   C     0.49850   0.83507   0.24984   0.00000  Uiso   1.00
O367   O     0.42495   0.75000   0.28132   0.00000  Uiso   1.00
O368   O     0.57505   0.75001   0.21868   0.00000  Uiso   1.00
O369   O     0.42495   0.75000   0.19988   0.00000  Uiso   1.00
O370   O     0.57505   0.75000   0.30011   0.00000  Uiso   1.00
C371   C     0.40142   0.75145   0.23785   0.00000  Uiso   1.00
C372   C     0.59868   0.74917   0.26219   0.00000  Uiso   1.00
Cu373  Cu    0.50000   0.75000   0.29821   0.00000  Uiso   1.00
Cu374  Cu    0.50000   0.75001   0.20178   0.00000  Uiso   1.00
C375   C     0.34685   0.75924   0.23301   0.00000  Uiso   1.00
C376   C     0.65351   0.74247   0.26730   0.00000  Uiso   1.00
C377   C     0.45137   0.54973   0.23777   0.00000  Uiso   1.00
C378   C     0.52581   0.95169   0.21770   0.00000  Uiso   1.00
H379   H     0.41458   0.53382   0.22961   0.00000  Uiso   1.00
H380   H     0.54963   0.96832   0.19454   0.00000  Uiso   1.00
C381   C     0.45327   0.59574   0.23923   0.00000  Uiso   1.00
C382   C     0.52575   0.90571   0.21879   0.00000  Uiso   1.00
H383   H     0.41790   0.61498   0.23243   0.00000  Uiso   1.00
H384   H     0.54985   0.88743   0.19655   0.00000  Uiso   1.00
C385   C     0.50040   0.61684   0.25016   0.00000  Uiso   1.00
C386   C     0.49582   0.88345   0.24902   0.00000  Uiso   1.00
C387   C     0.54634   0.59160   0.26040   0.00000  Uiso   1.00
C388   C     0.46426   0.90788   0.27759   0.00000  Uiso   1.00
C389   C     0.54408   0.54543   0.25722   0.00000  Uiso   1.00
C390   C     0.46464   0.95422   0.27599   0.00000  Uiso   1.00
H391   H     0.57893   0.52559   0.26531   0.00000  Uiso   1.00
H392   H     0.44090   0.97337   0.29785   0.00000  Uiso   1.00
C393   C     0.49685   0.52449   0.24642   0.00000  Uiso   1.00
C394   C     0.49531   0.97607   0.24629   0.00000  Uiso   1.00
C395   C     0.47057   0.78331   0.05118   0.00000  Uiso   1.00
C396   C     0.46918   0.71860   0.44135   0.00000  Uiso   1.00
H397   H     0.45012   0.81027   0.03096   0.00000  Uiso   1.00
H398   H     0.44782   0.69284   0.45641   0.00000  Uiso   1.00
C399   C     0.47322   0.78255   0.10225   0.00000  Uiso   1.00
C400   C     0.47200   0.71906   0.39097   0.00000  Uiso   1.00
H401   H     0.45371   0.80839   0.12022   0.00000  Uiso   1.00
H402   H     0.45176   0.69424   0.36808   0.00000  Uiso   1.00
N403   N     0.50000   0.75001   0.12934   0.00000  Uiso   1.00
N404   N     0.50000   0.74999   0.37065   0.00000  Uiso   1.00
C405   C     0.52453   0.71702   0.10641   0.00000  Uiso   1.00
C406   C     0.52555   0.78172   0.39975   0.00000  Uiso   1.00
C407   C     0.51926   0.71467   0.05453   0.00000  Uiso   1.00
C408   C     0.52025   0.78441   0.45025   0.00000  Uiso   1.00
C409   C     0.49369   0.74932   0.02642   0.00000  Uiso   1.00
C410   C     0.49352   0.75129   0.47194   0.00000  Uiso   1.00
N411   N     0.65822   0.79152   0.19751   0.00000  Uiso   1.00
O412   O     0.63187   0.82521   0.21103   0.00000  Uiso   1.00
O413   O     0.33873   0.79166   0.15414   0.00000  Uiso   1.00
N414   N     0.34286   0.71072   0.30303   0.00000  Uiso   1.00
O415   O     0.36755   0.67604   0.28947   0.00000  Uiso   1.00
O416   O     0.33362   0.71343   0.34790   0.00000  Uiso   1.00
N417   N     0.59481   0.61195   0.27582   0.00000  Uiso   1.00
O418   O     0.59725   0.64484   0.30636   0.00000  Uiso   1.00
O419   O     0.63735   0.59250   0.26727   0.00000  Uiso   1.00
N420   N     0.43057   0.88656   0.30686   0.00000  Uiso   1.00
O421   O     0.40345   0.85296   0.28983   0.00000  Uiso   1.00
O422   O     0.42067   0.90503   0.34714   0.00000  Uiso   1.00
O423   O     0.55217   0.68443   0.13403   0.00000  Uiso   1.00
C424   C     0.60536   0.68865   0.13122   0.00000  Uiso   1.00
H425   H     0.62150   0.71403   0.15737   0.00000  Uiso   1.00
H426   H     0.61414   0.69864   0.09461   0.00000  Uiso   1.00
C427   C     0.63262   0.64442   0.14443   0.00000  Uiso   1.00
H428   H     0.62691   0.63517   0.18204   0.00000  Uiso   1.00
H429   H     0.61572   0.61830   0.11918   0.00000  Uiso   1.00
C430   C     0.35671   0.64689   0.14111   0.00000  Uiso   1.00
H431   H     0.36335   0.65719   0.10404   0.00000  Uiso   1.00
H432   H     0.37488   0.61373   0.14867   0.00000  Uiso   1.00
H433   H     0.37500   0.67093   0.16815   0.00000  Uiso   1.00
O434   O     0.55511   0.81235   0.37937   0.00000  Uiso   1.00
C435   C     0.60800   0.80496   0.39626   0.00000  Uiso   1.00
H436   H     0.62522   0.78417   0.36964   0.00000  Uiso   1.00
H437   H     0.61563   0.78773   0.43211   0.00000  Uiso   1.00
C438   C     0.63596   0.84907   0.40018   0.00000  Uiso   1.00
H439   H     0.63172   0.86534   0.36391   0.00000  Uiso   1.00
H440   H     0.61873   0.87130   0.42587   0.00000  Uiso   1.00
C441   C     0.35968   0.84219   0.41843   0.00000  Uiso   1.00
H442   H     0.36483   0.82514   0.45425   0.00000  Uiso   1.00
H443   H     0.37856   0.87482   0.42300   0.00000  Uiso   1.00
H444   H     0.37854   0.82206   0.39195   0.00000  Uiso   1.00
N445   N     0.54023   0.67721   0.03117   0.00000  Uiso   1.00
O446   O     0.53278   0.63722   0.04585   0.00000  Uiso   1.00
O447   O     0.56998   0.68296   0.49778   0.00000  Uiso   1.00
N448   N     0.54250   0.82065   0.47886   0.00000  Uiso   1.00
O449   O     0.53292   0.86122   0.46422   0.00000  Uiso   1.00
O450   O     0.57361   0.81331   0.01867   0.00000  Uiso   1.00
O451   O     0.83334   0.68573   0.29071   0.00000  Uiso   1.00
O452   O     0.83333   0.81428   0.20928   0.00000  Uiso   1.00
O453   O     0.83334   0.68573   0.20928   0.00000  Uiso   1.00
O454   O     0.83333   0.81427   0.29072   0.00000  Uiso   1.00
C455   C     0.83389   0.66502   0.25006   0.00000  Uiso   1.00
C456   C     0.83184   0.83507   0.24984   0.00000  Uiso   1.00
O457   O     0.75828   0.75000   0.28132   0.00000  Uiso   1.00
O458   O     0.90839   0.75001   0.21868   0.00000  Uiso   1.00
O459   O     0.75828   0.75000   0.19988   0.00000  Uiso   1.00
O460   O     0.90839   0.75000   0.30011   0.00000  Uiso   1.00
C461   C     0.73475   0.75145   0.23785   0.00000  Uiso   1.00
C462   C     0.93201   0.74917   0.26219   0.00000  Uiso   1.00
Cu463  Cu    0.83333   0.75000   0.29821   0.00000  Uiso   1.00
Cu464  Cu    0.83333   0.75001   0.20178   0.00000  Uiso   1.00
C465   C     0.68018   0.75924   0.23301   0.00000  Uiso   1.00
C466   C     0.98684   0.74247   0.26730   0.00000  Uiso   1.00
C467   C     0.78471   0.54973   0.23777   0.00000  Uiso   1.00
C468   C     0.85914   0.95169   0.21770   0.00000  Uiso   1.00
H469   H     0.74792   0.53382   0.22961   0.00000  Uiso   1.00
H470   H     0.88296   0.96832   0.19454   0.00000  Uiso   1.00
C471   C     0.78660   0.59574   0.23923   0.00000  Uiso   1.00
C472   C     0.85908   0.90571   0.21879   0.00000  Uiso   1.00
H473   H     0.75124   0.61498   0.23243   0.00000  Uiso   1.00
H474   H     0.88319   0.88743   0.19655   0.00000  Uiso   1.00
C475   C     0.83374   0.61684   0.25016   0.00000  Uiso   1.00
C476   C     0.82915   0.88345   0.24902   0.00000  Uiso   1.00
C477   C     0.87968   0.59160   0.26040   0.00000  Uiso   1.00
C478   C     0.79759   0.90788   0.27759   0.00000  Uiso   1.00
C479   C     0.87742   0.54543   0.25722   0.00000  Uiso   1.00
C480   C     0.79797   0.95422   0.27599   0.00000  Uiso   1.00
H481   H     0.91227   0.52559   0.26531   0.00000  Uiso   1.00
H482   H     0.77424   0.97337   0.29785   0.00000  Uiso   1.00
C483   C     0.83018   0.52449   0.24642   0.00000  Uiso   1.00
C484   C     0.82864   0.97607   0.24629   0.00000  Uiso   1.00
C485   C     0.80390   0.78331   0.05118   0.00000  Uiso   1.00
C486   C     0.80251   0.71860   0.44135   0.00000  Uiso   1.00
H487   H     0.78345   0.81027   0.03096   0.00000  Uiso   1.00
H488   H     0.78116   0.69284   0.45641   0.00000  Uiso   1.00
C489   C     0.80655   0.78255   0.10225   0.00000  Uiso   1.00
C490   C     0.80534   0.71906   0.39097   0.00000  Uiso   1.00
H491   H     0.78704   0.80839   0.12022   0.00000  Uiso   1.00
H492   H     0.78509   0.69424   0.36808   0.00000  Uiso   1.00
N493   N     0.83333   0.75001   0.12934   0.00000  Uiso   1.00
N494   N     0.83333   0.74999   0.37065   0.00000  Uiso   1.00
C495   C     0.85787   0.71702   0.10641   0.00000  Uiso   1.00
C496   C     0.85888   0.78172   0.39975   0.00000  Uiso   1.00
C497   C     0.85260   0.71467   0.05453   0.00000  Uiso   1.00
C498   C     0.85358   0.78441   0.45025   0.00000  Uiso   1.00
C499   C     0.82702   0.74932   0.02642   0.00000  Uiso   1.00
C500   C     0.82686   0.75129   0.47194   0.00000  Uiso   1.00
N501   N     0.99156   0.79152   0.19751   0.00000  Uiso   1.00
O502   O     0.96520   0.82521   0.21103   0.00000  Uiso   1.00
O503   O     0.67207   0.79166   0.15414   0.00000  Uiso   1.00
N504   N     0.67619   0.71072   0.30303   0.00000  Uiso   1.00
O505   O     0.70088   0.67604   0.28947   0.00000  Uiso   1.00
O506   O     0.66695   0.71343   0.34790   0.00000  Uiso   1.00
N507   N     0.92815   0.61195   0.27582   0.00000  Uiso   1.00
O508   O     0.93058   0.64484   0.30636   0.00000  Uiso   1.00
O509   O     0.97068   0.59250   0.26727   0.00000  Uiso   1.00
N510   N     0.76391   0.88656   0.30686   0.00000  Uiso   1.00
O511   O     0.73678   0.85296   0.28983   0.00000  Uiso   1.00
O512   O     0.75400   0.90503   0.34714   0.00000  Uiso   1.00
O513   O     0.88550   0.68443   0.13403   0.00000  Uiso   1.00
C514   C     0.93869   0.68865   0.13122   0.00000  Uiso   1.00
H515   H     0.95484   0.71403   0.15737   0.00000  Uiso   1.00
H516   H     0.94747   0.69864   0.09461   0.00000  Uiso   1.00
C517   C     0.96595   0.64442   0.14443   0.00000  Uiso   1.00
H518   H     0.96025   0.63517   0.18204   0.00000  Uiso   1.00
H519   H     0.94905   0.61830   0.11918   0.00000  Uiso   1.00
C520   C     0.69005   0.64689   0.14111   0.00000  Uiso   1.00
H521   H     0.69668   0.65719   0.10404   0.00000  Uiso   1.00
H522   H     0.70821   0.61373   0.14867   0.00000  Uiso   1.00
H523   H     0.70833   0.67093   0.16815   0.00000  Uiso   1.00
O524   O     0.88845   0.81235   0.37937   0.00000  Uiso   1.00
C525   C     0.94134   0.80496   0.39626   0.00000  Uiso   1.00
H526   H     0.95855   0.78417   0.36964   0.00000  Uiso   1.00
H527   H     0.94897   0.78773   0.43211   0.00000  Uiso   1.00
C528   C     0.96929   0.84907   0.40018   0.00000  Uiso   1.00
H529   H     0.96505   0.86534   0.36391   0.00000  Uiso   1.00
H530   H     0.95206   0.87130   0.42587   0.00000  Uiso   1.00
C531   C     0.69301   0.84219   0.41843   0.00000  Uiso   1.00
H532   H     0.69817   0.82514   0.45425   0.00000  Uiso   1.00
H533   H     0.71189   0.87482   0.42300   0.00000  Uiso   1.00
H534   H     0.71187   0.82206   0.39195   0.00000  Uiso   1.00
N535   N     0.87356   0.67721   0.03117   0.00000  Uiso   1.00
O536   O     0.86611   0.63722   0.04585   0.00000  Uiso   1.00
O537   O     0.90332   0.68296   0.49778   0.00000  Uiso   1.00
N538   N     0.87584   0.82065   0.47886   0.00000  Uiso   1.00
O539   O     0.86625   0.86122   0.46422   0.00000  Uiso   1.00
O540   O     0.90695   0.81331   0.01867   0.00000  Uiso   1.00
O541   O     0.16667   0.18573   0.79071   0.00000  Uiso   1.00
O542   O     0.16666   0.31428   0.70928   0.00000  Uiso   1.00
O543   O     0.16667   0.18573   0.70928   0.00000  Uiso   1.00
O544   O     0.16666   0.31427   0.79072   0.00000  Uiso   1.00
C545   C     0.16723   0.16502   0.75006   0.00000  Uiso   1.00
C546   C     0.16517   0.33507   0.74984   0.00000  Uiso   1.00
O547   O     0.09161   0.25000   0.78132   0.00000  Uiso   1.00
O548   O     0.24172   0.25001   0.71868   0.00000  Uiso   1.00
O549   O     0.09161   0.25000   0.69988   0.00000  Uiso   1.00
O550   O     0.24172   0.25000   0.80011   0.00000  Uiso   1.00
C551   C     0.06809   0.25145   0.73785   0.00000  Uiso   1.00
C552   C     0.26535   0.24917   0.76219   0.00000  Uiso   1.00
Cu553  Cu    0.16667   0.25000   0.79821   0.00000  Uiso   1.00
Cu554  Cu    0.16667   0.25001   0.70178   0.00000  Uiso   1.00
C555   C     0.01351   0.25924   0.73301   0.00000  Uiso   1.00
C556   C     0.32017   0.24247   0.76730   0.00000  Uiso   1.00
C557   C     0.11804   0.04973   0.73777   0.00000  Uiso   1.00
C558   C     0.19247   0.45169   0.71770   0.00000  Uiso   1.00
H559   H     0.08125   0.03382   0.72961   0.00000  Uiso   1.00
H560   H     0.21629   0.46832   0.69454   0.00000  Uiso   1.00
C561   C     0.11994   0.09574   0.73923   0.00000  Uiso   1.00
C562   C     0.19242   0.40571   0.71879   0.00000  Uiso   1.00
H563   H     0.08457   0.11498   0.73243   0.00000  Uiso   1.00
H564   H     0.21652   0.38743   0.69655   0.00000  Uiso   1.00
C565   C     0.16707   0.11684   0.75016   0.00000  Uiso   1.00
C566   C     0.16248   0.38345   0.74902   0.00000  Uiso   1.00
C567   C     0.21301   0.09160   0.76040   0.00000  Uiso   1.00
C568   C     0.13092   0.40788   0.77759   0.00000  Uiso   1.00
C569   C     0.21075   0.04543   0.75722   0.00000  Uiso   1.00
C570   C     0.13131   0.45422   0.77599   0.00000  Uiso   1.00
H571   H     0.24560   0.02559   0.76531   0.00000  Uiso   1.00
H572   H     0.10757   0.47337   0.79785   0.00000  Uiso   1.00
C573   C     0.16351   0.02449   0.74642   0.00000  Uiso   1.00
C574   C     0.16198   0.47607   0.74629   0.00000  Uiso   1.00
C575   C     0.13723   0.28331   0.55118   0.00000  Uiso   1.00
C576   C     0.13585   0.21860   0.94135   0.00000  Uiso   1.00
H577   H     0.11679   0.31027   0.53096   0.00000  Uiso   1.00
H578   H     0.11449   0.19284   0.95641   0.00000  Uiso   1.00
C579   C     0.13988   0.28255   0.60225   0.00000  Uiso   1.00
C580   C     0.13867   0.21906   0.89097   0.00000  Uiso   1.00
H581   H     0.12037   0.30839   0.62022   0.00000  Uiso   1.00
H582   H     0.11843   0.19424   0.86808   0.00000  Uiso   1.00
N583   N     0.16667   0.25001   0.62934   0.00000  Uiso   1.00
N584   N     0.16667   0.24999   0.87065   0.00000  Uiso   1.00
C585   C     0.19120   0.21702   0.60641   0.00000  Uiso   1.00
C586   C     0.19221   0.28172   0.89975   0.00000  Uiso   1.00
C587   C     0.18593   0.21467   0.55453   0.00000  Uiso   1.00
C588   C     0.18691   0.28441   0.95025   0.00000  Uiso   1.00
C589   C     0.16035   0.24932   0.52642   0.00000  Uiso   1.00
C590   C     0.16019   0.25129   0.97194   0.00000  Uiso   1.00
N591   N     0.32489   0.29152   0.69751   0.00000  Uiso   1.00
O592   O     0.29853   0.32521   0.71103   0.00000  Uiso   1.00
O593   O     0.00540   0.29166   0.65414   0.00000  Uiso   1.00
N594   N     0.00952   0.21072   0.80303   0.00000  Uiso   1.00
O595   O     0.03421   0.17604   0.78947   0.00000  Uiso   1.00
O596   O     0.00028   0.21343   0.84790   0.00000  Uiso   1.00
N597   N     0.26148   0.11195   0.77582   0.00000  Uiso   1.00
O598   O     0.26392   0.14484   0.80636   0.00000  Uiso   1.00
O599   O     0.30401   0.09250   0.76727   0.00000  Uiso   1.00
N600   N     0.09724   0.38656   0.80686   0.00000  Uiso   1.00
O601   O     0.07012   0.35296   0.78983   0.00000  Uiso   1.00
O602   O     0.08733   0.40503   0.84714   0.00000  Uiso   1.00
O603   O     0.21884   0.18443   0.63403   0.00000  Uiso   1.00
C604   C     0.27203   0.18865   0.63122   0.00000  Uiso   1.00
H605   H     0.28817   0.21403   0.65737   0.00000  Uiso   1.00
H606   H     0.28080   0.19864   0.59461   0.00000  Uiso   1.00
C607   C     0.29929   0.14442   0.64443   0.00000  Uiso   1.00
H608   H     0.29358   0.13517   0.68204   0.00000  Uiso   1.00
H609   H     0.28238   0.11830   0.61918   0.00000  Uiso   1.00
C610   C     0.02338   0.14689   0.64111   0.00000  Uiso   1.00
H611   H     0.03002   0.15719   0.60404   0.00000  Uiso   1.00
H612   H     0.04155   0.11373   0.64867   0.00000  Uiso   1.00
H613   H     0.04167   0.17093   0.66815   0.00000  Uiso   1.00
O614   O     0.22178   0.31235   0.87937   0.00000  Uiso   1.00
C615   C     0.27467   0.30496   0.89626   0.00000  Uiso   1.00
H616   H     0.29189   0.28417   0.86964   0.00000  Uiso   1.00
H617   H     0.28230   0.28773   0.93211   0.00000  Uiso   1.00
C618   C     0.30263   0.34907   0.90018   0.00000  Uiso   1.00
H619   H     0.29838   0.36534   0.86391   0.00000  Uiso   1.00
H620   H     0.28540   0.37130   0.92587   0.00000  Uiso   1.00
C621   C     0.02634   0.34219   0.91843   0.00000  Uiso   1.00
H622   H     0.03150   0.32514   0.95425   0.00000  Uiso   1.00
H623   H     0.04523   0.37482   0.92300   0.00000  Uiso   1.00
H624   H     0.04521   0.32206   0.89195   0.00000  Uiso   1.00
N625   N     0.20690   0.17721   0.53117   0.00000  Uiso   1.00
O626   O     0.19945   0.13722   0.54585   0.00000  Uiso   1.00
O627   O     0.23665   0.18296   0.99778   0.00000  Uiso   1.00
N628   N     0.20917   0.32065   0.97886   0.00000  Uiso   1.00
O629   O     0.19958   0.36122   0.96422   0.00000  Uiso   1.00
O630   O     0.24028   0.31331   0.51867   0.00000  Uiso   1.00
O631   O     0.50000   0.18573   0.79071   0.00000  Uiso   1.00
O632   O     0.50000   0.31428   0.70928   0.00000  Uiso   1.00
O633   O     0.50000   0.18573   0.70928   0.00000  Uiso   1.00
O634   O     0.50000   0.31427   0.79072   0.00000  Uiso   1.00
C635   C     0.50056   0.16502   0.75006   0.00000  Uiso   1.00
C636   C     0.49850   0.33507   0.74984   0.00000  Uiso   1.00
O637   O     0.42495   0.25000   0.78132   0.00000  Uiso   1.00
O638   O     0.57505   0.25001   0.71868   0.00000  Uiso   1.00
O639   O     0.42495   0.25000   0.69988   0.00000  Uiso   1.00
O640   O     0.57505   0.25000   0.80011   0.00000  Uiso   1.00
C641   C     0.40142   0.25145   0.73785   0.00000  Uiso   1.00
C642   C     0.59868   0.24917   0.76219   0.00000  Uiso   1.00
Cu643  Cu    0.50000   0.25000   0.79821   0.00000  Uiso   1.00
Cu644  Cu    0.50000   0.25001   0.70178   0.00000  Uiso   1.00
C645   C     0.34685   0.25924   0.73301   0.00000  Uiso   1.00
C646   C     0.65351   0.24247   0.76730   0.00000  Uiso   1.00
C647   C     0.45137   0.04973   0.73777   0.00000  Uiso   1.00
C648   C     0.52581   0.45169   0.71770   0.00000  Uiso   1.00
H649   H     0.41458   0.03382   0.72961   0.00000  Uiso   1.00
H650   H     0.54963   0.46832   0.69454   0.00000  Uiso   1.00
C651   C     0.45327   0.09574   0.73923   0.00000  Uiso   1.00
C652   C     0.52575   0.40571   0.71879   0.00000  Uiso   1.00
H653   H     0.41790   0.11498   0.73243   0.00000  Uiso   1.00
H654   H     0.54985   0.38743   0.69655   0.00000  Uiso   1.00
C655   C     0.50040   0.11684   0.75016   0.00000  Uiso   1.00
C656   C     0.49582   0.38345   0.74902   0.00000  Uiso   1.00
C657   C     0.54634   0.09160   0.76040   0.00000  Uiso   1.00
C658   C     0.46426   0.40788   0.77759   0.00000  Uiso   1.00
C659   C     0.54408   0.04543   0.75722   0.00000  Uiso   1.00
C660   C     0.46464   0.45422   0.77599   0.00000  Uiso   1.00
H661   H     0.57893   0.02559   0.76531   0.00000  Uiso   1.00
H662   H     0.44090   0.47337   0.79785   0.00000  Uiso   1.00
C663   C     0.49685   0.02449   0.74642   0.00000  Uiso   1.00
C664   C     0.49531   0.47607   0.74629   0.00000  Uiso   1.00
C665   C     0.47057   0.28331   0.55118   0.00000  Uiso   1.00
C666   C     0.46918   0.21860   0.94135   0.00000  Uiso   1.00
H667   H     0.45012   0.31027   0.53096   0.00000  Uiso   1.00
H668   H     0.44782   0.19284   0.95641   0.00000  Uiso   1.00
C669   C     0.47322   0.28255   0.60225   0.00000  Uiso   1.00
C670   C     0.47200   0.21906   0.89097   0.00000  Uiso   1.00
H671   H     0.45371   0.30839   0.62022   0.00000  Uiso   1.00
H672   H     0.45176   0.19424   0.86808   0.00000  Uiso   1.00
N673   N     0.50000   0.25001   0.62934   0.00000  Uiso   1.00
N674   N     0.50000   0.24999   0.87065   0.00000  Uiso   1.00
C675   C     0.52453   0.21702   0.60641   0.00000  Uiso   1.00
C676   C     0.52555   0.28172   0.89975   0.00000  Uiso   1.00
C677   C     0.51926   0.21467   0.55453   0.00000  Uiso   1.00
C678   C     0.52025   0.28441   0.95025   0.00000  Uiso   1.00
C679   C     0.49369   0.24932   0.52642   0.00000  Uiso   1.00
C680   C     0.49352   0.25129   0.97194   0.00000  Uiso   1.00
N681   N     0.65822   0.29152   0.69751   0.00000  Uiso   1.00
O682   O     0.63187   0.32521   0.71103   0.00000  Uiso   1.00
O683   O     0.33873   0.29166   0.65414   0.00000  Uiso   1.00
N684   N     0.34286   0.21072   0.80303   0.00000  Uiso   1.00
O685   O     0.36755   0.17604   0.78947   0.00000  Uiso   1.00
O686   O     0.33362   0.21343   0.84790   0.00000  Uiso   1.00
N687   N     0.59481   0.11195   0.77582   0.00000  Uiso   1.00
O688   O     0.59725   0.14484   0.80636   0.00000  Uiso   1.00
O689   O     0.63735   0.09250   0.76727   0.00000  Uiso   1.00
N690   N     0.43057   0.38656   0.80686   0.00000  Uiso   1.00
O691   O     0.40345   0.35296   0.78983   0.00000  Uiso   1.00
O692   O     0.42067   0.40503   0.84714   0.00000  Uiso   1.00
O693   O     0.55217   0.18443   0.63403   0.00000  Uiso   1.00
C694   C     0.60536   0.18865   0.63122   0.00000  Uiso   1.00
H695   H     0.62150   0.21403   0.65737   0.00000  Uiso   1.00
H696   H     0.61414   0.19864   0.59461   0.00000  Uiso   1.00
C697   C     0.63262   0.14442   0.64443   0.00000  Uiso   1.00
H698   H     0.62691   0.13517   0.68204   0.00000  Uiso   1.00
H699   H     0.61572   0.11830   0.61918   0.00000  Uiso   1.00
C700   C     0.35671   0.14689   0.64111   0.00000  Uiso   1.00
H701   H     0.36335   0.15719   0.60404   0.00000  Uiso   1.00
H702   H     0.37488   0.11373   0.64867   0.00000  Uiso   1.00
H703   H     0.37500   0.17093   0.66815   0.00000  Uiso   1.00
O704   O     0.55511   0.31235   0.87937   0.00000  Uiso   1.00
C705   C     0.60800   0.30496   0.89626   0.00000  Uiso   1.00
H706   H     0.62522   0.28417   0.86964   0.00000  Uiso   1.00
H707   H     0.61563   0.28773   0.93211   0.00000  Uiso   1.00
C708   C     0.63596   0.34907   0.90018   0.00000  Uiso   1.00
H709   H     0.63172   0.36534   0.86391   0.00000  Uiso   1.00
H710   H     0.61873   0.37130   0.92587   0.00000  Uiso   1.00
C711   C     0.35968   0.34219   0.91843   0.00000  Uiso   1.00
H712   H     0.36483   0.32514   0.95425   0.00000  Uiso   1.00
H713   H     0.37856   0.37482   0.92300   0.00000  Uiso   1.00
H714   H     0.37854   0.32206   0.89195   0.00000  Uiso   1.00
N715   N     0.54023   0.17721   0.53117   0.00000  Uiso   1.00
O716   O     0.53278   0.13722   0.54585   0.00000  Uiso   1.00
O717   O     0.56998   0.18296   0.99778   0.00000  Uiso   1.00
N718   N     0.54250   0.32065   0.97886   0.00000  Uiso   1.00
O719   O     0.53292   0.36122   0.96422   0.00000  Uiso   1.00
O720   O     0.57361   0.31331   0.51867   0.00000  Uiso   1.00
O721   O     0.83334   0.18573   0.79071   0.00000  Uiso   1.00
O722   O     0.83333   0.31428   0.70928   0.00000  Uiso   1.00
O723   O     0.83334   0.18573   0.70928   0.00000  Uiso   1.00
O724   O     0.83333   0.31427   0.79072   0.00000  Uiso   1.00
C725   C     0.83389   0.16502   0.75006   0.00000  Uiso   1.00
C726   C     0.83184   0.33507   0.74984   0.00000  Uiso   1.00
O727   O     0.75828   0.25000   0.78132   0.00000  Uiso   1.00
O728   O     0.90839   0.25001   0.71868   0.00000  Uiso   1.00
O729   O     0.75828   0.25000   0.69988   0.00000  Uiso   1.00
O730   O     0.90839   0.25000   0.80011   0.00000  Uiso   1.00
C731   C     0.73475   0.25145   0.73785   0.00000  Uiso   1.00
C732   C     0.93201   0.24917   0.76219   0.00000  Uiso   1.00
Cu733  Cu    0.83333   0.25000   0.79821   0.00000  Uiso   1.00
Cu734  Cu    0.83333   0.25001   0.70178   0.00000  Uiso   1.00
C735   C     0.68018   0.25924   0.73301   0.00000  Uiso   1.00
C736   C     0.98684   0.24247   0.76730   0.00000  Uiso   1.00
C737   C     0.78471   0.04973   0.73777   0.00000  Uiso   1.00
C738   C     0.85914   0.45169   0.71770   0.00000  Uiso   1.00
H739   H     0.74792   0.03382   0.72961   0.00000  Uiso   1.00
H740   H     0.88296   0.46832   0.69454   0.00000  Uiso   1.00
C741   C     0.78660   0.09574   0.73923   0.00000  Uiso   1.00
C742   C     0.85908   0.40571   0.71879   0.00000  Uiso   1.00
H743   H     0.75124   0.11498   0.73243   0.00000  Uiso   1.00
H744   H     0.88319   0.38743   0.69655   0.00000  Uiso   1.00
C745   C     0.83374   0.11684   0.75016   0.00000  Uiso   1.00
C746   C     0.82915   0.38345   0.74902   0.00000  Uiso   1.00
C747   C     0.87968   0.09160   0.76040   0.00000  Uiso   1.00
C748   C     0.79759   0.40788   0.77759   0.00000  Uiso   1.00
C749   C     0.87742   0.04543   0.75722   0.00000  Uiso   1.00
C750   C     0.79797   0.45422   0.77599   0.00000  Uiso   1.00
H751   H     0.91227   0.02559   0.76531   0.00000  Uiso   1.00
H752   H     0.77424   0.47337   0.79785   0.00000  Uiso   1.00
C753   C     0.83018   0.02449   0.74642   0.00000  Uiso   1.00
C754   C     0.82864   0.47607   0.74629   0.00000  Uiso   1.00
C755   C     0.80390   0.28331   0.55118   0.00000  Uiso   1.00
C756   C     0.80251   0.21860   0.94135   0.00000  Uiso   1.00
H757   H     0.78345   0.31027   0.53096   0.00000  Uiso   1.00
H758   H     0.78116   0.19284   0.95641   0.00000  Uiso   1.00
C759   C     0.80655   0.28255   0.60225   0.00000  Uiso   1.00
C760   C     0.80534   0.21906   0.89097   0.00000  Uiso   1.00
H761   H     0.78704   0.30839   0.62022   0.00000  Uiso   1.00
H762   H     0.78509   0.19424   0.86808   0.00000  Uiso   1.00
N763   N     0.83333   0.25001   0.62934   0.00000  Uiso   1.00
N764   N     0.83333   0.24999   0.87065   0.00000  Uiso   1.00
C765   C     0.85787   0.21702   0.60641   0.00000  Uiso   1.00
C766   C     0.85888   0.28172   0.89975   0.00000  Uiso   1.00
C767   C     0.85260   0.21467   0.55453   0.00000  Uiso   1.00
C768   C     0.85358   0.28441   0.95025   0.00000  Uiso   1.00
C769   C     0.82702   0.24932   0.52642   0.00000  Uiso   1.00
C770   C     0.82686   0.25129   0.97194   0.00000  Uiso   1.00
N771   N     0.99156   0.29152   0.69751   0.00000  Uiso   1.00
O772   O     0.96520   0.32521   0.71103   0.00000  Uiso   1.00
O773   O     0.67207   0.29166   0.65414   0.00000  Uiso   1.00
N774   N     0.67619   0.21072   0.80303   0.00000  Uiso   1.00
O775   O     0.70088   0.17604   0.78947   0.00000  Uiso   1.00
O776   O     0.66695   0.21343   0.84790   0.00000  Uiso   1.00
N777   N     0.92815   0.11195   0.77582   0.00000  Uiso   1.00
O778   O     0.93058   0.14484   0.80636   0.00000  Uiso   1.00
O779   O     0.97068   0.09250   0.76727   0.00000  Uiso   1.00
N780   N     0.76391   0.38656   0.80686   0.00000  Uiso   1.00
O781   O     0.73678   0.35296   0.78983   0.00000  Uiso   1.00
O782   O     0.75400   0.40503   0.84714   0.00000  Uiso   1.00
O783   O     0.88550   0.18443   0.63403   0.00000  Uiso   1.00
C784   C     0.93869   0.18865   0.63122   0.00000  Uiso   1.00
H785   H     0.95484   0.21403   0.65737   0.00000  Uiso   1.00
H786   H     0.94747   0.19864   0.59461   0.00000  Uiso   1.00
C787   C     0.96595   0.14442   0.64443   0.00000  Uiso   1.00
H788   H     0.96025   0.13517   0.68204   0.00000  Uiso   1.00
H789   H     0.94905   0.11830   0.61918   0.00000  Uiso   1.00
C790   C     0.69005   0.14689   0.64111   0.00000  Uiso   1.00
H791   H     0.69668   0.15719   0.60404   0.00000  Uiso   1.00
H792   H     0.70821   0.11373   0.64867   0.00000  Uiso   1.00
H793   H     0.70833   0.17093   0.66815   0.00000  Uiso   1.00
O794   O     0.88845   0.31235   0.87937   0.00000  Uiso   1.00
C795   C     0.94134   0.30496   0.89626   0.00000  Uiso   1.00
H796   H     0.95855   0.28417   0.86964   0.00000  Uiso   1.00
H797   H     0.94897   0.28773   0.93211   0.00000  Uiso   1.00
C798   C     0.96929   0.34907   0.90018   0.00000  Uiso   1.00
H799   H     0.96505   0.36534   0.86391   0.00000  Uiso   1.00
H800   H     0.95206   0.37130   0.92587   0.00000  Uiso   1.00
C801   C     0.69301   0.34219   0.91843   0.00000  Uiso   1.00
H802   H     0.69817   0.32514   0.95425   0.00000  Uiso   1.00
H803   H     0.71189   0.37482   0.92300   0.00000  Uiso   1.00
H804   H     0.71187   0.32206   0.89195   0.00000  Uiso   1.00
N805   N     0.87356   0.17721   0.53117   0.00000  Uiso   1.00
O806   O     0.86611   0.13722   0.54585   0.00000  Uiso   1.00
O807   O     0.90332   0.18296   0.99778   0.00000  Uiso   1.00
N808   N     0.87584   0.32065   0.97886   0.00000  Uiso   1.00
O809   O     0.86625   0.36122   0.96422   0.00000  Uiso   1.00
O810   O     0.90695   0.31331   0.51867   0.00000  Uiso   1.00
O811   O     0.16667   0.68573   0.79071   0.00000  Uiso   1.00
O812   O     0.16666   0.81428   0.70928   0.00000  Uiso   1.00
O813   O     0.16667   0.68573   0.70928   0.00000  Uiso   1.00
O814   O     0.16666   0.81427   0.79072   0.00000  Uiso   1.00
C815   C     0.16723   0.66502   0.75006   0.00000  Uiso   1.00
C816   C     0.16517   0.83507   0.74984   0.00000  Uiso   1.00
O817   O     0.09161   0.75000   0.78132   0.00000  Uiso   1.00
O818   O     0.24172   0.75001   0.71868   0.00000  Uiso   1.00
O819   O     0.09161   0.75000   0.69988   0.00000  Uiso   1.00
O820   O     0.24172   0.75000   0.80011   0.00000  Uiso   1.00
C821   C     0.06809   0.75145   0.73785   0.00000  Uiso   1.00
C822   C     0.26535   0.74917   0.76219   0.00000  Uiso   1.00
Cu823  Cu    0.16667   0.75000   0.79821   0.00000  Uiso   1.00
Cu824  Cu    0.16667   0.75001   0.70178   0.00000  Uiso   1.00
C825   C     0.01351   0.75924   0.73301   0.00000  Uiso   1.00
C826   C     0.32017   0.74247   0.76730   0.00000  Uiso   1.00
C827   C     0.11804   0.54973   0.73777   0.00000  Uiso   1.00
C828   C     0.19247   0.95169   0.71770   0.00000  Uiso   1.00
H829   H     0.08125   0.53382   0.72961   0.00000  Uiso   1.00
H830   H     0.21629   0.96832   0.69454   0.00000  Uiso   1.00
C831   C     0.11994   0.59574   0.73923   0.00000  Uiso   1.00
C832   C     0.19242   0.90571   0.71879   0.00000  Uiso   1.00
H833   H     0.08457   0.61498   0.73243   0.00000  Uiso   1.00
H834   H     0.21652   0.88743   0.69655   0.00000  Uiso   1.00
C835   C     0.16707   0.61684   0.75016   0.00000  Uiso   1.00
C836   C     0.16248   0.88345   0.74902   0.00000  Uiso   1.00
C837   C     0.21301   0.59160   0.76040   0.00000  Uiso   1.00
C838   C     0.13092   0.90788   0.77759   0.00000  Uiso   1.00
C839   C     0.21075   0.54543   0.75722   0.00000  Uiso   1.00
C840   C     0.13131   0.95422   0.77599   0.00000  Uiso   1.00
H841   H     0.24560   0.52559   0.76531   0.00000  Uiso   1.00
H842   H     0.10757   0.97337   0.79785   0.00000  Uiso   1.00
C843   C     0.16351   0.52449   0.74642   0.00000  Uiso   1.00
C844   C     0.16198   0.97607   0.74629   0.00000  Uiso   1.00
C845   C     0.13723   0.78331   0.55118   0.00000  Uiso   1.00
C846   C     0.13585   0.71860   0.94135   0.00000  Uiso   1.00
H847   H     0.11679   0.81027   0.53096   0.00000  Uiso   1.00
H848   H     0.11449   0.69284   0.95641   0.00000  Uiso   1.00
C849   C     0.13988   0.78255   0.60225   0.00000  Uiso   1.00
C850   C     0.13867   0.71906   0.89097   0.00000  Uiso   1.00
H851   H     0.12037   0.80839   0.62022   0.00000  Uiso   1.00
H852   H     0.11843   0.69424   0.86808   0.00000  Uiso   1.00
N853   N     0.16667   0.75001   0.62934   0.00000  Uiso   1.00
N854   N     0.16667   0.74999   0.87065   0.00000  Uiso   1.00
C855   C     0.19120   0.71702   0.60641   0.00000  Uiso   1.00
C856   C     0.19221   0.78172   0.89975   0.00000  Uiso   1.00
C857   C     0.18593   0.71467   0.55453   0.00000  Uiso   1.00
C858   C     0.18691   0.78441   0.95025   0.00000  Uiso   1.00
C859   C     0.16035   0.74932   0.52642   0.00000  Uiso   1.00
C860   C     0.16019   0.75129   0.97194   0.00000  Uiso   1.00
N861   N     0.32489   0.79152   0.69751   0.00000  Uiso   1.00
O862   O     0.29853   0.82521   0.71103   0.00000  Uiso   1.00
O863   O     0.00540   0.79166   0.65414   0.00000  Uiso   1.00
N864   N     0.00952   0.71072   0.80303   0.00000  Uiso   1.00
O865   O     0.03421   0.67604   0.78947   0.00000  Uiso   1.00
O866   O     0.00028   0.71343   0.84790   0.00000  Uiso   1.00
N867   N     0.26148   0.61195   0.77582   0.00000  Uiso   1.00
O868   O     0.26392   0.64484   0.80636   0.00000  Uiso   1.00
O869   O     0.30401   0.59250   0.76727   0.00000  Uiso   1.00
N870   N     0.09724   0.88656   0.80686   0.00000  Uiso   1.00
O871   O     0.07012   0.85296   0.78983   0.00000  Uiso   1.00
O872   O     0.08733   0.90503   0.84714   0.00000  Uiso   1.00
O873   O     0.21884   0.68443   0.63403   0.00000  Uiso   1.00
C874   C     0.27203   0.68865   0.63122   0.00000  Uiso   1.00
H875   H     0.28817   0.71403   0.65737   0.00000  Uiso   1.00
H876   H     0.28080   0.69864   0.59461   0.00000  Uiso   1.00
C877   C     0.29929   0.64442   0.64443   0.00000  Uiso   1.00
H878   H     0.29358   0.63517   0.68204   0.00000  Uiso   1.00
H879   H     0.28238   0.61830   0.61918   0.00000  Uiso   1.00
C880   C     0.02338   0.64689   0.64111   0.00000  Uiso   1.00
H881   H     0.03002   0.65719   0.60404   0.00000  Uiso   1.00
H882   H     0.04155   0.61373   0.64867   0.00000  Uiso   1.00
H883   H     0.04167   0.67093   0.66815   0.00000  Uiso   1.00
O884   O     0.22178   0.81235   0.87937   0.00000  Uiso   1.00
C885   C     0.27467   0.80496   0.89626   0.00000  Uiso   1.00
H886   H     0.29189   0.78417   0.86964   0.00000  Uiso   1.00
H887   H     0.28230   0.78773   0.93211   0.00000  Uiso   1.00
C888   C     0.30263   0.84907   0.90018   0.00000  Uiso   1.00
H889   H     0.29838   0.86534   0.86391   0.00000  Uiso   1.00
H890   H     0.28540   0.87130   0.92587   0.00000  Uiso   1.00
C891   C     0.02634   0.84219   0.91843   0.00000  Uiso   1.00
H892   H     0.03150   0.82514   0.95425   0.00000  Uiso   1.00
H893   H     0.04523   0.87482   0.92300   0.00000  Uiso   1.00
H894   H     0.04521   0.82206   0.89195   0.00000  Uiso   1.00
N895   N     0.20690   0.67721   0.53117   0.00000  Uiso   1.00
O896   O     0.19945   0.63722   0.54585   0.00000  Uiso   1.00
O897   O     0.23665   0.68296   0.99778   0.00000  Uiso   1.00
N898   N     0.20917   0.82065   0.97886   0.00000  Uiso   1.00
O899   O     0.19958   0.86122   0.96422   0.00000  Uiso   1.00
O900   O     0.24028   0.81331   0.51867   0.00000  Uiso   1.00
O901   O     0.50000   0.68573   0.79071   0.00000  Uiso   1.00
O902   O     0.50000   0.81428   0.70928   0.00000  Uiso   1.00
O903   O     0.50000   0.68573   0.70928   0.00000  Uiso   1.00
O904   O     0.50000   0.81427   0.79072   0.00000  Uiso   1.00
C905   C     0.50056   0.66502   0.75006   0.00000  Uiso   1.00
C906   C     0.49850   0.83507   0.74984   0.00000  Uiso   1.00
O907   O     0.42495   0.75000   0.78132   0.00000  Uiso   1.00
O908   O     0.57505   0.75001   0.71868   0.00000  Uiso   1.00
O909   O     0.42495   0.75000   0.69988   0.00000  Uiso   1.00
O910   O     0.57505   0.75000   0.80011   0.00000  Uiso   1.00
C911   C     0.40142   0.75145   0.73785   0.00000  Uiso   1.00
C912   C     0.59868   0.74917   0.76219   0.00000  Uiso   1.00
Cu913  Cu    0.50000   0.75000   0.79821   0.00000  Uiso   1.00
Cu914  Cu    0.50000   0.75001   0.70178   0.00000  Uiso   1.00
C915   C     0.34685   0.75924   0.73301   0.00000  Uiso   1.00
C916   C     0.65351   0.74247   0.76730   0.00000  Uiso   1.00
C917   C     0.45137   0.54973   0.73777   0.00000  Uiso   1.00
C918   C     0.52581   0.95169   0.71770   0.00000  Uiso   1.00
H919   H     0.41458   0.53382   0.72961   0.00000  Uiso   1.00
H920   H     0.54963   0.96832   0.69454   0.00000  Uiso   1.00
C921   C     0.45327   0.59574   0.73923   0.00000  Uiso   1.00
C922   C     0.52575   0.90571   0.71879   0.00000  Uiso   1.00
H923   H     0.41790   0.61498   0.73243   0.00000  Uiso   1.00
H924   H     0.54985   0.88743   0.69655   0.00000  Uiso   1.00
C925   C     0.50040   0.61684   0.75016   0.00000  Uiso   1.00
C926   C     0.49582   0.88345   0.74902   0.00000  Uiso   1.00
C927   C     0.54634   0.59160   0.76040   0.00000  Uiso   1.00
C928   C     0.46426   0.90788   0.77759   0.00000  Uiso   1.00
C929   C     0.54408   0.54543   0.75722   0.00000  Uiso   1.00
C930   C     0.46464   0.95422   0.77599   0.00000  Uiso   1.00
H931   H     0.57893   0.52559   0.76531   0.00000  Uiso   1.00
H932   H     0.44090   0.97337   0.79785   0.00000  Uiso   1.00
C933   C     0.49685   0.52449   0.74642   0.00000  Uiso   1.00
C934   C     0.49531   0.97607   0.74629   0.00000  Uiso   1.00
C935   C     0.47057   0.78331   0.55118   0.00000  Uiso   1.00
C936   C     0.46918   0.71860   0.94135   0.00000  Uiso   1.00
H937   H     0.45012   0.81027   0.53096   0.00000  Uiso   1.00
H938   H     0.44782   0.69284   0.95641   0.00000  Uiso   1.00
C939   C     0.47322   0.78255   0.60225   0.00000  Uiso   1.00
C940   C     0.47200   0.71906   0.89097   0.00000  Uiso   1.00
H941   H     0.45371   0.80839   0.62022   0.00000  Uiso   1.00
H942   H     0.45176   0.69424   0.86808   0.00000  Uiso   1.00
N943   N     0.50000   0.75001   0.62934   0.00000  Uiso   1.00
N944   N     0.50000   0.74999   0.87065   0.00000  Uiso   1.00
C945   C     0.52453   0.71702   0.60641   0.00000  Uiso   1.00
C946   C     0.52555   0.78172   0.89975   0.00000  Uiso   1.00
C947   C     0.51926   0.71467   0.55453   0.00000  Uiso   1.00
C948   C     0.52025   0.78441   0.95025   0.00000  Uiso   1.00
C949   C     0.49369   0.74932   0.52642   0.00000  Uiso   1.00
C950   C     0.49352   0.75129   0.97194   0.00000  Uiso   1.00
N951   N     0.65822   0.79152   0.69751   0.00000  Uiso   1.00
O952   O     0.63187   0.82521   0.71103   0.00000  Uiso   1.00
O953   O     0.33873   0.79166   0.65414   0.00000  Uiso   1.00
N954   N     0.34286   0.71072   0.80303   0.00000  Uiso   1.00
O955   O     0.36755   0.67604   0.78947   0.00000  Uiso   1.00
O956   O     0.33362   0.71343   0.84790   0.00000  Uiso   1.00
N957   N     0.59481   0.61195   0.77582   0.00000  Uiso   1.00
O958   O     0.59725   0.64484   0.80636   0.00000  Uiso   1.00
O959   O     0.63735   0.59250   0.76727   0.00000  Uiso   1.00
N960   N     0.43057   0.88656   0.80686   0.00000  Uiso   1.00
O961   O     0.40345   0.85296   0.78983   0.00000  Uiso   1.00
O962   O     0.42067   0.90503   0.84714   0.00000  Uiso   1.00
O963   O     0.55217   0.68443   0.63403   0.00000  Uiso   1.00
C964   C     0.60536   0.68865   0.63122   0.00000  Uiso   1.00
H965   H     0.62150   0.71403   0.65737   0.00000  Uiso   1.00
H966   H     0.61414   0.69864   0.59461   0.00000  Uiso   1.00
C967   C     0.63262   0.64442   0.64443   0.00000  Uiso   1.00
H968   H     0.62691   0.63517   0.68204   0.00000  Uiso   1.00
H969   H     0.61572   0.61830   0.61918   0.00000  Uiso   1.00
C970   C     0.35671   0.64689   0.64111   0.00000  Uiso   1.00
H971   H     0.36335   0.65719   0.60404   0.00000  Uiso   1.00
H972   H     0.37488   0.61373   0.64867   0.00000  Uiso   1.00
H973   H     0.37500   0.67093   0.66815   0.00000  Uiso   1.00
O974   O     0.55511   0.81235   0.87937   0.00000  Uiso   1.00
C975   C     0.60800   0.80496   0.89626   0.00000  Uiso   1.00
H976   H     0.62522   0.78417   0.86964   0.00000  Uiso   1.00
H977   H     0.61563   0.78773   0.93211   0.00000  Uiso   1.00
C978   C     0.63596   0.84907   0.90018   0.00000  Uiso   1.00
H979   H     0.63172   0.86534   0.86391   0.00000  Uiso   1.00
H980   H     0.61873   0.87130   0.92587   0.00000  Uiso   1.00
C981   C     0.35968   0.84219   0.91843   0.00000  Uiso   1.00
H982   H     0.36483   0.82514   0.95425   0.00000  Uiso   1.00
H983   H     0.37856   0.87482   0.92300   0.00000  Uiso   1.00
H984   H     0.37854   0.82206   0.89195   0.00000  Uiso   1.00
N985   N     0.54023   0.67721   0.53117   0.00000  Uiso   1.00
O986   O     0.53278   0.63722   0.54585   0.00000  Uiso   1.00
O987   O     0.56998   0.68296   0.99778   0.00000  Uiso   1.00
N988   N     0.54250   0.82065   0.97886   0.00000  Uiso   1.00
O989   O     0.53292   0.86122   0.96422   0.00000  Uiso   1.00
O990   O     0.57361   0.81331   0.51867   0.00000  Uiso   1.00
O991   O     0.83334   0.68573   0.79071   0.00000  Uiso   1.00
O992   O     0.83333   0.81428   0.70928   0.00000  Uiso   1.00
O993   O     0.83334   0.68573   0.70928   0.00000  Uiso   1.00
O994   O     0.83333   0.81427   0.79072   0.00000  Uiso   1.00
C995   C     0.83389   0.66502   0.75006   0.00000  Uiso   1.00
C996   C     0.83184   0.83507   0.74984   0.00000  Uiso   1.00
O997   O     0.75828   0.75000   0.78132   0.00000  Uiso   1.00
O998   O     0.90839   0.75001   0.71868   0.00000  Uiso   1.00
O999   O     0.75828   0.75000   0.69988   0.00000  Uiso   1.00
O1000  O     0.90839   0.75000   0.80011   0.00000  Uiso   1.00
C1001  C     0.73475   0.75145   0.73785   0.00000  Uiso   1.00
C1002  C     0.93201   0.74917   0.76219   0.00000  Uiso   1.00
Cu1003 Cu    0.83333   0.75000   0.79821   0.00000  Uiso   1.00
Cu1004 Cu    0.83333   0.75001   0.70178   0.00000  Uiso   1.00
C1005  C     0.68018   0.75924   0.73301   0.00000  Uiso   1.00
C1006  C     0.98684   0.74247   0.76730   0.00000  Uiso   1.00
C1007  C     0.78471   0.54973   0.73777   0.00000  Uiso   1.00
C1008  C     0.85914   0.95169   0.71770   0.00000  Uiso   1.00
H1009  H     0.74792   0.53382   0.72961   0.00000  Uiso   1.00
H1010  H     0.88296   0.96832   0.69454   0.00000  Uiso   1.00
C1011  C     0.78660   0.59574   0.73923   0.00000  Uiso   1.00
C1012  C     0.85908   0.90571   0.71879   0.00000  Uiso   1.00
H1013  H     0.75124   0.61498   0.73243   0.00000  Uiso   1.00
H1014  H     0.88319   0.88743   0.69655   0.00000  Uiso   1.00
C1015  C     0.83374   0.61684   0.75016   0.00000  Uiso   1.00
C1016  C     0.82915   0.88345   0.74902   0.00000  Uiso   1.00
C1017  C     0.87968   0.59160   0.76040   0.00000  Uiso   1.00
C1018  C     0.79759   0.90788   0.77759   0.00000  Uiso   1.00
C1019  C     0.87742   0.54543   0.75722   0.00000  Uiso   1.00
C1020  C     0.79797   0.95422   0.77599   0.00000  Uiso   1.00
H1021  H     0.91227   0.52559   0.76531   0.00000  Uiso   1.00
H1022  H     0.77424   0.97337   0.79785   0.00000  Uiso   1.00
C1023  C     0.83018   0.52449   0.74642   0.00000  Uiso   1.00
C1024  C     0.82864   0.97607   0.74629   0.00000  Uiso   1.00
C1025  C     0.80390   0.78331   0.55118   0.00000  Uiso   1.00
C1026  C     0.80251   0.71860   0.94135   0.00000  Uiso   1.00
H1027  H     0.78345   0.81027   0.53096   0.00000  Uiso   1.00
H1028  H     0.78116   0.69284   0.95641   0.00000  Uiso   1.00
C1029  C     0.80655   0.78255   0.60225   0.00000  Uiso   1.00
C1030  C     0.80534   0.71906   0.89097   0.00000  Uiso   1.00
H1031  H     0.78704   0.80839   0.62022   0.00000  Uiso   1.00
H1032  H     0.78509   0.69424   0.86808   0.00000  Uiso   1.00
N1033  N     0.83333   0.75001   0.62934   0.00000  Uiso   1.00
N1034  N     0.83333   0.74999   0.87065   0.00000  Uiso   1.00
C1035  C     0.85787   0.71702   0.60641   0.00000  Uiso   1.00
C1036  C     0.85888   0.78172   0.89975   0.00000  Uiso   1.00
C1037  C     0.85260   0.71467   0.55453   0.00000  Uiso   1.00
C1038  C     0.85358   0.78441   0.95025   0.00000  Uiso   1.00
C1039  C     0.82702   0.74932   0.52642   0.00000  Uiso   1.00
C1040  C     0.82686   0.75129   0.97194   0.00000  Uiso   1.00
N1041  N     0.99156   0.79152   0.69751   0.00000  Uiso   1.00
O1042  O     0.96520   0.82521   0.71103   0.00000  Uiso   1.00
O1043  O     0.67207   0.79166   0.65414   0.00000  Uiso   1.00
N1044  N     0.67619   0.71072   0.80303   0.00000  Uiso   1.00
O1045  O     0.70088   0.67604   0.78947   0.00000  Uiso   1.00
O1046  O     0.66695   0.71343   0.84790   0.00000  Uiso   1.00
N1047  N     0.92815   0.61195   0.77582   0.00000  Uiso   1.00
O1048  O     0.93058   0.64484   0.80636   0.00000  Uiso   1.00
O1049  O     0.97068   0.59250   0.76727   0.00000  Uiso   1.00
N1050  N     0.76391   0.88656   0.80686   0.00000  Uiso   1.00
O1051  O     0.73678   0.85296   0.78983   0.00000  Uiso   1.00
O1052  O     0.75400   0.90503   0.84714   0.00000  Uiso   1.00
O1053  O     0.88550   0.68443   0.63403   0.00000  Uiso   1.00
C1054  C     0.93869   0.68865   0.63122   0.00000  Uiso   1.00
H1055  H     0.95484   0.71403   0.65737   0.00000  Uiso   1.00
H1056  H     0.94747   0.69864   0.59461   0.00000  Uiso   1.00
C1057  C     0.96595   0.64442   0.64443   0.00000  Uiso   1.00
H1058  H     0.96025   0.63517   0.68204   0.00000  Uiso   1.00
H1059  H     0.94905   0.61830   0.61918   0.00000  Uiso   1.00
C1060  C     0.69005   0.64689   0.64111   0.00000  Uiso   1.00
H1061  H     0.69668   0.65719   0.60404   0.00000  Uiso   1.00
H1062  H     0.70821   0.61373   0.64867   0.00000  Uiso   1.00
H1063  H     0.70833   0.67093   0.66815   0.00000  Uiso   1.00
O1064  O     0.88845   0.81235   0.87937   0.00000  Uiso   1.00
C1065  C     0.94134   0.80496   0.89626   0.00000  Uiso   1.00
H1066  H     0.95855   0.78417   0.86964   0.00000  Uiso   1.00
H1067  H     0.94897   0.78773   0.93211   0.00000  Uiso   1.00
C1068  C     0.96929   0.84907   0.90018   0.00000  Uiso   1.00
H1069  H     0.96505   0.86534   0.86391   0.00000  Uiso   1.00
H1070  H     0.95206   0.87130   0.92587   0.00000  Uiso   1.00
C1071  C     0.69301   0.84219   0.91843   0.00000  Uiso   1.00
H1072  H     0.69817   0.82514   0.95425   0.00000  Uiso   1.00
H1073  H     0.71189   0.87482   0.92300   0.00000  Uiso   1.00
H1074  H     0.71187   0.82206   0.89195   0.00000  Uiso   1.00
N1075  N     0.87356   0.67721   0.53117   0.00000  Uiso   1.00
O1076  O     0.86611   0.63722   0.54585   0.00000  Uiso   1.00
O1077  O     0.90332   0.68296   0.99778   0.00000  Uiso   1.00
N1078  N     0.87584   0.82065   0.97886   0.00000  Uiso   1.00
O1079  O     0.86625   0.86122   0.96422   0.00000  Uiso   1.00
O1080  O     0.90695   0.81331   0.51867   0.00000  Uiso   1.00
loop_
_geom_bond_atom_site_label_1
_geom_bond_atom_site_label_2
_geom_bond_distance
_geom_bond_site_symmetry_2
_ccdc_geom_bond_type
O1     C5      1.289   .     A
O1     Cu13    1.950   .     S
O2     C6      1.291   .     A
O2     Cu14    1.950   .     S
O3     Cu14    1.951   .     S
O3     C5      1.292   .     A
O4     Cu13    1.951   .     S
O4     C6      1.293   .     A
C5     C25     1.454   .     S
C6     C26     1.461   .     S
O7     C11     1.281   .     A
O7     Cu13    1.965   .     S
O8     C12     1.282   .     A
O8     Cu14    1.965   .     S
O9     Cu14    1.965   .     S
O9     C11     1.289   .     A
O10    C12     1.289   .     A
O10    Cu13    1.965   .     S
C11    C15     1.437   .     S
C12    C16     1.439   .     S
Cu13   Cu14    2.673   .     S
Cu13   N44     2.008   .     S
Cu14   N43     2.008   .     S
C15    C196    1.357   1_455 S
C15    N231    1.445   1_455 S
C16    C105    1.357   .     S
C16    N144    1.444   .     S
C17    C33     1.400   .     A
C17    C21     1.390   .     A
C17    H19     1.083   .     S
C18    C22     1.388   .     A
C18    C34     1.398   .     A
C18    H20     1.083   .     S
C21    H23     1.082   .     S
C21    C25     1.399   .     A
C22    H24     1.083   .     S
C22    C26     1.402   .     A
C25    C27     1.413   .     A
C26    C28     1.416   .     A
C27    C29     1.398   .     A
C27    N57     1.436   .     S
C28    N60     1.438   .     S
C28    C30     1.400   .     A
C29    C33     1.399   .     A
C29    H31     1.084   .     S
C30    C34     1.399   .     A
C30    H32     1.084   .     S
C33    C304    1.462   1_545 S
C34    C303    1.462   .     S
C35    H37     1.083   .     S
C35    C49     1.405   .     A
C35    C39     1.409   .     A
C36    C40     1.409   .     A
C36    C50     1.405   .     A
C36    H38     1.083   .     S
C39    N43     1.366   .     A
C39    H41     1.081   .     S
C40    H42     1.081   .     S
C40    N44     1.366   .     A
N43    C45     1.375   .     A
N44    C46     1.376   .     A
C45    C47     1.429   .     A
C45    O63     1.384   .     S
C46    C48     1.427   .     A
C46    O74     1.386   .     S
C47    C49     1.413   .     A
C47    N85     1.438   .     S
C48    N88     1.436   .     S
C48    C50     1.411   .     A
C49    C590    1.511   1_554 S
C50    C589    1.511   .     S
N51    O52     1.302   .     A
N51    C105    1.445   .     S
N51    O143    1.301   .     S
O53    N231    1.301   1_455 S
N54    O56     1.300   .     A
N54    O55     1.302   .     A
N54    C196    1.444   1_455 S
N57    O59     1.302   .     A
N57    O58     1.299   .     A
N60    O62     1.301   .     A
N60    O61     1.301   .     A
O63    C64     1.417   .     S
C64    C67     1.526   .     S
C64    H66     1.114   .     S
C64    H65     1.104   .     S
C67    H68     1.110   .     S
C67    H69     1.111   .     S
C67    C160    1.526   .     S
C70    H71     1.111   .     S
C70    H73     1.110   .     S
C70    H72     1.110   .     S
C70    C247    1.526   1_455 S
O74    C75     1.421   .     S
C75    H76     1.103   .     S
C75    H77     1.116   .     S
C75    C78     1.528   .     S
C78    H80     1.110   .     S
C78    H79     1.112   .     S
C78    C171    1.528   .     S
C81    H82     1.111   .     S
C81    H83     1.110   .     S
C81    H84     1.112   .     S
C81    C258    1.528   1_455 S
N85    O86     1.301   .     A
N85    O627    1.301   1_554 S
O87    N625    1.301   .     S
N88    O89     1.301   .     A
N88    O630    1.301   .     S
O90    N628    1.301   1_554 S
O91    C95     1.289   .     A
O91    Cu103   1.950   .     S
O92    C96     1.291   .     A
O92    Cu104   1.950   .     S
O93    Cu104   1.951   .     S
O93    C95     1.292   .     A
O94    Cu103   1.951   .     S
O94    C96     1.293   .     A
C95    C115    1.454   .     S
C96    C116    1.461   .     S
O97    C101    1.281   .     A
O97    Cu103   1.965   .     S
O98    C102    1.282   .     A
O98    Cu104   1.965   .     S
O99    Cu104   1.965   .     S
O99    C101    1.289   .     A
O100   C102    1.289   .     A
O100   Cu103   1.965   .     S
C101   C105    1.437   .     S
C102   C106    1.439   .     S
Cu103  Cu104   2.673   .     S
Cu103  N134    2.008   .     S
Cu104  N133    2.008   .     S
C106   C195    1.357   .     S
C106   N234    1.444   .     S
C107   C123    1.400   .     A
C107   C111    1.390   .     A
C107   H109    1.083   .     S
C108   C112    1.388   .     A
C108   C124    1.398   .     A
C108   H110    1.083   .     S
C111   H113    1.082   .     S
C111   C115    1.399   .     A
C112   H114    1.083   .     S
C112   C116    1.402   .     A
C115   C117    1.413   .     A
C116   C118    1.416   .     A
C117   C119    1.398   .     A
C117   N147    1.436   .     S
C118   N150    1.438   .     S
C118   C120    1.400   .     A
C119   C123    1.399   .     A
C119   H121    1.084   .     S
C120   C124    1.399   .     A
C120   H122    1.084   .     S
C123   C394    1.462   1_545 S
C124   C393    1.462   .     S
C125   H127    1.083   .     S
C125   C139    1.405   .     A
C125   C129    1.409   .     A
C126   C130    1.409   .     A
C126   C140    1.405   .     A
C126   H128    1.083   .     S
C129   N133    1.366   .     A
C129   H131    1.081   .     S
C130   H132    1.081   .     S
C130   N134    1.366   .     A
N133   C135    1.375   .     A
N134   C136    1.376   .     A
C135   C137    1.429   .     A
C135   O153    1.384   .     S
C136   C138    1.427   .     A
C136   O164    1.386   .     S
C137   C139    1.413   .     A
C137   N175    1.438   .     S
C138   N178    1.436   .     S
C138   C140    1.411   .     A
C139   C680    1.511   1_554 S
C140   C679    1.511   .     S
N141   O142    1.302   .     A
N141   C195    1.445   .     S
N141   O233    1.301   .     S
N144   O146    1.300   .     A
N144   O145    1.302   .     A
N147   O149    1.302   .     A
N147   O148    1.299   .     A
N150   O152    1.301   .     A
N150   O151    1.301   .     A
O153   C154    1.417   .     S
C154   C157    1.526   .     S
C154   H156    1.114   .     S
C154   H155    1.104   .     S
C157   H158    1.110   .     S
C157   H159    1.111   .     S
C157   C250    1.526   .     S
C160   H161    1.111   .     S
C160   H163    1.110   .     S
C160   H162    1.110   .     S
O164   C165    1.421   .     S
C165   H166    1.103   .     S
C165   H167    1.116   .     S
C165   C168    1.528   .     S
C168   H170    1.110   .     S
C168   H169    1.112   .     S
C168   C261    1.528   .     S
C171   H172    1.111   .     S
C171   H173    1.110   .     S
C171   H174    1.112   .     S
N175   O176    1.301   .     A
N175   O717    1.301   1_554 S
O177   N715    1.301   .     S
N178   O179    1.301   .     A
N178   O720    1.301   .     S
O180   N718    1.301   1_554 S
O181   C185    1.289   .     A
O181   Cu193   1.950   .     S
O182   C186    1.291   .     A
O182   Cu194   1.950   .     S
O183   Cu194   1.951   .     S
O183   C185    1.292   .     A
O184   Cu193   1.951   .     S
O184   C186    1.293   .     A
C185   C205    1.454   .     S
C186   C206    1.461   .     S
O187   C191    1.281   .     A
O187   Cu193   1.965   .     S
O188   C192    1.282   .     A
O188   Cu194   1.965   .     S
O189   Cu194   1.965   .     S
O189   C191    1.289   .     A
O190   C192    1.289   .     A
O190   Cu193   1.965   .     S
C191   C195    1.437   .     S
C192   C196    1.439   .     S
Cu193  Cu194   2.673   .     S
Cu193  N224    2.008   .     S
Cu194  N223    2.008   .     S
C196   C15     1.357   1_655 S
C196   N54     1.444   1_655 S
C197   C213    1.400   .     A
C197   C201    1.390   .     A
C197   H199    1.083   .     S
C198   C202    1.388   .     A
C198   C214    1.398   .     A
C198   H200    1.083   .     S
C201   H203    1.082   .     S
C201   C205    1.399   .     A
C202   H204    1.083   .     S
C202   C206    1.402   .     A
C205   C207    1.413   .     A
C206   C208    1.416   .     A
C207   C209    1.398   .     A
C207   N237    1.436   .     S
C208   N240    1.438   .     S
C208   C210    1.400   .     A
C209   C213    1.399   .     A
C209   H211    1.084   .     S
C210   C214    1.399   .     A
C210   H212    1.084   .     S
C213   C484    1.462   1_545 S
C214   C483    1.462   .     S
C215   H217    1.083   .     S
C215   C229    1.405   .     A
C215   C219    1.409   .     A
C216   C220    1.409   .     A
C216   C230    1.405   .     A
C216   H218    1.083   .     S
C219   N223    1.366   .     A
C219   H221    1.081   .     S
C220   H222    1.081   .     S
C220   N224    1.366   .     A
N223   C225    1.375   .     A
N224   C226    1.376   .     A
C225   C227    1.429   .     A
C225   O243    1.384   .     S
C226   C228    1.427   .     A
C226   O254    1.386   .     S
C227   C229    1.413   .     A
C227   N265    1.438   .     S
C228   N268    1.436   .     S
C228   C230    1.411   .     A
C229   C770    1.511   1_554 S
C230   C769    1.511   .     S
N231   O232    1.302   .     A
N231   C15     1.445   1_655 S
N231   O53     1.301   1_655 S
N234   O236    1.300   .     A
N234   O235    1.302   .     A
N237   O239    1.302   .     A
N237   O238    1.299   .     A
N240   O242    1.301   .     A
N240   O241    1.301   .     A
O243   C244    1.417   .     S
C244   C247    1.526   .     S
C244   H246    1.114   .     S
C244   H245    1.104   .     S
C247   H248    1.110   .     S
C247   H249    1.111   .     S
C247   C70     1.526   1_655 S
C250   H251    1.111   .     S
C250   H253    1.110   .     S
C250   H252    1.110   .     S
O254   C255    1.421   .     S
C255   H256    1.103   .     S
C255   H257    1.116   .     S
C255   C258    1.528   .     S
C258   H260    1.110   .     S
C258   H259    1.112   .     S
C258   C81     1.528   1_655 S
C261   H262    1.111   .     S
C261   H263    1.110   .     S
C261   H264    1.112   .     S
N265   O266    1.301   .     A
N265   O807    1.301   1_554 S
O267   N805    1.301   .     S
N268   O269    1.301   .     A
N268   O810    1.301   .     S
O270   N808    1.301   1_554 S
O271   C275    1.289   .     A
O271   Cu283   1.950   .     S
O272   C276    1.291   .     A
O272   Cu284   1.950   .     S
O273   Cu284   1.951   .     S
O273   C275    1.292   .     A
O274   Cu283   1.951   .     S
O274   C276    1.293   .     A
C275   C295    1.454   .     S
C276   C296    1.461   .     S
O277   C281    1.281   .     A
O277   Cu283   1.965   .     S
O278   C282    1.282   .     A
O278   Cu284   1.965   .     S
O279   Cu284   1.965   .     S
O279   C281    1.289   .     A
O280   C282    1.289   .     A
O280   Cu283   1.965   .     S
C281   C285    1.437   .     S
C282   C286    1.439   .     S
Cu283  Cu284   2.673   .     S
Cu283  N314    2.008   .     S
Cu284  N313    2.008   .     S
C285   C466    1.357   1_455 S
C285   N501    1.445   1_455 S
C286   C375    1.357   .     S
C286   N414    1.444   .     S
C287   C303    1.400   .     A
C287   C291    1.390   .     A
C287   H289    1.083   .     S
C288   C292    1.388   .     A
C288   C304    1.398   .     A
C288   H290    1.083   .     S
C291   H293    1.082   .     S
C291   C295    1.399   .     A
C292   H294    1.083   .     S
C292   C296    1.402   .     A
C295   C297    1.413   .     A
C296   C298    1.416   .     A
C297   C299    1.398   .     A
C297   N327    1.436   .     S
C298   N330    1.438   .     S
C298   C300    1.400   .     A
C299   C303    1.399   .     A
C299   H301    1.084   .     S
C300   C304    1.399   .     A
C300   H302    1.084   .     S
C304   C33     1.462   1_565 S
C305   H307    1.083   .     S
C305   C319    1.405   .     A
C305   C309    1.409   .     A
C306   C310    1.409   .     A
C306   C320    1.405   .     A
C306   H308    1.083   .     S
C309   N313    1.366   .     A
C309   H311    1.081   .     S
C310   H312    1.081   .     S
C310   N314    1.366   .     A
N313   C315    1.375   .     A
N314   C316    1.376   .     A
C315   C317    1.429   .     A
C315   O333    1.384   .     S
C316   C318    1.427   .     A
C316   O344    1.386   .     S
C317   C319    1.413   .     A
C317   N355    1.438   .     S
C318   N358    1.436   .     S
C318   C320    1.411   .     A
C319   C860    1.511   1_554 S
C320   C859    1.511   .     S
N321   O322    1.302   .     A
N321   C375    1.445   .     S
N321   O413    1.301   .     S
O323   N501    1.301   1_455 S
N324   O326    1.300   .     A
N324   O325    1.302   .     A
N324   C466    1.444   1_455 S
N327   O329    1.302   .     A
N327   O328    1.299   .     A
N330   O332    1.301   .     A
N330   O331    1.301   .     A
O333   C334    1.417   .     S
C334   C337    1.526   .     S
C334   H336    1.114   .     S
C334   H335    1.104   .     S
C337   H338    1.110   .     S
C337   H339    1.111   .     S
C337   C430    1.526   .     S
C340   H341    1.111   .     S
C340   H343    1.110   .     S
C340   H342    1.110   .     S
C340   C517    1.526   1_455 S
O344   C345    1.421   .     S
C345   H346    1.103   .     S
C345   H347    1.116   .     S
C345   C348    1.528   .     S
C348   H350    1.110   .     S
C348   H349    1.112   .     S
C348   C441    1.528   .     S
C351   H352    1.111   .     S
C351   H353    1.110   .     S
C351   H354    1.112   .     S
C351   C528    1.528   1_455 S
N355   O356    1.301   .     A
N355   O897    1.301   1_554 S
O357   N895    1.301   .     S
N358   O359    1.301   .     A
N358   O900    1.301   .     S
O360   N898    1.301   1_554 S
O361   C365    1.289   .     A
O361   Cu373   1.950   .     S
O362   C366    1.291   .     A
O362   Cu374   1.950   .     S
O363   Cu374   1.951   .     S
O363   C365    1.292   .     A
O364   Cu373   1.951   .     S
O364   C366    1.293   .     A
C365   C385    1.454   .     S
C366   C386    1.461   .     S
O367   C371    1.281   .     A
O367   Cu373   1.965   .     S
O368   C372    1.282   .     A
O368   Cu374   1.965   .     S
O369   Cu374   1.965   .     S
O369   C371    1.289   .     A
O370   C372    1.289   .     A
O370   Cu373   1.965   .     S
C371   C375    1.437   .     S
C372   C376    1.439   .     S
Cu373  Cu374   2.673   .     S
Cu373  N404    2.008   .     S
Cu374  N403    2.008   .     S
C376   C465    1.357   .     S
C376   N504    1.444   .     S
C377   C393    1.400   .     A
C377   C381    1.390   .     A
C377   H379    1.083   .     S
C378   C382    1.388   .     A
C378   C394    1.398   .     A
C378   H380    1.083   .     S
C381   H383    1.082   .     S
C381   C385    1.399   .     A
C382   H384    1.083   .     S
C382   C386    1.402   .     A
C385   C387    1.413   .     A
C386   C388    1.416   .     A
C387   C389    1.398   .     A
C387   N417    1.436   .     S
C388   N420    1.438   .     S
C388   C390    1.400   .     A
C389   C393    1.399   .     A
C389   H391    1.084   .     S
C390   C394    1.399   .     A
C390   H392    1.084   .     S
C394   C123    1.462   1_565 S
C395   H397    1.083   .     S
C395   C409    1.405   .     A
C395   C399    1.409   .     A
C396   C400    1.409   .     A
C396   C410    1.405   .     A
C396   H398    1.083   .     S
C399   N403    1.366   .     A
C399   H401    1.081   .     S
C400   H402    1.081   .     S
C400   N404    1.366   .     A
N403   C405    1.375   .     A
N404   C406    1.376   .     A
C405   C407    1.429   .     A
C405   O423    1.384   .     S
C406   C408    1.427   .     A
C406   O434    1.386   .     S
C407   C409    1.413   .     A
C407   N445    1.438   .     S
C408   N448    1.436   .     S
C408   C410    1.411   .     A
C409   C950    1.511   1_554 S
C410   C949    1.511   .     S
N411   O412    1.302   .     A
N411   C465    1.445   .     S
N411   O503    1.301   .     S
N414   O416    1.300   .     A
N414   O415    1.302   .     A
N417   O419    1.302   .     A
N417   O418    1.299   .     A
N420   O422    1.301   .     A
N420   O421    1.301   .     A
O423   C424    1.417   .     S
C424   C427    1.526   .     S
C424   H426    1.114   .     S
C424   H425    1.104   .     S
C427   H428    1.110   .     S
C427   H429    1.111   .     S
C427   C520    1.526   .     S
C430   H431    1.111   .     S
C430   H433    1.110   .     S
C430   H432    1.110   .     S
O434   C435    1.421   .     S
C435   H436    1.103   .     S
C435   H437    1.116   .     S
C435   C438    1.528   .     S
C438   H440    1.110   .     S
C438   H439    1.112   .     S
C438   C531    1.528   .     S
C441   H442    1.111   .     S
C441   H443    1.110   .     S
C441   H444    1.112   .     S
N445   O446    1.301   .     A
N445   O987    1.301   1_554 S
O447   N985    1.301   .     S
N448   O449    1.301   .     A
N448   O990    1.301   .     S
O450   N988    1.301   1_554 S
O451   C455    1.289   .     A
O451   Cu463   1.950   .     S
O452   C456    1.291   .     A
O452   Cu464   1.950   .     S
O453   Cu464   1.951   .     S
O453   C455    1.292   .     A
O454   Cu463   1.951   .     S
O454   C456    1.293   .     A
C455   C475    1.454   .     S
C456   C476    1.461   .     S
O457   C461    1.281   .     A
O457   Cu463   1.965   .     S
O458   C462    1.282   .     A
O458   Cu464   1.965   .     S
O459   Cu464   1.965   .     S
O459   C461    1.289   .     A
O460   C462    1.289   .     A
O460   Cu463   1.965   .     S
C461   C465    1.437   .     S
C462   C466    1.439   .     S
Cu463  Cu464   2.673   .     S
Cu463  N494    2.008   .     S
Cu464  N493    2.008   .     S
C466   C285    1.357   1_655 S
C466   N324    1.444   1_655 S
C467   C483    1.400   .     A
C467   C471    1.390   .     A
C467   H469    1.083   .     S
C468   C472    1.388   .     A
C468   C484    1.398   .     A
C468   H470    1.083   .     S
C471   H473    1.082   .     S
C471   C475    1.399   .     A
C472   H474    1.083   .     S
C472   C476    1.402   .     A
C475   C477    1.413   .     A
C476   C478    1.416   .     A
C477   C479    1.398   .     A
C477   N507    1.436   .     S
C478   N510    1.438   .     S
C478   C480    1.400   .     A
C479   C483    1.399   .     A
C479   H481    1.084   .     S
C480   C484    1.399   .     A
C480   H482    1.084   .     S
C484   C213    1.462   1_565 S
C485   H487    1.083   .     S
C485   C499    1.405   .     A
C485   C489    1.409   .     A
C486   C490    1.409   .     A
C486   C500    1.405   .     A
C486   H488    1.083   .     S
C489   N493    1.366   .     A
C489   H491    1.081   .     S
C490   H492    1.081   .     S
C490   N494    1.366   .     A
N493   C495    1.375   .     A
N494   C496    1.376   .     A
C495   C497    1.429   .     A
C495   O513    1.384   .     S
C496   C498    1.427   .     A
C496   O524    1.386   .     S
C497   C499    1.413   .     A
C497   N535    1.438   .     S
C498   N538    1.436   .     S
C498   C500    1.411   .     A
C499   C1040   1.511   1_554 S
C500   C1039   1.511   .     S
N501   O502    1.302   .     A
N501   C285    1.445   1_655 S
N501   O323    1.301   1_655 S
N504   O506    1.300   .     A
N504   O505    1.302   .     A
N507   O509    1.302   .     A
N507   O508    1.299   .     A
N510   O512    1.301   .     A
N510   O511    1.301   .     A
O513   C514    1.417   .     S
C514   C517    1.526   .     S
C514   H516    1.114   .     S
C514   H515    1.104   .     S
C517   H518    1.110   .     S
C517   H519    1.111   .     S
C517   C340    1.526   1_655 S
C520   H521    1.111   .     S
C520   H523    1.110   .     S
C520   H522    1.110   .     S
O524   C525    1.421   .     S
C525   H526    1.103   .     S
C525   H527    1.116   .     S
C525   C528    1.528   .     S
C528   H530    1.110   .     S
C528   H529    1.112   .     S
C528   C351    1.528   1_655 S
C531   H532    1.111   .     S
C531   H533    1.110   .     S
C531   H534    1.112   .     S
N535   O536    1.301   .     A
N535   O1077   1.301   1_554 S
O537   N1075   1.301   .     S
N538   O539    1.301   .     A
N538   O1080   1.301   .     S
O540   N1078   1.301   1_554 S
O541   C545    1.289   .     A
O541   Cu553   1.950   .     S
O542   C546    1.291   .     A
O542   Cu554   1.950   .     S
O543   Cu554   1.951   .     S
O543   C545    1.292   .     A
O544   Cu553   1.951   .     S
O544   C546    1.293   .     A
C545   C565    1.454   .     S
C546   C566    1.461   .     S
O547   C551    1.281   .     A
O547   Cu553   1.965   .     S
O548   C552    1.282   .     A
O548   Cu554   1.965   .     S
O549   Cu554   1.965   .     S
O549   C551    1.289   .     A
O550   C552    1.289   .     A
O550   Cu553   1.965   .     S
C551   C555    1.437   .     S
C552   C556    1.439   .     S
Cu553  Cu554   2.673   .     S
Cu553  N584    2.008   .     S
Cu554  N583    2.008   .     S
C555   C736    1.357   1_455 S
C555   N771    1.445   1_455 S
C556   C645    1.357   .     S
C556   N684    1.444   .     S
C557   C573    1.400   .     A
C557   C561    1.390   .     A
C557   H559    1.083   .     S
C558   C562    1.388   .     A
C558   C574    1.398   .     A
C558   H560    1.083   .     S
C561   H563    1.082   .     S
C561   C565    1.399   .     A
C562   H564    1.083   .     S
C562   C566    1.402   .     A
C565   C567    1.413   .     A
C566   C568    1.416   .     A
C567   C569    1.398   .     A
C567   N597    1.436   .     S
C568   N600    1.438   .     S
C568   C570    1.400   .     A
C569   C573    1.399   .     A
C569   H571    1.084   .     S
C570   C574    1.399   .     A
C570   H572    1.084   .     S
C573   C844    1.462   1_545 S
C574   C843    1.462   .     S
C575   H577    1.083   .     S
C575   C589    1.405   .     A
C575   C579    1.409   .     A
C576   C580    1.409   .     A
C576   C590    1.405   .     A
C576   H578    1.083   .     S
C579   N583    1.366   .     A
C579   H581    1.081   .     S
C580   H582    1.081   .     S
C580   N584    1.366   .     A
N583   C585    1.375   .     A
N584   C586    1.376   .     A
C585   C587    1.429   .     A
C585   O603    1.384   .     S
C586   C588    1.427   .     A
C586   O614    1.386   .     S
C587   C589    1.413   .     A
C587   N625    1.438   .     S
C588   N628    1.436   .     S
C588   C590    1.411   .     A
C590   C49     1.511   1_556 S
N591   O592    1.302   .     A
N591   C645    1.445   .     S
N591   O683    1.301   .     S
O593   N771    1.301   1_455 S
N594   O596    1.300   .     A
N594   O595    1.302   .     A
N594   C736    1.444   1_455 S
N597   O599    1.302   .     A
N597   O598    1.299   .     A
N600   O602    1.301   .     A
N600   O601    1.301   .     A
O603   C604    1.417   .     S
C604   C607    1.526   .     S
C604   H606    1.114   .     S
C604   H605    1.104   .     S
C607   H608    1.110   .     S
C607   H609    1.111   .     S
C607   C700    1.526   .     S
C610   H611    1.111   .     S
C610   H613    1.110   .     S
C610   H612    1.110   .     S
C610   C787    1.526   1_455 S
O614   C615    1.421   .     S
C615   H616    1.103   .     S
C615   H617    1.116   .     S
C615   C618    1.528   .     S
C618   H620    1.110   .     S
C618   H619    1.112   .     S
C618   C711    1.528   .     S
C621   H622    1.111   .     S
C621   H623    1.110   .     S
C621   H624    1.112   .     S
C621   C798    1.528   1_455 S
N625   O626    1.301   .     A
O627   N85     1.301   1_556 S
N628   O629    1.301   .     A
N628   O90     1.301   1_556 S
O631   C635    1.289   .     A
O631   Cu643   1.950   .     S
O632   C636    1.291   .     A
O632   Cu644   1.950   .     S
O633   Cu644   1.951   .     S
O633   C635    1.292   .     A
O634   Cu643   1.951   .     S
O634   C636    1.293   .     A
C635   C655    1.454   .     S
C636   C656    1.461   .     S
O637   C641    1.281   .     A
O637   Cu643   1.965   .     S
O638   C642    1.282   .     A
O638   Cu644   1.965   .     S
O639   Cu644   1.965   .     S
O639   C641    1.289   .     A
O640   C642    1.289   .     A
O640   Cu643   1.965   .     S
C641   C645    1.437   .     S
C642   C646    1.439   .     S
Cu643  Cu644   2.673   .     S
Cu643  N674    2.008   .     S
Cu644  N673    2.008   .     S
C646   C735    1.357   .     S
C646   N774    1.444   .     S
C647   C663    1.400   .     A
C647   C651    1.390   .     A
C647   H649    1.083   .     S
C648   C652    1.388   .     A
C648   C664    1.398   .     A
C648   H650    1.083   .     S
C651   H653    1.082   .     S
C651   C655    1.399   .     A
C652   H654    1.083   .     S
C652   C656    1.402   .     A
C655   C657    1.413   .     A
C656   C658    1.416   .     A
C657   C659    1.398   .     A
C657   N687    1.436   .     S
C658   N690    1.438   .     S
C658   C660    1.400   .     A
C659   C663    1.399   .     A
C659   H661    1.084   .     S
C660   C664    1.399   .     A
C660   H662    1.084   .     S
C663   C934    1.462   1_545 S
C664   C933    1.462   .     S
C665   H667    1.083   .     S
C665   C679    1.405   .     A
C665   C669    1.409   .     A
C666   C670    1.409   .     A
C666   C680    1.405   .     A
C666   H668    1.083   .     S
C669   N673    1.366   .     A
C669   H671    1.081   .     S
C670   H672    1.081   .     S
C670   N674    1.366   .     A
N673   C675    1.375   .     A
N674   C676    1.376   .     A
C675   C677    1.429   .     A
C675   O693    1.384   .     S
C676   C678    1.427   .     A
C676   O704    1.386   .     S
C677   C679    1.413   .     A
C677   N715    1.438   .     S
C678   N718    1.436   .     S
C678   C680    1.411   .     A
C680   C139    1.511   1_556 S
N681   O682    1.302   .     A
N681   C735    1.445   .     S
N681   O773    1.301   .     S
N684   O686    1.300   .     A
N684   O685    1.302   .     A
N687   O689    1.302   .     A
N687   O688    1.299   .     A
N690   O692    1.301   .     A
N690   O691    1.301   .     A
O693   C694    1.417   .     S
C694   C697    1.526   .     S
C694   H696    1.114   .     S
C694   H695    1.104   .     S
C697   H698    1.110   .     S
C697   H699    1.111   .     S
C697   C790    1.526   .     S
C700   H701    1.111   .     S
C700   H703    1.110   .     S
C700   H702    1.110   .     S
O704   C705    1.421   .     S
C705   H706    1.103   .     S
C705   H707    1.116   .     S
C705   C708    1.528   .     S
C708   H710    1.110   .     S
C708   H709    1.112   .     S
C708   C801    1.528   .     S
C711   H712    1.111   .     S
C711   H713    1.110   .     S
C711   H714    1.112   .     S
N715   O716    1.301   .     A
O717   N175    1.301   1_556 S
N718   O719    1.301   .     A
N718   O180    1.301   1_556 S
O721   C725    1.289   .     A
O721   Cu733   1.950   .     S
O722   C726    1.291   .     A
O722   Cu734   1.950   .     S
O723   Cu734   1.951   .     S
O723   C725    1.292   .     A
O724   Cu733   1.951   .     S
O724   C726    1.293   .     A
C725   C745    1.454   .     S
C726   C746    1.461   .     S
O727   C731    1.281   .     A
O727   Cu733   1.965   .     S
O728   C732    1.282   .     A
O728   Cu734   1.965   .     S
O729   Cu734   1.965   .     S
O729   C731    1.289   .     A
O730   C732    1.289   .     A
O730   Cu733   1.965   .     S
C731   C735    1.437   .     S
C732   C736    1.439   .     S
Cu733  Cu734   2.673   .     S
Cu733  N764    2.008   .     S
Cu734  N763    2.008   .     S
C736   C555    1.357   1_655 S
C736   N594    1.444   1_655 S
C737   C753    1.400   .     A
C737   C741    1.390   .     A
C737   H739    1.083   .     S
C738   C742    1.388   .     A
C738   C754    1.398   .     A
C738   H740    1.083   .     S
C741   H743    1.082   .     S
C741   C745    1.399   .     A
C742   H744    1.083   .     S
C742   C746    1.402   .     A
C745   C747    1.413   .     A
C746   C748    1.416   .     A
C747   C749    1.398   .     A
C747   N777    1.436   .     S
C748   N780    1.438   .     S
C748   C750    1.400   .     A
C749   C753    1.399   .     A
C749   H751    1.084   .     S
C750   C754    1.399   .     A
C750   H752    1.084   .     S
C753   C1024   1.462   1_545 S
C754   C1023   1.462   .     S
C755   H757    1.083   .     S
C755   C769    1.405   .     A
C755   C759    1.409   .     A
C756   C760    1.409   .     A
C756   C770    1.405   .     A
C756   H758    1.083   .     S
C759   N763    1.366   .     A
C759   H761    1.081   .     S
C760   H762    1.081   .     S
C760   N764    1.366   .     A
N763   C765    1.375   .     A
N764   C766    1.376   .     A
C765   C767    1.429   .     A
C765   O783    1.384   .     S
C766   C768    1.427   .     A
C766   O794    1.386   .     S
C767   C769    1.413   .     A
C767   N805    1.438   .     S
C768   N808    1.436   .     S
C768   C770    1.411   .     A
C770   C229    1.511   1_556 S
N771   O772    1.302   .     A
N771   C555    1.445   1_655 S
N771   O593    1.301   1_655 S
N774   O776    1.300   .     A
N774   O775    1.302   .     A
N777   O779    1.302   .     A
N777   O778    1.299   .     A
N780   O782    1.301   .     A
N780   O781    1.301   .     A
O783   C784    1.417   .     S
C784   C787    1.526   .     S
C784   H786    1.114   .     S
C784   H785    1.104   .     S
C787   H788    1.110   .     S
C787   H789    1.111   .     S
C787   C610    1.526   1_655 S
C790   H791    1.111   .     S
C790   H793    1.110   .     S
C790   H792    1.110   .     S
O794   C795    1.421   .     S
C795   H796    1.103   .     S
C795   H797    1.116   .     S
C795   C798    1.528   .     S
C798   H800    1.110   .     S
C798   H799    1.112   .     S
C798   C621    1.528   1_655 S
C801   H802    1.111   .     S
C801   H803    1.110   .     S
C801   H804    1.112   .     S
N805   O806    1.301   .     A
O807   N265    1.301   1_556 S
N808   O809    1.301   .     A
N808   O270    1.301   1_556 S
O811   C815    1.289   .     A
O811   Cu823   1.950   .     S
O812   C816    1.291   .     A
O812   Cu824   1.950   .     S
O813   Cu824   1.951   .     S
O813   C815    1.292   .     A
O814   Cu823   1.951   .     S
O814   C816    1.293   .     A
C815   C835    1.454   .     S
C816   C836    1.461   .     S
O817   C821    1.281   .     A
O817   Cu823   1.965   .     S
O818   C822    1.282   .     A
O818   Cu824   1.965   .     S
O819   Cu824   1.965   .     S
O819   C821    1.289   .     A
O820   C822    1.289   .     A
O820   Cu823   1.965   .     S
C821   C825    1.437   .     S
C822   C826    1.439   .     S
Cu823  Cu824   2.673   .     S
Cu823  N854    2.008   .     S
Cu824  N853    2.008   .     S
C825   C1006   1.357   1_455 S
C825   N1041   1.445   1_455 S
C826   C915    1.357   .     S
C826   N954    1.444   .     S
C827   C843    1.400   .     A
C827   C831    1.390   .     A
C827   H829    1.083   .     S
C828   C832    1.388   .     A
C828   C844    1.398   .     A
C828   H830    1.083   .     S
C831   H833    1.082   .     S
C831   C835    1.399   .     A
C832   H834    1.083   .     S
C832   C836    1.402   .     A
C835   C837    1.413   .     A
C836   C838    1.416   .     A
C837   C839    1.398   .     A
C837   N867    1.436   .     S
C838   N870    1.438   .     S
C838   C840    1.400   .     A
C839   C843    1.399   .     A
C839   H841    1.084   .     S
C840   C844    1.399   .     A
C840   H842    1.084   .     S
C844   C573    1.462   1_565 S
C845   H847    1.083   .     S
C845   C859    1.405   .     A
C845   C849    1.409   .     A
C846   C850    1.409   .     A
C846   C860    1.405   .     A
C846   H848    1.083   .     S
C849   N853    1.366   .     A
C849   H851    1.081   .     S
C850   H852    1.081   .     S
C850   N854    1.366   .     A
N853   C855    1.375   .     A
N854   C856    1.376   .     A
C855   C857    1.429   .     A
C855   O873    1.384   .     S
C856   C858    1.427   .     A
C856   O884    1.386   .     S
C857   C859    1.413   .     A
C857   N895    1.438   .     S
C858   N898    1.436   .     S
C858   C860    1.411   .     A
C860   C319    1.511   1_556 S
N861   O862    1.302   .     A
N861   C915    1.445   .     S
N861   O953    1.301   .     S
O863   N1041   1.301   1_455 S
N864   O866    1.300   .     A
N864   O865    1.302   .     A
N864   C1006   1.444   1_455 S
N867   O869    1.302   .     A
N867   O868    1.299   .     A
N870   O872    1.301   .     A
N870   O871    1.301   .     A
O873   C874    1.417   .     S
C874   C877    1.526   .     S
C874   H876    1.114   .     S
C874   H875    1.104   .     S
C877   H878    1.110   .     S
C877   H879    1.111   .     S
C877   C970    1.526   .     S
C880   H881    1.111   .     S
C880   H883    1.110   .     S
C880   H882    1.110   .     S
C880   C1057   1.526   1_455 S
O884   C885    1.421   .     S
C885   H886    1.103   .     S
C885   H887    1.116   .     S
C885   C888    1.528   .     S
C888   H890    1.110   .     S
C888   H889    1.112   .     S
C888   C981    1.528   .     S
C891   H892    1.111   .     S
C891   H893    1.110   .     S
C891   H894    1.112   .     S
C891   C1068   1.528   1_455 S
N895   O896    1.301   .     A
O897   N355    1.301   1_556 S
N898   O899    1.301   .     A
N898   O360    1.301   1_556 S
O901   C905    1.289   .     A
O901   Cu913   1.950   .     S
O902   C906    1.291   .     A
O902   Cu914   1.950   .     S
O903   Cu914   1.951   .     S
O903   C905    1.292   .     A
O904   Cu913   1.951   .     S
O904   C906    1.293   .     A
C905   C925    1.454   .     S
C906   C926    1.461   .     S
O907   C911    1.281   .     A
O907   Cu913   1.965   .     S
O908   C912    1.282   .     A
O908   Cu914   1.965   .     S
O909   Cu914   1.965   .     S
O909   C911    1.289   .     A
O910   C912    1.289   .     A
O910   Cu913   1.965   .     S
C911   C915    1.437   .     S
C912   C916    1.439   .     S
Cu913  Cu914   2.673   .     S
Cu913  N944    2.008   .     S
Cu914  N943    2.008   .     S
C916   C1005   1.357   .     S
C916   N1044   1.444   .     S
C917   C933    1.400   .     A
C917   C921    1.390   .     A
C917   H919    1.083   .     S
C918   C922    1.388   .     A
C918   C934    1.398   .     A
C918   H920    1.083   .     S
C921   H923    1.082   .     S
C921   C925    1.399   .     A
C922   H924    1.083   .     S
C922   C926    1.402   .     A
C925   C927    1.413   .     A
C926   C928    1.416   .     A
C927   C929    1.398   .     A
C927   N957    1.436   .     S
C928   N960    1.438   .     S
C928   C930    1.400   .     A
C929   C933    1.399   .     A
C929   H931    1.084   .     S
C930   C934    1.399   .     A
C930   H932    1.084   .     S
C934   C663    1.462   1_565 S
C935   H937    1.083   .     S
C935   C949    1.405   .     A
C935   C939    1.409   .     A
C936   C940    1.409   .     A
C936   C950    1.405   .     A
C936   H938    1.083   .     S
C939   N943    1.366   .     A
C939   H941    1.081   .     S
C940   H942    1.081   .     S
C940   N944    1.366   .     A
N943   C945    1.375   .     A
N944   C946    1.376   .     A
C945   C947    1.429   .     A
C945   O963    1.384   .     S
C946   C948    1.427   .     A
C946   O974    1.386   .     S
C947   C949    1.413   .     A
C947   N985    1.438   .     S
C948   N988    1.436   .     S
C948   C950    1.411   .     A
C950   C409    1.511   1_556 S
N951   O952    1.302   .     A
N951   C1005   1.445   .     S
N951   O1043   1.301   .     S
N954   O956    1.300   .     A
N954   O955    1.302   .     A
N957   O959    1.302   .     A
N957   O958    1.299   .     A
N960   O962    1.301   .     A
N960   O961    1.301   .     A
O963   C964    1.417   .     S
C964   C967    1.526   .     S
C964   H966    1.114   .     S
C964   H965    1.104   .     S
C967   H968    1.110   .     S
C967   H969    1.111   .     S
C967   C1060   1.526   .     S
C970   H971    1.111   .     S
C970   H973    1.110   .     S
C970   H972    1.110   .     S
O974   C975    1.421   .     S
C975   H976    1.103   .     S
C975   H977    1.116   .     S
C975   C978    1.528   .     S
C978   H980    1.110   .     S
C978   H979    1.112   .     S
C978   C1071   1.528   .     S
C981   H982    1.111   .     S
C981   H983    1.110   .     S
C981   H984    1.112   .     S
N985   O986    1.301   .     A
O987   N445    1.301   1_556 S
N988   O989    1.301   .     A
N988   O450    1.301   1_556 S
O991   C995    1.289   .     A
O991   Cu1003  1.950   .     S
O992   C996    1.291   .     A
O992   Cu1004  1.950   .     S
O993   Cu1004  1.951   .     S
O993   C995    1.292   .     A
O994   Cu1003  1.951   .     S
O994   C996    1.293   .     A
C995   C1015   1.454   .     S
C996   C1016   1.461   .     S
O997   C1001   1.281   .     A
O997   Cu1003  1.965   .     S
O998   C1002   1.282   .     A
O998   Cu1004  1.965   .     S
O999   Cu1004  1.965   .     S
O999   C1001   1.289   .     A
O1000  C1002   1.289   .     A
O1000  Cu1003  1.965   .     S
C1001  C1005   1.437   .     S
C1002  C1006   1.439   .     S
Cu1003 Cu1004  2.673   .     S
Cu1003 N1034   2.008   .     S
Cu1004 N1033   2.008   .     S
C1006  C825    1.357   1_655 S
C1006  N864    1.444   1_655 S
C1007  C1023   1.400   .     A
C1007  C1011   1.390   .     A
C1007  H1009   1.083   .     S
C1008  C1012   1.388   .     A
C1008  C1024   1.398   .     A
C1008  H1010   1.083   .     S
C1011  H1013   1.082   .     S
C1011  C1015   1.399   .     A
C1012  H1014   1.083   .     S
C1012  C1016   1.402   .     A
C1015  C1017   1.413   .     A
C1016  C1018   1.416   .     A
C1017  C1019   1.398   .     A
C1017  N1047   1.436   .     S
C1018  N1050   1.438   .     S
C1018  C1020   1.400   .     A
C1019  C1023   1.399   .     A
C1019  H1021   1.084   .     S
C1020  C1024   1.399   .     A
C1020  H1022   1.084   .     S
C1024  C753    1.462   1_565 S
C1025  H1027   1.083   .     S
C1025  C1039   1.405   .     A
C1025  C1029   1.409   .     A
C1026  C1030   1.409   .     A
C1026  C1040   1.405   .     A
C1026  H1028   1.083   .     S
C1029  N1033   1.366   .     A
C1029  H1031   1.081   .     S
C1030  H1032   1.081   .     S
C1030  N1034   1.366   .     A
N1033  C1035   1.375   .     A
N1034  C1036   1.376   .     A
C1035  C1037   1.429   .     A
C1035  O1053   1.384   .     S
C1036  C1038   1.427   .     A
C1036  O1064   1.386   .     S
C1037  C1039   1.413   .     A
C1037  N1075   1.438   .     S
C1038  N1078   1.436   .     S
C1038  C1040   1.411   .     A
C1040  C499    1.511   1_556 S
N1041  O1042   1.302   .     A
N1041  C825    1.445   1_655 S
N1041  O863    1.301   1_655 S
N1044  O1046   1.300   .     A
N1044  O1045   1.302   .     A
N1047  O1049   1.302   .     A
N1047  O1048   1.299   .     A
N1050  O1052   1.301   .     A
N1050  O1051   1.301   .     A
O1053  C1054   1.417   .     S
C1054  C1057   1.526   .     S
C1054  H1056   1.114   .     S
C1054  H1055   1.104   .     S
C1057  H1058   1.110   .     S
C1057  H1059   1.111   .     S
C1057  C880    1.526   1_655 S
C1060  H1061   1.111   .     S
C1060  H1063   1.110   .     S
C1060  H1062   1.110   .     S
O1064  C1065   1.421   .     S
C1065  H1066   1.103   .     S
C1065  H1067   1.116   .     S
C1065  C1068   1.528   .     S
C1068  H1070   1.110   .     S
C1068  H1069   1.112   .     S
C1068  C891    1.528   1_655 S
C1071  H1072   1.111   .     S
C1071  H1073   1.110   .     S
C1071  H1074   1.112   .     S
N1075  O1076   1.301   .     A
O1077  N535    1.301   1_556 S
N1078  O1079   1.301   .     A
N1078  O540    1.301   1_556 S
