data_str_m2_o1_o16_pcu_sym.56
_audit_creation_date              2020-01-03
_audit_creation_method            'Materials Studio'
_symmetry_space_group_name_H-M    'P1'
_symmetry_Int_Tables_number       1
_symmetry_cell_setting            triclinic
loop_
_symmetry_equiv_pos_as_xyz
  x,y,z
_cell_length_a                    28.8452
_cell_length_b                    32.5744
_cell_length_c                    26.9102
_cell_angle_alpha                 92.6881
_cell_angle_beta                  73.3527
_cell_angle_gamma                 90.1331
loop_
_atom_site_label
_atom_site_type_symbol
_atom_site_fract_x
_atom_site_fract_y
_atom_site_fract_z
_atom_site_U_iso_or_equiv
_atom_site_adp_type
_atom_site_occupancy
Br1    Br    0.07444   0.10318   0.16726   0.00000  Uiso   1.00
C2     C     0.16712   0.24575   0.24785   0.00000  Uiso   1.00
C3     C     0.12844   0.15092   0.40429   0.00000  Uiso   1.00
C4     C     0.20162   0.31188   0.26431   0.00000  Uiso   1.00
C5     C     0.14142   0.16179   0.34907   0.00000  Uiso   1.00
C6     C     0.20167   0.02100   0.26757   0.00000  Uiso   1.00
C7     C     0.16711   0.04284   0.25085   0.00000  Uiso   1.00
C8     C     0.13343   0.02135   0.23140   0.00000  Uiso   1.00
C9     C     0.13348   0.31209   0.22818   0.00000  Uiso   1.00
C10    C     0.16729   0.29036   0.24614   0.00000  Uiso   1.00
C11    C     0.29966   0.19240   0.28413   0.00000  Uiso   1.00
C12    C     0.01586   0.19243   0.28406   0.00000  Uiso   1.00
C13    C     0.14897   0.14712   0.48639   0.00000  Uiso   1.00
C14    C     0.03293   0.14109   0.21635   0.00000  Uiso   1.00
C15    C     0.31712   0.14134   0.21651   0.00000  Uiso   1.00
C16    C     0.16655   0.08750   0.25100   0.00000  Uiso   1.00
C17    C     0.19246   0.16698   0.15026   0.00000  Uiso   1.00
C18    C     0.26866   0.16473   0.01102   0.00000  Uiso   1.00
C19    C     0.20704   0.16549   0.09348   0.00000  Uiso   1.00
C20    C     0.07956   0.14533   0.43109   0.00000  Uiso   1.00
C21    C     0.06598   0.13786   0.48375   0.00000  Uiso   1.00
C22    C     0.09960   0.14058   0.01170   0.00000  Uiso   1.00
C23    C     0.16400   0.14645   0.43139   0.00000  Uiso   1.00
C24    C     0.18419   0.15348   0.01359   0.00000  Uiso   1.00
C25    C     0.23381   0.15530   0.48549   0.00000  Uiso   1.00
C26    C     0.24829   0.14664   0.43229   0.00000  Uiso   1.00
C27    C     0.21392   0.14057   0.40598   0.00000  Uiso   1.00
C28    C     0.17159   0.15967   0.06768   0.00000  Uiso   1.00
C29    C     0.25564   0.16893   0.06489   0.00000  Uiso   1.00
Cu30   Cu    0.11978   0.16666   0.25000   0.00000  Uiso   1.00
Cu31   Cu    0.21355   0.16667   0.25000   0.00000  Uiso   1.00
H32    H     0.28345   0.17484   0.08404   0.00000  Uiso   1.00
H33    H     0.22780   0.13018   0.36594   0.00000  Uiso   1.00
H34    H     0.22846   0.29577   0.27693   0.00000  Uiso   1.00
H35    H     0.10743   0.03765   0.21747   0.00000  Uiso   1.00
H36    H     0.30543   0.12093   0.18967   0.00000  Uiso   1.00
H37    H     0.28634   0.14444   0.41086   0.00000  Uiso   1.00
H38    H     0.30584   0.16899   0.48896   0.00000  Uiso   1.00
H39    H     0.13428   0.16045   0.09049   0.00000  Uiso   1.00
H40    H     0.05185   0.14595   0.41117   0.00000  Uiso   1.00
H41    H     0.08615   0.13583   0.05268   0.00000  Uiso   1.00
H42    H     0.02903   0.13060   0.00371   0.00000  Uiso   1.00
I43    I     0.25409   0.04719   0.30137   0.00000  Uiso   1.00
I44    I     0.08395   0.28489   0.19111   0.00000  Uiso   1.00
I45    I     0.25082   0.23370   0.33934   0.00000  Uiso   1.00
I46    I     0.03645   0.23407   0.33843   0.00000  Uiso   1.00
N47    N     0.04931   0.16666   0.24999   0.00000  Uiso   1.00
N48    N     0.28402   0.16669   0.25000   0.00000  Uiso   1.00
O49    O     0.12708   0.22678   0.25001   0.00000  Uiso   1.00
O50    O     0.20627   0.22679   0.25001   0.00000  Uiso   1.00
O51    O     0.10775   0.16665   0.32549   0.00000  Uiso   1.00
O52    O     0.18694   0.16666   0.32549   0.00000  Uiso   1.00
O53    O     0.12706   0.10654   0.25000   0.00000  Uiso   1.00
O54    O     0.20625   0.10655   0.25000   0.00000  Uiso   1.00
O55    O     0.14640   0.16667   0.17451   0.00000  Uiso   1.00
O56    O     0.22559   0.16668   0.17451   0.00000  Uiso   1.00
Br57   Br    0.40777   0.10318   0.16726   0.00000  Uiso   1.00
C58    C     0.50045   0.24575   0.24785   0.00000  Uiso   1.00
C59    C     0.46178   0.15092   0.40429   0.00000  Uiso   1.00
C60    C     0.53495   0.31188   0.26431   0.00000  Uiso   1.00
C61    C     0.47475   0.16179   0.34907   0.00000  Uiso   1.00
C62    C     0.53500   0.02100   0.26757   0.00000  Uiso   1.00
C63    C     0.50045   0.04284   0.25085   0.00000  Uiso   1.00
C64    C     0.46676   0.02135   0.23140   0.00000  Uiso   1.00
C65    C     0.46682   0.31209   0.22818   0.00000  Uiso   1.00
C66    C     0.50063   0.29036   0.24614   0.00000  Uiso   1.00
C67    C     0.63299   0.19240   0.28413   0.00000  Uiso   1.00
C68    C     0.34919   0.19243   0.28406   0.00000  Uiso   1.00
C69    C     0.48230   0.14712   0.48639   0.00000  Uiso   1.00
C70    C     0.36627   0.14109   0.21635   0.00000  Uiso   1.00
C71    C     0.65045   0.14134   0.21651   0.00000  Uiso   1.00
C72    C     0.49988   0.08750   0.25100   0.00000  Uiso   1.00
C73    C     0.52579   0.16698   0.15026   0.00000  Uiso   1.00
C74    C     0.60199   0.16473   0.01102   0.00000  Uiso   1.00
C75    C     0.54038   0.16549   0.09348   0.00000  Uiso   1.00
C76    C     0.41290   0.14533   0.43109   0.00000  Uiso   1.00
C77    C     0.39931   0.13786   0.48375   0.00000  Uiso   1.00
C78    C     0.43294   0.14058   0.01170   0.00000  Uiso   1.00
C79    C     0.49734   0.14645   0.43139   0.00000  Uiso   1.00
C80    C     0.51753   0.15348   0.01359   0.00000  Uiso   1.00
C81    C     0.56715   0.15530   0.48549   0.00000  Uiso   1.00
C82    C     0.58162   0.14664   0.43229   0.00000  Uiso   1.00
C83    C     0.54725   0.14057   0.40598   0.00000  Uiso   1.00
C84    C     0.50493   0.15967   0.06768   0.00000  Uiso   1.00
C85    C     0.58897   0.16893   0.06489   0.00000  Uiso   1.00
Cu86   Cu    0.45311   0.16666   0.25000   0.00000  Uiso   1.00
Cu87   Cu    0.54689   0.16667   0.25000   0.00000  Uiso   1.00
H88    H     0.61679   0.17484   0.08404   0.00000  Uiso   1.00
H89    H     0.56113   0.13018   0.36594   0.00000  Uiso   1.00
H90    H     0.56179   0.29577   0.27693   0.00000  Uiso   1.00
H91    H     0.44077   0.03765   0.21747   0.00000  Uiso   1.00
H92    H     0.63876   0.12093   0.18967   0.00000  Uiso   1.00
H93    H     0.61968   0.14444   0.41086   0.00000  Uiso   1.00
H94    H     0.63917   0.16899   0.48896   0.00000  Uiso   1.00
H95    H     0.46762   0.16045   0.09049   0.00000  Uiso   1.00
H96    H     0.38519   0.14595   0.41117   0.00000  Uiso   1.00
H97    H     0.41948   0.13583   0.05268   0.00000  Uiso   1.00
H98    H     0.36236   0.13060   0.00371   0.00000  Uiso   1.00
I99    I     0.58743   0.04719   0.30137   0.00000  Uiso   1.00
I100   I     0.41729   0.28489   0.19111   0.00000  Uiso   1.00
I101   I     0.58415   0.23370   0.33934   0.00000  Uiso   1.00
I102   I     0.36979   0.23407   0.33843   0.00000  Uiso   1.00
N103   N     0.38265   0.16666   0.24999   0.00000  Uiso   1.00
N104   N     0.61735   0.16669   0.25000   0.00000  Uiso   1.00
O105   O     0.46042   0.22678   0.25001   0.00000  Uiso   1.00
O106   O     0.53961   0.22679   0.25001   0.00000  Uiso   1.00
O107   O     0.44108   0.16665   0.32549   0.00000  Uiso   1.00
O108   O     0.52027   0.16666   0.32549   0.00000  Uiso   1.00
O109   O     0.46039   0.10654   0.25000   0.00000  Uiso   1.00
O110   O     0.53958   0.10655   0.25000   0.00000  Uiso   1.00
O111   O     0.47973   0.16667   0.17451   0.00000  Uiso   1.00
O112   O     0.55892   0.16668   0.17451   0.00000  Uiso   1.00
Br113  Br    0.74110   0.10318   0.16726   0.00000  Uiso   1.00
C114   C     0.83379   0.24575   0.24785   0.00000  Uiso   1.00
C115   C     0.79511   0.15092   0.40429   0.00000  Uiso   1.00
C116   C     0.86829   0.31188   0.26431   0.00000  Uiso   1.00
C117   C     0.80809   0.16179   0.34907   0.00000  Uiso   1.00
C118   C     0.86833   0.02100   0.26757   0.00000  Uiso   1.00
C119   C     0.83378   0.04284   0.25085   0.00000  Uiso   1.00
C120   C     0.80010   0.02135   0.23140   0.00000  Uiso   1.00
C121   C     0.80015   0.31209   0.22818   0.00000  Uiso   1.00
C122   C     0.83396   0.29036   0.24614   0.00000  Uiso   1.00
C123   C     0.96633   0.19240   0.28413   0.00000  Uiso   1.00
C124   C     0.68252   0.19243   0.28406   0.00000  Uiso   1.00
C125   C     0.81564   0.14712   0.48639   0.00000  Uiso   1.00
C126   C     0.69960   0.14109   0.21635   0.00000  Uiso   1.00
C127   C     0.98379   0.14134   0.21651   0.00000  Uiso   1.00
C128   C     0.83322   0.08750   0.25100   0.00000  Uiso   1.00
C129   C     0.85913   0.16698   0.15026   0.00000  Uiso   1.00
C130   C     0.93532   0.16473   0.01102   0.00000  Uiso   1.00
C131   C     0.87371   0.16549   0.09348   0.00000  Uiso   1.00
C132   C     0.74623   0.14533   0.43109   0.00000  Uiso   1.00
C133   C     0.73265   0.13786   0.48375   0.00000  Uiso   1.00
C134   C     0.76627   0.14058   0.01170   0.00000  Uiso   1.00
C135   C     0.83067   0.14645   0.43139   0.00000  Uiso   1.00
C136   C     0.85086   0.15348   0.01359   0.00000  Uiso   1.00
C137   C     0.90048   0.15530   0.48549   0.00000  Uiso   1.00
C138   C     0.91495   0.14664   0.43229   0.00000  Uiso   1.00
C139   C     0.88059   0.14057   0.40598   0.00000  Uiso   1.00
C140   C     0.83826   0.15967   0.06768   0.00000  Uiso   1.00
C141   C     0.92230   0.16893   0.06489   0.00000  Uiso   1.00
Cu142  Cu    0.78645   0.16666   0.25000   0.00000  Uiso   1.00
Cu143  Cu    0.88022   0.16667   0.25000   0.00000  Uiso   1.00
H144   H     0.95012   0.17484   0.08404   0.00000  Uiso   1.00
H145   H     0.89447   0.13018   0.36594   0.00000  Uiso   1.00
H146   H     0.89512   0.29577   0.27693   0.00000  Uiso   1.00
H147   H     0.77410   0.03765   0.21747   0.00000  Uiso   1.00
H148   H     0.97210   0.12093   0.18967   0.00000  Uiso   1.00
H149   H     0.95301   0.14444   0.41086   0.00000  Uiso   1.00
H150   H     0.97251   0.16899   0.48896   0.00000  Uiso   1.00
H151   H     0.80095   0.16045   0.09049   0.00000  Uiso   1.00
H152   H     0.71852   0.14595   0.41117   0.00000  Uiso   1.00
H153   H     0.75282   0.13583   0.05268   0.00000  Uiso   1.00
H154   H     0.69569   0.13060   0.00371   0.00000  Uiso   1.00
I155   I     0.92076   0.04719   0.30137   0.00000  Uiso   1.00
I156   I     0.75062   0.28489   0.19111   0.00000  Uiso   1.00
I157   I     0.91749   0.23370   0.33934   0.00000  Uiso   1.00
I158   I     0.70312   0.23407   0.33843   0.00000  Uiso   1.00
N159   N     0.71598   0.16666   0.24999   0.00000  Uiso   1.00
N160   N     0.95069   0.16669   0.25000   0.00000  Uiso   1.00
O161   O     0.79375   0.22678   0.25001   0.00000  Uiso   1.00
O162   O     0.87294   0.22679   0.25001   0.00000  Uiso   1.00
O163   O     0.77441   0.16665   0.32549   0.00000  Uiso   1.00
O164   O     0.85360   0.16666   0.32549   0.00000  Uiso   1.00
O165   O     0.79373   0.10654   0.25000   0.00000  Uiso   1.00
O166   O     0.87292   0.10655   0.25000   0.00000  Uiso   1.00
O167   O     0.81306   0.16667   0.17451   0.00000  Uiso   1.00
O168   O     0.89225   0.16668   0.17451   0.00000  Uiso   1.00
Br169  Br    0.07444   0.43651   0.16726   0.00000  Uiso   1.00
C170   C     0.16712   0.57909   0.24785   0.00000  Uiso   1.00
C171   C     0.12844   0.48426   0.40429   0.00000  Uiso   1.00
C172   C     0.20162   0.64522   0.26431   0.00000  Uiso   1.00
C173   C     0.14142   0.49512   0.34907   0.00000  Uiso   1.00
C174   C     0.20167   0.35434   0.26757   0.00000  Uiso   1.00
C175   C     0.16711   0.37617   0.25085   0.00000  Uiso   1.00
C176   C     0.13343   0.35469   0.23140   0.00000  Uiso   1.00
C177   C     0.13348   0.64543   0.22818   0.00000  Uiso   1.00
C178   C     0.16729   0.62369   0.24614   0.00000  Uiso   1.00
C179   C     0.29966   0.52573   0.28413   0.00000  Uiso   1.00
C180   C     0.01586   0.52576   0.28406   0.00000  Uiso   1.00
C181   C     0.14897   0.48045   0.48639   0.00000  Uiso   1.00
C182   C     0.03293   0.47443   0.21635   0.00000  Uiso   1.00
C183   C     0.31712   0.47467   0.21651   0.00000  Uiso   1.00
C184   C     0.16655   0.42083   0.25100   0.00000  Uiso   1.00
C185   C     0.19246   0.50031   0.15026   0.00000  Uiso   1.00
C186   C     0.26866   0.49807   0.01102   0.00000  Uiso   1.00
C187   C     0.20704   0.49882   0.09348   0.00000  Uiso   1.00
C188   C     0.07956   0.47866   0.43109   0.00000  Uiso   1.00
C189   C     0.06598   0.47119   0.48375   0.00000  Uiso   1.00
C190   C     0.09960   0.47391   0.01170   0.00000  Uiso   1.00
C191   C     0.16400   0.47978   0.43139   0.00000  Uiso   1.00
C192   C     0.18419   0.48681   0.01359   0.00000  Uiso   1.00
C193   C     0.23381   0.48863   0.48549   0.00000  Uiso   1.00
C194   C     0.24829   0.47998   0.43229   0.00000  Uiso   1.00
C195   C     0.21392   0.47390   0.40598   0.00000  Uiso   1.00
C196   C     0.17159   0.49300   0.06768   0.00000  Uiso   1.00
C197   C     0.25564   0.50226   0.06489   0.00000  Uiso   1.00
Cu198  Cu    0.11978   0.49999   0.25000   0.00000  Uiso   1.00
Cu199  Cu    0.21355   0.50001   0.25000   0.00000  Uiso   1.00
H200   H     0.28345   0.50817   0.08404   0.00000  Uiso   1.00
H201   H     0.22780   0.46351   0.36594   0.00000  Uiso   1.00
H202   H     0.22846   0.62910   0.27693   0.00000  Uiso   1.00
H203   H     0.10743   0.37098   0.21747   0.00000  Uiso   1.00
H204   H     0.30543   0.45426   0.18967   0.00000  Uiso   1.00
H205   H     0.28634   0.47778   0.41086   0.00000  Uiso   1.00
H206   H     0.30584   0.50232   0.48896   0.00000  Uiso   1.00
H207   H     0.13428   0.49378   0.09049   0.00000  Uiso   1.00
H208   H     0.05185   0.47928   0.41117   0.00000  Uiso   1.00
H209   H     0.08615   0.46916   0.05268   0.00000  Uiso   1.00
H210   H     0.02903   0.46394   0.00371   0.00000  Uiso   1.00
I211   I     0.25409   0.38053   0.30137   0.00000  Uiso   1.00
I212   I     0.08395   0.61822   0.19111   0.00000  Uiso   1.00
I213   I     0.25082   0.56704   0.33934   0.00000  Uiso   1.00
I214   I     0.03645   0.56740   0.33843   0.00000  Uiso   1.00
N215   N     0.04931   0.49999   0.24999   0.00000  Uiso   1.00
N216   N     0.28402   0.50002   0.25000   0.00000  Uiso   1.00
O217   O     0.12708   0.56011   0.25001   0.00000  Uiso   1.00
O218   O     0.20627   0.56012   0.25001   0.00000  Uiso   1.00
O219   O     0.10775   0.49998   0.32549   0.00000  Uiso   1.00
O220   O     0.18694   0.49999   0.32549   0.00000  Uiso   1.00
O221   O     0.12706   0.43988   0.25000   0.00000  Uiso   1.00
O222   O     0.20625   0.43989   0.25000   0.00000  Uiso   1.00
O223   O     0.14640   0.50001   0.17451   0.00000  Uiso   1.00
O224   O     0.22559   0.50002   0.17451   0.00000  Uiso   1.00
Br225  Br    0.40777   0.43651   0.16726   0.00000  Uiso   1.00
C226   C     0.50045   0.57909   0.24785   0.00000  Uiso   1.00
C227   C     0.46178   0.48426   0.40429   0.00000  Uiso   1.00
C228   C     0.53495   0.64522   0.26431   0.00000  Uiso   1.00
C229   C     0.47475   0.49512   0.34907   0.00000  Uiso   1.00
C230   C     0.53500   0.35434   0.26757   0.00000  Uiso   1.00
C231   C     0.50045   0.37617   0.25085   0.00000  Uiso   1.00
C232   C     0.46676   0.35469   0.23140   0.00000  Uiso   1.00
C233   C     0.46682   0.64543   0.22818   0.00000  Uiso   1.00
C234   C     0.50063   0.62369   0.24614   0.00000  Uiso   1.00
C235   C     0.63299   0.52573   0.28413   0.00000  Uiso   1.00
C236   C     0.34919   0.52576   0.28406   0.00000  Uiso   1.00
C237   C     0.48230   0.48045   0.48639   0.00000  Uiso   1.00
C238   C     0.36627   0.47443   0.21635   0.00000  Uiso   1.00
C239   C     0.65045   0.47467   0.21651   0.00000  Uiso   1.00
C240   C     0.49988   0.42083   0.25100   0.00000  Uiso   1.00
C241   C     0.52579   0.50031   0.15026   0.00000  Uiso   1.00
C242   C     0.60199   0.49807   0.01102   0.00000  Uiso   1.00
C243   C     0.54038   0.49882   0.09348   0.00000  Uiso   1.00
C244   C     0.41290   0.47866   0.43109   0.00000  Uiso   1.00
C245   C     0.39931   0.47119   0.48375   0.00000  Uiso   1.00
C246   C     0.43294   0.47391   0.01170   0.00000  Uiso   1.00
C247   C     0.49734   0.47978   0.43139   0.00000  Uiso   1.00
C248   C     0.51753   0.48681   0.01359   0.00000  Uiso   1.00
C249   C     0.56715   0.48863   0.48549   0.00000  Uiso   1.00
C250   C     0.58162   0.47998   0.43229   0.00000  Uiso   1.00
C251   C     0.54725   0.47390   0.40598   0.00000  Uiso   1.00
C252   C     0.50493   0.49300   0.06768   0.00000  Uiso   1.00
C253   C     0.58897   0.50226   0.06489   0.00000  Uiso   1.00
Cu254  Cu    0.45311   0.49999   0.25000   0.00000  Uiso   1.00
Cu255  Cu    0.54689   0.50001   0.25000   0.00000  Uiso   1.00
H256   H     0.61679   0.50817   0.08404   0.00000  Uiso   1.00
H257   H     0.56113   0.46351   0.36594   0.00000  Uiso   1.00
H258   H     0.56179   0.62910   0.27693   0.00000  Uiso   1.00
H259   H     0.44077   0.37098   0.21747   0.00000  Uiso   1.00
H260   H     0.63876   0.45426   0.18967   0.00000  Uiso   1.00
H261   H     0.61968   0.47778   0.41086   0.00000  Uiso   1.00
H262   H     0.63917   0.50232   0.48896   0.00000  Uiso   1.00
H263   H     0.46762   0.49378   0.09049   0.00000  Uiso   1.00
H264   H     0.38519   0.47928   0.41117   0.00000  Uiso   1.00
H265   H     0.41948   0.46916   0.05268   0.00000  Uiso   1.00
H266   H     0.36236   0.46394   0.00371   0.00000  Uiso   1.00
I267   I     0.58743   0.38053   0.30137   0.00000  Uiso   1.00
I268   I     0.41729   0.61822   0.19111   0.00000  Uiso   1.00
I269   I     0.58415   0.56704   0.33934   0.00000  Uiso   1.00
I270   I     0.36979   0.56740   0.33843   0.00000  Uiso   1.00
N271   N     0.38265   0.49999   0.24999   0.00000  Uiso   1.00
N272   N     0.61735   0.50002   0.25000   0.00000  Uiso   1.00
O273   O     0.46042   0.56011   0.25001   0.00000  Uiso   1.00
O274   O     0.53961   0.56012   0.25001   0.00000  Uiso   1.00
O275   O     0.44108   0.49998   0.32549   0.00000  Uiso   1.00
O276   O     0.52027   0.49999   0.32549   0.00000  Uiso   1.00
O277   O     0.46039   0.43988   0.25000   0.00000  Uiso   1.00
O278   O     0.53958   0.43989   0.25000   0.00000  Uiso   1.00
O279   O     0.47973   0.50001   0.17451   0.00000  Uiso   1.00
O280   O     0.55892   0.50002   0.17451   0.00000  Uiso   1.00
Br281  Br    0.74110   0.43651   0.16726   0.00000  Uiso   1.00
C282   C     0.83379   0.57909   0.24785   0.00000  Uiso   1.00
C283   C     0.79511   0.48426   0.40429   0.00000  Uiso   1.00
C284   C     0.86829   0.64522   0.26431   0.00000  Uiso   1.00
C285   C     0.80809   0.49512   0.34907   0.00000  Uiso   1.00
C286   C     0.86833   0.35434   0.26757   0.00000  Uiso   1.00
C287   C     0.83378   0.37617   0.25085   0.00000  Uiso   1.00
C288   C     0.80010   0.35469   0.23140   0.00000  Uiso   1.00
C289   C     0.80015   0.64543   0.22818   0.00000  Uiso   1.00
C290   C     0.83396   0.62369   0.24614   0.00000  Uiso   1.00
C291   C     0.96633   0.52573   0.28413   0.00000  Uiso   1.00
C292   C     0.68252   0.52576   0.28406   0.00000  Uiso   1.00
C293   C     0.81564   0.48045   0.48639   0.00000  Uiso   1.00
C294   C     0.69960   0.47443   0.21635   0.00000  Uiso   1.00
C295   C     0.98379   0.47467   0.21651   0.00000  Uiso   1.00
C296   C     0.83322   0.42083   0.25100   0.00000  Uiso   1.00
C297   C     0.85913   0.50031   0.15026   0.00000  Uiso   1.00
C298   C     0.93532   0.49807   0.01102   0.00000  Uiso   1.00
C299   C     0.87371   0.49882   0.09348   0.00000  Uiso   1.00
C300   C     0.74623   0.47866   0.43109   0.00000  Uiso   1.00
C301   C     0.73265   0.47119   0.48375   0.00000  Uiso   1.00
C302   C     0.76627   0.47391   0.01170   0.00000  Uiso   1.00
C303   C     0.83067   0.47978   0.43139   0.00000  Uiso   1.00
C304   C     0.85086   0.48681   0.01359   0.00000  Uiso   1.00
C305   C     0.90048   0.48863   0.48549   0.00000  Uiso   1.00
C306   C     0.91495   0.47998   0.43229   0.00000  Uiso   1.00
C307   C     0.88059   0.47390   0.40598   0.00000  Uiso   1.00
C308   C     0.83826   0.49300   0.06768   0.00000  Uiso   1.00
C309   C     0.92230   0.50226   0.06489   0.00000  Uiso   1.00
Cu310  Cu    0.78645   0.49999   0.25000   0.00000  Uiso   1.00
Cu311  Cu    0.88022   0.50001   0.25000   0.00000  Uiso   1.00
H312   H     0.95012   0.50817   0.08404   0.00000  Uiso   1.00
H313   H     0.89447   0.46351   0.36594   0.00000  Uiso   1.00
H314   H     0.89512   0.62910   0.27693   0.00000  Uiso   1.00
H315   H     0.77410   0.37098   0.21747   0.00000  Uiso   1.00
H316   H     0.97210   0.45426   0.18967   0.00000  Uiso   1.00
H317   H     0.95301   0.47778   0.41086   0.00000  Uiso   1.00
H318   H     0.97251   0.50232   0.48896   0.00000  Uiso   1.00
H319   H     0.80095   0.49378   0.09049   0.00000  Uiso   1.00
H320   H     0.71852   0.47928   0.41117   0.00000  Uiso   1.00
H321   H     0.75282   0.46916   0.05268   0.00000  Uiso   1.00
H322   H     0.69569   0.46394   0.00371   0.00000  Uiso   1.00
I323   I     0.92076   0.38053   0.30137   0.00000  Uiso   1.00
I324   I     0.75062   0.61822   0.19111   0.00000  Uiso   1.00
I325   I     0.91749   0.56704   0.33934   0.00000  Uiso   1.00
I326   I     0.70312   0.56740   0.33843   0.00000  Uiso   1.00
N327   N     0.71598   0.49999   0.24999   0.00000  Uiso   1.00
N328   N     0.95069   0.50002   0.25000   0.00000  Uiso   1.00
O329   O     0.79375   0.56011   0.25001   0.00000  Uiso   1.00
O330   O     0.87294   0.56012   0.25001   0.00000  Uiso   1.00
O331   O     0.77441   0.49998   0.32549   0.00000  Uiso   1.00
O332   O     0.85360   0.49999   0.32549   0.00000  Uiso   1.00
O333   O     0.79373   0.43988   0.25000   0.00000  Uiso   1.00
O334   O     0.87292   0.43989   0.25000   0.00000  Uiso   1.00
O335   O     0.81306   0.50001   0.17451   0.00000  Uiso   1.00
O336   O     0.89225   0.50002   0.17451   0.00000  Uiso   1.00
Br337  Br    0.07444   0.76985   0.16726   0.00000  Uiso   1.00
C338   C     0.16712   0.91242   0.24785   0.00000  Uiso   1.00
C339   C     0.12844   0.81759   0.40429   0.00000  Uiso   1.00
C340   C     0.20162   0.97855   0.26431   0.00000  Uiso   1.00
C341   C     0.14142   0.82846   0.34907   0.00000  Uiso   1.00
C342   C     0.20167   0.68767   0.26757   0.00000  Uiso   1.00
C343   C     0.16711   0.70950   0.25085   0.00000  Uiso   1.00
C344   C     0.13343   0.68802   0.23140   0.00000  Uiso   1.00
C345   C     0.13348   0.97876   0.22818   0.00000  Uiso   1.00
C346   C     0.16729   0.95703   0.24614   0.00000  Uiso   1.00
C347   C     0.29966   0.85906   0.28413   0.00000  Uiso   1.00
C348   C     0.01586   0.85910   0.28406   0.00000  Uiso   1.00
C349   C     0.14897   0.81378   0.48639   0.00000  Uiso   1.00
C350   C     0.03293   0.80776   0.21635   0.00000  Uiso   1.00
C351   C     0.31712   0.80800   0.21651   0.00000  Uiso   1.00
C352   C     0.16655   0.75417   0.25100   0.00000  Uiso   1.00
C353   C     0.19246   0.83365   0.15026   0.00000  Uiso   1.00
C354   C     0.26866   0.83140   0.01102   0.00000  Uiso   1.00
C355   C     0.20704   0.83215   0.09348   0.00000  Uiso   1.00
C356   C     0.07956   0.81200   0.43109   0.00000  Uiso   1.00
C357   C     0.06598   0.80452   0.48375   0.00000  Uiso   1.00
C358   C     0.09960   0.80724   0.01170   0.00000  Uiso   1.00
C359   C     0.16400   0.81312   0.43139   0.00000  Uiso   1.00
C360   C     0.18419   0.82015   0.01359   0.00000  Uiso   1.00
C361   C     0.23381   0.82197   0.48549   0.00000  Uiso   1.00
C362   C     0.24829   0.81331   0.43229   0.00000  Uiso   1.00
C363   C     0.21392   0.80724   0.40598   0.00000  Uiso   1.00
C364   C     0.17159   0.82634   0.06768   0.00000  Uiso   1.00
C365   C     0.25564   0.83559   0.06489   0.00000  Uiso   1.00
Cu366  Cu    0.11978   0.83333   0.25000   0.00000  Uiso   1.00
Cu367  Cu    0.21355   0.83334   0.25000   0.00000  Uiso   1.00
H368   H     0.28345   0.84150   0.08404   0.00000  Uiso   1.00
H369   H     0.22780   0.79685   0.36594   0.00000  Uiso   1.00
H370   H     0.22846   0.96243   0.27693   0.00000  Uiso   1.00
H371   H     0.10743   0.70431   0.21747   0.00000  Uiso   1.00
H372   H     0.30543   0.78759   0.18967   0.00000  Uiso   1.00
H373   H     0.28634   0.81111   0.41086   0.00000  Uiso   1.00
H374   H     0.30584   0.83565   0.48896   0.00000  Uiso   1.00
H375   H     0.13428   0.82711   0.09049   0.00000  Uiso   1.00
H376   H     0.05185   0.81261   0.41117   0.00000  Uiso   1.00
H377   H     0.08615   0.80249   0.05268   0.00000  Uiso   1.00
H378   H     0.02903   0.79727   0.00371   0.00000  Uiso   1.00
I379   I     0.25409   0.71386   0.30137   0.00000  Uiso   1.00
I380   I     0.08395   0.95156   0.19111   0.00000  Uiso   1.00
I381   I     0.25082   0.90037   0.33934   0.00000  Uiso   1.00
I382   I     0.03645   0.90074   0.33843   0.00000  Uiso   1.00
N383   N     0.04931   0.83332   0.24999   0.00000  Uiso   1.00
N384   N     0.28402   0.83335   0.25000   0.00000  Uiso   1.00
O385   O     0.12708   0.89345   0.25001   0.00000  Uiso   1.00
O386   O     0.20627   0.89346   0.25001   0.00000  Uiso   1.00
O387   O     0.10775   0.83332   0.32549   0.00000  Uiso   1.00
O388   O     0.18694   0.83333   0.32549   0.00000  Uiso   1.00
O389   O     0.12706   0.77321   0.25000   0.00000  Uiso   1.00
O390   O     0.20625   0.77322   0.25000   0.00000  Uiso   1.00
O391   O     0.14640   0.83334   0.17451   0.00000  Uiso   1.00
O392   O     0.22559   0.83335   0.17451   0.00000  Uiso   1.00
Br393  Br    0.40777   0.76985   0.16726   0.00000  Uiso   1.00
C394   C     0.50045   0.91242   0.24785   0.00000  Uiso   1.00
C395   C     0.46178   0.81759   0.40429   0.00000  Uiso   1.00
C396   C     0.53495   0.97855   0.26431   0.00000  Uiso   1.00
C397   C     0.47475   0.82846   0.34907   0.00000  Uiso   1.00
C398   C     0.53500   0.68767   0.26757   0.00000  Uiso   1.00
C399   C     0.50045   0.70950   0.25085   0.00000  Uiso   1.00
C400   C     0.46676   0.68802   0.23140   0.00000  Uiso   1.00
C401   C     0.46682   0.97876   0.22818   0.00000  Uiso   1.00
C402   C     0.50063   0.95703   0.24614   0.00000  Uiso   1.00
C403   C     0.63299   0.85906   0.28413   0.00000  Uiso   1.00
C404   C     0.34919   0.85910   0.28406   0.00000  Uiso   1.00
C405   C     0.48230   0.81378   0.48639   0.00000  Uiso   1.00
C406   C     0.36627   0.80776   0.21635   0.00000  Uiso   1.00
C407   C     0.65045   0.80800   0.21651   0.00000  Uiso   1.00
C408   C     0.49988   0.75417   0.25100   0.00000  Uiso   1.00
C409   C     0.52579   0.83365   0.15026   0.00000  Uiso   1.00
C410   C     0.60199   0.83140   0.01102   0.00000  Uiso   1.00
C411   C     0.54038   0.83215   0.09348   0.00000  Uiso   1.00
C412   C     0.41290   0.81200   0.43109   0.00000  Uiso   1.00
C413   C     0.39931   0.80452   0.48375   0.00000  Uiso   1.00
C414   C     0.43294   0.80724   0.01170   0.00000  Uiso   1.00
C415   C     0.49734   0.81312   0.43139   0.00000  Uiso   1.00
C416   C     0.51753   0.82015   0.01359   0.00000  Uiso   1.00
C417   C     0.56715   0.82197   0.48549   0.00000  Uiso   1.00
C418   C     0.58162   0.81331   0.43229   0.00000  Uiso   1.00
C419   C     0.54725   0.80724   0.40598   0.00000  Uiso   1.00
C420   C     0.50493   0.82634   0.06768   0.00000  Uiso   1.00
C421   C     0.58897   0.83559   0.06489   0.00000  Uiso   1.00
Cu422  Cu    0.45311   0.83333   0.25000   0.00000  Uiso   1.00
Cu423  Cu    0.54689   0.83334   0.25000   0.00000  Uiso   1.00
H424   H     0.61679   0.84150   0.08404   0.00000  Uiso   1.00
H425   H     0.56113   0.79685   0.36594   0.00000  Uiso   1.00
H426   H     0.56179   0.96243   0.27693   0.00000  Uiso   1.00
H427   H     0.44077   0.70431   0.21747   0.00000  Uiso   1.00
H428   H     0.63876   0.78759   0.18967   0.00000  Uiso   1.00
H429   H     0.61968   0.81111   0.41086   0.00000  Uiso   1.00
H430   H     0.63917   0.83565   0.48896   0.00000  Uiso   1.00
H431   H     0.46762   0.82711   0.09049   0.00000  Uiso   1.00
H432   H     0.38519   0.81261   0.41117   0.00000  Uiso   1.00
H433   H     0.41948   0.80249   0.05268   0.00000  Uiso   1.00
H434   H     0.36236   0.79727   0.00371   0.00000  Uiso   1.00
I435   I     0.58743   0.71386   0.30137   0.00000  Uiso   1.00
I436   I     0.41729   0.95156   0.19111   0.00000  Uiso   1.00
I437   I     0.58415   0.90037   0.33934   0.00000  Uiso   1.00
I438   I     0.36979   0.90074   0.33843   0.00000  Uiso   1.00
N439   N     0.38265   0.83332   0.24999   0.00000  Uiso   1.00
N440   N     0.61735   0.83335   0.25000   0.00000  Uiso   1.00
O441   O     0.46042   0.89345   0.25001   0.00000  Uiso   1.00
O442   O     0.53961   0.89346   0.25001   0.00000  Uiso   1.00
O443   O     0.44108   0.83332   0.32549   0.00000  Uiso   1.00
O444   O     0.52027   0.83333   0.32549   0.00000  Uiso   1.00
O445   O     0.46039   0.77321   0.25000   0.00000  Uiso   1.00
O446   O     0.53958   0.77322   0.25000   0.00000  Uiso   1.00
O447   O     0.47973   0.83334   0.17451   0.00000  Uiso   1.00
O448   O     0.55892   0.83335   0.17451   0.00000  Uiso   1.00
Br449  Br    0.74110   0.76985   0.16726   0.00000  Uiso   1.00
C450   C     0.83379   0.91242   0.24785   0.00000  Uiso   1.00
C451   C     0.79511   0.81759   0.40429   0.00000  Uiso   1.00
C452   C     0.86829   0.97855   0.26431   0.00000  Uiso   1.00
C453   C     0.80809   0.82846   0.34907   0.00000  Uiso   1.00
C454   C     0.86833   0.68767   0.26757   0.00000  Uiso   1.00
C455   C     0.83378   0.70950   0.25085   0.00000  Uiso   1.00
C456   C     0.80010   0.68802   0.23140   0.00000  Uiso   1.00
C457   C     0.80015   0.97876   0.22818   0.00000  Uiso   1.00
C458   C     0.83396   0.95703   0.24614   0.00000  Uiso   1.00
C459   C     0.96633   0.85906   0.28413   0.00000  Uiso   1.00
C460   C     0.68252   0.85910   0.28406   0.00000  Uiso   1.00
C461   C     0.81564   0.81378   0.48639   0.00000  Uiso   1.00
C462   C     0.69960   0.80776   0.21635   0.00000  Uiso   1.00
C463   C     0.98379   0.80800   0.21651   0.00000  Uiso   1.00
C464   C     0.83322   0.75417   0.25100   0.00000  Uiso   1.00
C465   C     0.85913   0.83365   0.15026   0.00000  Uiso   1.00
C466   C     0.93532   0.83140   0.01102   0.00000  Uiso   1.00
C467   C     0.87371   0.83215   0.09348   0.00000  Uiso   1.00
C468   C     0.74623   0.81200   0.43109   0.00000  Uiso   1.00
C469   C     0.73265   0.80452   0.48375   0.00000  Uiso   1.00
C470   C     0.76627   0.80724   0.01170   0.00000  Uiso   1.00
C471   C     0.83067   0.81312   0.43139   0.00000  Uiso   1.00
C472   C     0.85086   0.82015   0.01359   0.00000  Uiso   1.00
C473   C     0.90048   0.82197   0.48549   0.00000  Uiso   1.00
C474   C     0.91495   0.81331   0.43229   0.00000  Uiso   1.00
C475   C     0.88059   0.80724   0.40598   0.00000  Uiso   1.00
C476   C     0.83826   0.82634   0.06768   0.00000  Uiso   1.00
C477   C     0.92230   0.83559   0.06489   0.00000  Uiso   1.00
Cu478  Cu    0.78645   0.83333   0.25000   0.00000  Uiso   1.00
Cu479  Cu    0.88022   0.83334   0.25000   0.00000  Uiso   1.00
H480   H     0.95012   0.84150   0.08404   0.00000  Uiso   1.00
H481   H     0.89447   0.79685   0.36594   0.00000  Uiso   1.00
H482   H     0.89512   0.96243   0.27693   0.00000  Uiso   1.00
H483   H     0.77410   0.70431   0.21747   0.00000  Uiso   1.00
H484   H     0.97210   0.78759   0.18967   0.00000  Uiso   1.00
H485   H     0.95301   0.81111   0.41086   0.00000  Uiso   1.00
H486   H     0.97251   0.83565   0.48896   0.00000  Uiso   1.00
H487   H     0.80095   0.82711   0.09049   0.00000  Uiso   1.00
H488   H     0.71852   0.81261   0.41117   0.00000  Uiso   1.00
H489   H     0.75282   0.80249   0.05268   0.00000  Uiso   1.00
H490   H     0.69569   0.79727   0.00371   0.00000  Uiso   1.00
I491   I     0.92076   0.71386   0.30137   0.00000  Uiso   1.00
I492   I     0.75062   0.95156   0.19111   0.00000  Uiso   1.00
I493   I     0.91749   0.90037   0.33934   0.00000  Uiso   1.00
I494   I     0.70312   0.90074   0.33843   0.00000  Uiso   1.00
N495   N     0.71598   0.83332   0.24999   0.00000  Uiso   1.00
N496   N     0.95069   0.83335   0.25000   0.00000  Uiso   1.00
O497   O     0.79375   0.89345   0.25001   0.00000  Uiso   1.00
O498   O     0.87294   0.89346   0.25001   0.00000  Uiso   1.00
O499   O     0.77441   0.83332   0.32549   0.00000  Uiso   1.00
O500   O     0.85360   0.83333   0.32549   0.00000  Uiso   1.00
O501   O     0.79373   0.77321   0.25000   0.00000  Uiso   1.00
O502   O     0.87292   0.77322   0.25000   0.00000  Uiso   1.00
O503   O     0.81306   0.83334   0.17451   0.00000  Uiso   1.00
O504   O     0.89225   0.83335   0.17451   0.00000  Uiso   1.00
Br505  Br    0.07444   0.10318   0.66726   0.00000  Uiso   1.00
C506   C     0.16712   0.24575   0.74785   0.00000  Uiso   1.00
C507   C     0.12844   0.15092   0.90429   0.00000  Uiso   1.00
C508   C     0.20162   0.31188   0.76431   0.00000  Uiso   1.00
C509   C     0.14142   0.16179   0.84907   0.00000  Uiso   1.00
C510   C     0.20167   0.02100   0.76757   0.00000  Uiso   1.00
C511   C     0.16711   0.04284   0.75085   0.00000  Uiso   1.00
C512   C     0.13343   0.02135   0.73140   0.00000  Uiso   1.00
C513   C     0.13348   0.31209   0.72818   0.00000  Uiso   1.00
C514   C     0.16729   0.29036   0.74614   0.00000  Uiso   1.00
C515   C     0.29966   0.19240   0.78413   0.00000  Uiso   1.00
C516   C     0.01586   0.19243   0.78406   0.00000  Uiso   1.00
C517   C     0.14897   0.14712   0.98639   0.00000  Uiso   1.00
C518   C     0.03293   0.14109   0.71635   0.00000  Uiso   1.00
C519   C     0.31712   0.14134   0.71651   0.00000  Uiso   1.00
C520   C     0.16655   0.08750   0.75100   0.00000  Uiso   1.00
C521   C     0.19246   0.16698   0.65026   0.00000  Uiso   1.00
C522   C     0.26866   0.16473   0.51102   0.00000  Uiso   1.00
C523   C     0.20704   0.16549   0.59348   0.00000  Uiso   1.00
C524   C     0.07956   0.14533   0.93109   0.00000  Uiso   1.00
C525   C     0.06598   0.13786   0.98375   0.00000  Uiso   1.00
C526   C     0.09960   0.14058   0.51170   0.00000  Uiso   1.00
C527   C     0.16400   0.14645   0.93139   0.00000  Uiso   1.00
C528   C     0.18419   0.15348   0.51359   0.00000  Uiso   1.00
C529   C     0.23381   0.15530   0.98549   0.00000  Uiso   1.00
C530   C     0.24829   0.14664   0.93229   0.00000  Uiso   1.00
C531   C     0.21392   0.14057   0.90598   0.00000  Uiso   1.00
C532   C     0.17159   0.15967   0.56768   0.00000  Uiso   1.00
C533   C     0.25564   0.16893   0.56489   0.00000  Uiso   1.00
Cu534  Cu    0.11978   0.16666   0.75000   0.00000  Uiso   1.00
Cu535  Cu    0.21355   0.16667   0.75000   0.00000  Uiso   1.00
H536   H     0.28345   0.17484   0.58404   0.00000  Uiso   1.00
H537   H     0.22780   0.13018   0.86594   0.00000  Uiso   1.00
H538   H     0.22846   0.29577   0.77693   0.00000  Uiso   1.00
H539   H     0.10743   0.03765   0.71747   0.00000  Uiso   1.00
H540   H     0.30543   0.12093   0.68967   0.00000  Uiso   1.00
H541   H     0.28634   0.14444   0.91086   0.00000  Uiso   1.00
H542   H     0.30584   0.16899   0.98896   0.00000  Uiso   1.00
H543   H     0.13428   0.16045   0.59049   0.00000  Uiso   1.00
H544   H     0.05185   0.14595   0.91117   0.00000  Uiso   1.00
H545   H     0.08615   0.13583   0.55268   0.00000  Uiso   1.00
H546   H     0.02903   0.13060   0.50371   0.00000  Uiso   1.00
I547   I     0.25409   0.04719   0.80137   0.00000  Uiso   1.00
I548   I     0.08395   0.28489   0.69111   0.00000  Uiso   1.00
I549   I     0.25082   0.23370   0.83934   0.00000  Uiso   1.00
I550   I     0.03645   0.23407   0.83843   0.00000  Uiso   1.00
N551   N     0.04931   0.16666   0.74999   0.00000  Uiso   1.00
N552   N     0.28402   0.16669   0.75000   0.00000  Uiso   1.00
O553   O     0.12708   0.22678   0.75001   0.00000  Uiso   1.00
O554   O     0.20627   0.22679   0.75001   0.00000  Uiso   1.00
O555   O     0.10775   0.16665   0.82549   0.00000  Uiso   1.00
O556   O     0.18694   0.16666   0.82549   0.00000  Uiso   1.00
O557   O     0.12706   0.10654   0.75000   0.00000  Uiso   1.00
O558   O     0.20625   0.10655   0.75000   0.00000  Uiso   1.00
O559   O     0.14640   0.16667   0.67451   0.00000  Uiso   1.00
O560   O     0.22559   0.16668   0.67451   0.00000  Uiso   1.00
Br561  Br    0.40777   0.10318   0.66726   0.00000  Uiso   1.00
C562   C     0.50045   0.24575   0.74785   0.00000  Uiso   1.00
C563   C     0.46178   0.15092   0.90429   0.00000  Uiso   1.00
C564   C     0.53495   0.31188   0.76431   0.00000  Uiso   1.00
C565   C     0.47475   0.16179   0.84907   0.00000  Uiso   1.00
C566   C     0.53500   0.02100   0.76757   0.00000  Uiso   1.00
C567   C     0.50045   0.04284   0.75085   0.00000  Uiso   1.00
C568   C     0.46676   0.02135   0.73140   0.00000  Uiso   1.00
C569   C     0.46682   0.31209   0.72818   0.00000  Uiso   1.00
C570   C     0.50063   0.29036   0.74614   0.00000  Uiso   1.00
C571   C     0.63299   0.19240   0.78413   0.00000  Uiso   1.00
C572   C     0.34919   0.19243   0.78406   0.00000  Uiso   1.00
C573   C     0.48230   0.14712   0.98639   0.00000  Uiso   1.00
C574   C     0.36627   0.14109   0.71635   0.00000  Uiso   1.00
C575   C     0.65045   0.14134   0.71651   0.00000  Uiso   1.00
C576   C     0.49988   0.08750   0.75100   0.00000  Uiso   1.00
C577   C     0.52579   0.16698   0.65026   0.00000  Uiso   1.00
C578   C     0.60199   0.16473   0.51102   0.00000  Uiso   1.00
C579   C     0.54038   0.16549   0.59348   0.00000  Uiso   1.00
C580   C     0.41290   0.14533   0.93109   0.00000  Uiso   1.00
C581   C     0.39931   0.13786   0.98375   0.00000  Uiso   1.00
C582   C     0.43294   0.14058   0.51170   0.00000  Uiso   1.00
C583   C     0.49734   0.14645   0.93139   0.00000  Uiso   1.00
C584   C     0.51753   0.15348   0.51359   0.00000  Uiso   1.00
C585   C     0.56715   0.15530   0.98549   0.00000  Uiso   1.00
C586   C     0.58162   0.14664   0.93229   0.00000  Uiso   1.00
C587   C     0.54725   0.14057   0.90598   0.00000  Uiso   1.00
C588   C     0.50493   0.15967   0.56768   0.00000  Uiso   1.00
C589   C     0.58897   0.16893   0.56489   0.00000  Uiso   1.00
Cu590  Cu    0.45311   0.16666   0.75000   0.00000  Uiso   1.00
Cu591  Cu    0.54689   0.16667   0.75000   0.00000  Uiso   1.00
H592   H     0.61679   0.17484   0.58404   0.00000  Uiso   1.00
H593   H     0.56113   0.13018   0.86594   0.00000  Uiso   1.00
H594   H     0.56179   0.29577   0.77693   0.00000  Uiso   1.00
H595   H     0.44077   0.03765   0.71747   0.00000  Uiso   1.00
H596   H     0.63876   0.12093   0.68967   0.00000  Uiso   1.00
H597   H     0.61968   0.14444   0.91086   0.00000  Uiso   1.00
H598   H     0.63917   0.16899   0.98896   0.00000  Uiso   1.00
H599   H     0.46762   0.16045   0.59049   0.00000  Uiso   1.00
H600   H     0.38519   0.14595   0.91117   0.00000  Uiso   1.00
H601   H     0.41948   0.13583   0.55268   0.00000  Uiso   1.00
H602   H     0.36236   0.13060   0.50371   0.00000  Uiso   1.00
I603   I     0.58743   0.04719   0.80137   0.00000  Uiso   1.00
I604   I     0.41729   0.28489   0.69111   0.00000  Uiso   1.00
I605   I     0.58415   0.23370   0.83934   0.00000  Uiso   1.00
I606   I     0.36979   0.23407   0.83843   0.00000  Uiso   1.00
N607   N     0.38265   0.16666   0.74999   0.00000  Uiso   1.00
N608   N     0.61735   0.16669   0.75000   0.00000  Uiso   1.00
O609   O     0.46042   0.22678   0.75001   0.00000  Uiso   1.00
O610   O     0.53961   0.22679   0.75001   0.00000  Uiso   1.00
O611   O     0.44108   0.16665   0.82549   0.00000  Uiso   1.00
O612   O     0.52027   0.16666   0.82549   0.00000  Uiso   1.00
O613   O     0.46039   0.10654   0.75000   0.00000  Uiso   1.00
O614   O     0.53958   0.10655   0.75000   0.00000  Uiso   1.00
O615   O     0.47973   0.16667   0.67451   0.00000  Uiso   1.00
O616   O     0.55892   0.16668   0.67451   0.00000  Uiso   1.00
Br617  Br    0.74110   0.10318   0.66726   0.00000  Uiso   1.00
C618   C     0.83379   0.24575   0.74785   0.00000  Uiso   1.00
C619   C     0.79511   0.15092   0.90429   0.00000  Uiso   1.00
C620   C     0.86829   0.31188   0.76431   0.00000  Uiso   1.00
C621   C     0.80809   0.16179   0.84907   0.00000  Uiso   1.00
C622   C     0.86833   0.02100   0.76757   0.00000  Uiso   1.00
C623   C     0.83378   0.04284   0.75085   0.00000  Uiso   1.00
C624   C     0.80010   0.02135   0.73140   0.00000  Uiso   1.00
C625   C     0.80015   0.31209   0.72818   0.00000  Uiso   1.00
C626   C     0.83396   0.29036   0.74614   0.00000  Uiso   1.00
C627   C     0.96633   0.19240   0.78413   0.00000  Uiso   1.00
C628   C     0.68252   0.19243   0.78406   0.00000  Uiso   1.00
C629   C     0.81564   0.14712   0.98639   0.00000  Uiso   1.00
C630   C     0.69960   0.14109   0.71635   0.00000  Uiso   1.00
C631   C     0.98379   0.14134   0.71651   0.00000  Uiso   1.00
C632   C     0.83322   0.08750   0.75100   0.00000  Uiso   1.00
C633   C     0.85913   0.16698   0.65026   0.00000  Uiso   1.00
C634   C     0.93532   0.16473   0.51102   0.00000  Uiso   1.00
C635   C     0.87371   0.16549   0.59348   0.00000  Uiso   1.00
C636   C     0.74623   0.14533   0.93109   0.00000  Uiso   1.00
C637   C     0.73265   0.13786   0.98375   0.00000  Uiso   1.00
C638   C     0.76627   0.14058   0.51170   0.00000  Uiso   1.00
C639   C     0.83067   0.14645   0.93139   0.00000  Uiso   1.00
C640   C     0.85086   0.15348   0.51359   0.00000  Uiso   1.00
C641   C     0.90048   0.15530   0.98549   0.00000  Uiso   1.00
C642   C     0.91495   0.14664   0.93229   0.00000  Uiso   1.00
C643   C     0.88059   0.14057   0.90598   0.00000  Uiso   1.00
C644   C     0.83826   0.15967   0.56768   0.00000  Uiso   1.00
C645   C     0.92230   0.16893   0.56489   0.00000  Uiso   1.00
Cu646  Cu    0.78645   0.16666   0.75000   0.00000  Uiso   1.00
Cu647  Cu    0.88022   0.16667   0.75000   0.00000  Uiso   1.00
H648   H     0.95012   0.17484   0.58404   0.00000  Uiso   1.00
H649   H     0.89447   0.13018   0.86594   0.00000  Uiso   1.00
H650   H     0.89512   0.29577   0.77693   0.00000  Uiso   1.00
H651   H     0.77410   0.03765   0.71747   0.00000  Uiso   1.00
H652   H     0.97210   0.12093   0.68967   0.00000  Uiso   1.00
H653   H     0.95301   0.14444   0.91086   0.00000  Uiso   1.00
H654   H     0.97251   0.16899   0.98896   0.00000  Uiso   1.00
H655   H     0.80095   0.16045   0.59049   0.00000  Uiso   1.00
H656   H     0.71852   0.14595   0.91117   0.00000  Uiso   1.00
H657   H     0.75282   0.13583   0.55268   0.00000  Uiso   1.00
H658   H     0.69569   0.13060   0.50371   0.00000  Uiso   1.00
I659   I     0.92076   0.04719   0.80137   0.00000  Uiso   1.00
I660   I     0.75062   0.28489   0.69111   0.00000  Uiso   1.00
I661   I     0.91749   0.23370   0.83934   0.00000  Uiso   1.00
I662   I     0.70312   0.23407   0.83843   0.00000  Uiso   1.00
N663   N     0.71598   0.16666   0.74999   0.00000  Uiso   1.00
N664   N     0.95069   0.16669   0.75000   0.00000  Uiso   1.00
O665   O     0.79375   0.22678   0.75001   0.00000  Uiso   1.00
O666   O     0.87294   0.22679   0.75001   0.00000  Uiso   1.00
O667   O     0.77441   0.16665   0.82549   0.00000  Uiso   1.00
O668   O     0.85360   0.16666   0.82549   0.00000  Uiso   1.00
O669   O     0.79373   0.10654   0.75000   0.00000  Uiso   1.00
O670   O     0.87292   0.10655   0.75000   0.00000  Uiso   1.00
O671   O     0.81306   0.16667   0.67451   0.00000  Uiso   1.00
O672   O     0.89225   0.16668   0.67451   0.00000  Uiso   1.00
Br673  Br    0.07444   0.43651   0.66726   0.00000  Uiso   1.00
C674   C     0.16712   0.57909   0.74785   0.00000  Uiso   1.00
C675   C     0.12844   0.48426   0.90429   0.00000  Uiso   1.00
C676   C     0.20162   0.64522   0.76431   0.00000  Uiso   1.00
C677   C     0.14142   0.49512   0.84907   0.00000  Uiso   1.00
C678   C     0.20167   0.35434   0.76757   0.00000  Uiso   1.00
C679   C     0.16711   0.37617   0.75085   0.00000  Uiso   1.00
C680   C     0.13343   0.35469   0.73140   0.00000  Uiso   1.00
C681   C     0.13348   0.64543   0.72818   0.00000  Uiso   1.00
C682   C     0.16729   0.62369   0.74614   0.00000  Uiso   1.00
C683   C     0.29966   0.52573   0.78413   0.00000  Uiso   1.00
C684   C     0.01586   0.52576   0.78406   0.00000  Uiso   1.00
C685   C     0.14897   0.48045   0.98639   0.00000  Uiso   1.00
C686   C     0.03293   0.47443   0.71635   0.00000  Uiso   1.00
C687   C     0.31712   0.47467   0.71651   0.00000  Uiso   1.00
C688   C     0.16655   0.42083   0.75100   0.00000  Uiso   1.00
C689   C     0.19246   0.50031   0.65026   0.00000  Uiso   1.00
C690   C     0.26866   0.49807   0.51102   0.00000  Uiso   1.00
C691   C     0.20704   0.49882   0.59348   0.00000  Uiso   1.00
C692   C     0.07956   0.47866   0.93109   0.00000  Uiso   1.00
C693   C     0.06598   0.47119   0.98375   0.00000  Uiso   1.00
C694   C     0.09960   0.47391   0.51170   0.00000  Uiso   1.00
C695   C     0.16400   0.47978   0.93139   0.00000  Uiso   1.00
C696   C     0.18419   0.48681   0.51359   0.00000  Uiso   1.00
C697   C     0.23381   0.48863   0.98549   0.00000  Uiso   1.00
C698   C     0.24829   0.47998   0.93229   0.00000  Uiso   1.00
C699   C     0.21392   0.47390   0.90598   0.00000  Uiso   1.00
C700   C     0.17159   0.49300   0.56768   0.00000  Uiso   1.00
C701   C     0.25564   0.50226   0.56489   0.00000  Uiso   1.00
Cu702  Cu    0.11978   0.49999   0.75000   0.00000  Uiso   1.00
Cu703  Cu    0.21355   0.50001   0.75000   0.00000  Uiso   1.00
H704   H     0.28345   0.50817   0.58404   0.00000  Uiso   1.00
H705   H     0.22780   0.46351   0.86594   0.00000  Uiso   1.00
H706   H     0.22846   0.62910   0.77693   0.00000  Uiso   1.00
H707   H     0.10743   0.37098   0.71747   0.00000  Uiso   1.00
H708   H     0.30543   0.45426   0.68967   0.00000  Uiso   1.00
H709   H     0.28634   0.47778   0.91086   0.00000  Uiso   1.00
H710   H     0.30584   0.50232   0.98896   0.00000  Uiso   1.00
H711   H     0.13428   0.49378   0.59049   0.00000  Uiso   1.00
H712   H     0.05185   0.47928   0.91117   0.00000  Uiso   1.00
H713   H     0.08615   0.46916   0.55268   0.00000  Uiso   1.00
H714   H     0.02903   0.46394   0.50371   0.00000  Uiso   1.00
I715   I     0.25409   0.38053   0.80137   0.00000  Uiso   1.00
I716   I     0.08395   0.61822   0.69111   0.00000  Uiso   1.00
I717   I     0.25082   0.56704   0.83934   0.00000  Uiso   1.00
I718   I     0.03645   0.56740   0.83843   0.00000  Uiso   1.00
N719   N     0.04931   0.49999   0.74999   0.00000  Uiso   1.00
N720   N     0.28402   0.50002   0.75000   0.00000  Uiso   1.00
O721   O     0.12708   0.56011   0.75001   0.00000  Uiso   1.00
O722   O     0.20627   0.56012   0.75001   0.00000  Uiso   1.00
O723   O     0.10775   0.49998   0.82549   0.00000  Uiso   1.00
O724   O     0.18694   0.49999   0.82549   0.00000  Uiso   1.00
O725   O     0.12706   0.43988   0.75000   0.00000  Uiso   1.00
O726   O     0.20625   0.43989   0.75000   0.00000  Uiso   1.00
O727   O     0.14640   0.50001   0.67451   0.00000  Uiso   1.00
O728   O     0.22559   0.50002   0.67451   0.00000  Uiso   1.00
Br729  Br    0.40777   0.43651   0.66726   0.00000  Uiso   1.00
C730   C     0.50045   0.57909   0.74785   0.00000  Uiso   1.00
C731   C     0.46178   0.48426   0.90429   0.00000  Uiso   1.00
C732   C     0.53495   0.64522   0.76431   0.00000  Uiso   1.00
C733   C     0.47475   0.49512   0.84907   0.00000  Uiso   1.00
C734   C     0.53500   0.35434   0.76757   0.00000  Uiso   1.00
C735   C     0.50045   0.37617   0.75085   0.00000  Uiso   1.00
C736   C     0.46676   0.35469   0.73140   0.00000  Uiso   1.00
C737   C     0.46682   0.64543   0.72818   0.00000  Uiso   1.00
C738   C     0.50063   0.62369   0.74614   0.00000  Uiso   1.00
C739   C     0.63299   0.52573   0.78413   0.00000  Uiso   1.00
C740   C     0.34919   0.52576   0.78406   0.00000  Uiso   1.00
C741   C     0.48230   0.48045   0.98639   0.00000  Uiso   1.00
C742   C     0.36627   0.47443   0.71635   0.00000  Uiso   1.00
C743   C     0.65045   0.47467   0.71651   0.00000  Uiso   1.00
C744   C     0.49988   0.42083   0.75100   0.00000  Uiso   1.00
C745   C     0.52579   0.50031   0.65026   0.00000  Uiso   1.00
C746   C     0.60199   0.49807   0.51102   0.00000  Uiso   1.00
C747   C     0.54038   0.49882   0.59348   0.00000  Uiso   1.00
C748   C     0.41290   0.47866   0.93109   0.00000  Uiso   1.00
C749   C     0.39931   0.47119   0.98375   0.00000  Uiso   1.00
C750   C     0.43294   0.47391   0.51170   0.00000  Uiso   1.00
C751   C     0.49734   0.47978   0.93139   0.00000  Uiso   1.00
C752   C     0.51753   0.48681   0.51359   0.00000  Uiso   1.00
C753   C     0.56715   0.48863   0.98549   0.00000  Uiso   1.00
C754   C     0.58162   0.47998   0.93229   0.00000  Uiso   1.00
C755   C     0.54725   0.47390   0.90598   0.00000  Uiso   1.00
C756   C     0.50493   0.49300   0.56768   0.00000  Uiso   1.00
C757   C     0.58897   0.50226   0.56489   0.00000  Uiso   1.00
Cu758  Cu    0.45311   0.49999   0.75000   0.00000  Uiso   1.00
Cu759  Cu    0.54689   0.50001   0.75000   0.00000  Uiso   1.00
H760   H     0.61679   0.50817   0.58404   0.00000  Uiso   1.00
H761   H     0.56113   0.46351   0.86594   0.00000  Uiso   1.00
H762   H     0.56179   0.62910   0.77693   0.00000  Uiso   1.00
H763   H     0.44077   0.37098   0.71747   0.00000  Uiso   1.00
H764   H     0.63876   0.45426   0.68967   0.00000  Uiso   1.00
H765   H     0.61968   0.47778   0.91086   0.00000  Uiso   1.00
H766   H     0.63917   0.50232   0.98896   0.00000  Uiso   1.00
H767   H     0.46762   0.49378   0.59049   0.00000  Uiso   1.00
H768   H     0.38519   0.47928   0.91117   0.00000  Uiso   1.00
H769   H     0.41948   0.46916   0.55268   0.00000  Uiso   1.00
H770   H     0.36236   0.46394   0.50371   0.00000  Uiso   1.00
I771   I     0.58743   0.38053   0.80137   0.00000  Uiso   1.00
I772   I     0.41729   0.61822   0.69111   0.00000  Uiso   1.00
I773   I     0.58415   0.56704   0.83934   0.00000  Uiso   1.00
I774   I     0.36979   0.56740   0.83843   0.00000  Uiso   1.00
N775   N     0.38265   0.49999   0.74999   0.00000  Uiso   1.00
N776   N     0.61735   0.50002   0.75000   0.00000  Uiso   1.00
O777   O     0.46042   0.56011   0.75001   0.00000  Uiso   1.00
O778   O     0.53961   0.56012   0.75001   0.00000  Uiso   1.00
O779   O     0.44108   0.49998   0.82549   0.00000  Uiso   1.00
O780   O     0.52027   0.49999   0.82549   0.00000  Uiso   1.00
O781   O     0.46039   0.43988   0.75000   0.00000  Uiso   1.00
O782   O     0.53958   0.43989   0.75000   0.00000  Uiso   1.00
O783   O     0.47973   0.50001   0.67451   0.00000  Uiso   1.00
O784   O     0.55892   0.50002   0.67451   0.00000  Uiso   1.00
Br785  Br    0.74110   0.43651   0.66726   0.00000  Uiso   1.00
C786   C     0.83379   0.57909   0.74785   0.00000  Uiso   1.00
C787   C     0.79511   0.48426   0.90429   0.00000  Uiso   1.00
C788   C     0.86829   0.64522   0.76431   0.00000  Uiso   1.00
C789   C     0.80809   0.49512   0.84907   0.00000  Uiso   1.00
C790   C     0.86833   0.35434   0.76757   0.00000  Uiso   1.00
C791   C     0.83378   0.37617   0.75085   0.00000  Uiso   1.00
C792   C     0.80010   0.35469   0.73140   0.00000  Uiso   1.00
C793   C     0.80015   0.64543   0.72818   0.00000  Uiso   1.00
C794   C     0.83396   0.62369   0.74614   0.00000  Uiso   1.00
C795   C     0.96633   0.52573   0.78413   0.00000  Uiso   1.00
C796   C     0.68252   0.52576   0.78406   0.00000  Uiso   1.00
C797   C     0.81564   0.48045   0.98639   0.00000  Uiso   1.00
C798   C     0.69960   0.47443   0.71635   0.00000  Uiso   1.00
C799   C     0.98379   0.47467   0.71651   0.00000  Uiso   1.00
C800   C     0.83322   0.42083   0.75100   0.00000  Uiso   1.00
C801   C     0.85913   0.50031   0.65026   0.00000  Uiso   1.00
C802   C     0.93532   0.49807   0.51102   0.00000  Uiso   1.00
C803   C     0.87371   0.49882   0.59348   0.00000  Uiso   1.00
C804   C     0.74623   0.47866   0.93109   0.00000  Uiso   1.00
C805   C     0.73265   0.47119   0.98375   0.00000  Uiso   1.00
C806   C     0.76627   0.47391   0.51170   0.00000  Uiso   1.00
C807   C     0.83067   0.47978   0.93139   0.00000  Uiso   1.00
C808   C     0.85086   0.48681   0.51359   0.00000  Uiso   1.00
C809   C     0.90048   0.48863   0.98549   0.00000  Uiso   1.00
C810   C     0.91495   0.47998   0.93229   0.00000  Uiso   1.00
C811   C     0.88059   0.47390   0.90598   0.00000  Uiso   1.00
C812   C     0.83826   0.49300   0.56768   0.00000  Uiso   1.00
C813   C     0.92230   0.50226   0.56489   0.00000  Uiso   1.00
Cu814  Cu    0.78645   0.49999   0.75000   0.00000  Uiso   1.00
Cu815  Cu    0.88022   0.50001   0.75000   0.00000  Uiso   1.00
H816   H     0.95012   0.50817   0.58404   0.00000  Uiso   1.00
H817   H     0.89447   0.46351   0.86594   0.00000  Uiso   1.00
H818   H     0.89512   0.62910   0.77693   0.00000  Uiso   1.00
H819   H     0.77410   0.37098   0.71747   0.00000  Uiso   1.00
H820   H     0.97210   0.45426   0.68967   0.00000  Uiso   1.00
H821   H     0.95301   0.47778   0.91086   0.00000  Uiso   1.00
H822   H     0.97251   0.50232   0.98896   0.00000  Uiso   1.00
H823   H     0.80095   0.49378   0.59049   0.00000  Uiso   1.00
H824   H     0.71852   0.47928   0.91117   0.00000  Uiso   1.00
H825   H     0.75282   0.46916   0.55268   0.00000  Uiso   1.00
H826   H     0.69569   0.46394   0.50371   0.00000  Uiso   1.00
I827   I     0.92076   0.38053   0.80137   0.00000  Uiso   1.00
I828   I     0.75062   0.61822   0.69111   0.00000  Uiso   1.00
I829   I     0.91749   0.56704   0.83934   0.00000  Uiso   1.00
I830   I     0.70312   0.56740   0.83843   0.00000  Uiso   1.00
N831   N     0.71598   0.49999   0.74999   0.00000  Uiso   1.00
N832   N     0.95069   0.50002   0.75000   0.00000  Uiso   1.00
O833   O     0.79375   0.56011   0.75001   0.00000  Uiso   1.00
O834   O     0.87294   0.56012   0.75001   0.00000  Uiso   1.00
O835   O     0.77441   0.49998   0.82549   0.00000  Uiso   1.00
O836   O     0.85360   0.49999   0.82549   0.00000  Uiso   1.00
O837   O     0.79373   0.43988   0.75000   0.00000  Uiso   1.00
O838   O     0.87292   0.43989   0.75000   0.00000  Uiso   1.00
O839   O     0.81306   0.50001   0.67451   0.00000  Uiso   1.00
O840   O     0.89225   0.50002   0.67451   0.00000  Uiso   1.00
Br841  Br    0.07444   0.76985   0.66726   0.00000  Uiso   1.00
C842   C     0.16712   0.91242   0.74785   0.00000  Uiso   1.00
C843   C     0.12844   0.81759   0.90429   0.00000  Uiso   1.00
C844   C     0.20162   0.97855   0.76431   0.00000  Uiso   1.00
C845   C     0.14142   0.82846   0.84907   0.00000  Uiso   1.00
C846   C     0.20167   0.68767   0.76757   0.00000  Uiso   1.00
C847   C     0.16711   0.70950   0.75085   0.00000  Uiso   1.00
C848   C     0.13343   0.68802   0.73140   0.00000  Uiso   1.00
C849   C     0.13348   0.97876   0.72818   0.00000  Uiso   1.00
C850   C     0.16729   0.95703   0.74614   0.00000  Uiso   1.00
C851   C     0.29966   0.85906   0.78413   0.00000  Uiso   1.00
C852   C     0.01586   0.85910   0.78406   0.00000  Uiso   1.00
C853   C     0.14897   0.81378   0.98639   0.00000  Uiso   1.00
C854   C     0.03293   0.80776   0.71635   0.00000  Uiso   1.00
C855   C     0.31712   0.80800   0.71651   0.00000  Uiso   1.00
C856   C     0.16655   0.75417   0.75100   0.00000  Uiso   1.00
C857   C     0.19246   0.83365   0.65026   0.00000  Uiso   1.00
C858   C     0.26866   0.83140   0.51102   0.00000  Uiso   1.00
C859   C     0.20704   0.83215   0.59348   0.00000  Uiso   1.00
C860   C     0.07956   0.81200   0.93109   0.00000  Uiso   1.00
C861   C     0.06598   0.80452   0.98375   0.00000  Uiso   1.00
C862   C     0.09960   0.80724   0.51170   0.00000  Uiso   1.00
C863   C     0.16400   0.81312   0.93139   0.00000  Uiso   1.00
C864   C     0.18419   0.82015   0.51359   0.00000  Uiso   1.00
C865   C     0.23381   0.82197   0.98549   0.00000  Uiso   1.00
C866   C     0.24829   0.81331   0.93229   0.00000  Uiso   1.00
C867   C     0.21392   0.80724   0.90598   0.00000  Uiso   1.00
C868   C     0.17159   0.82634   0.56768   0.00000  Uiso   1.00
C869   C     0.25564   0.83559   0.56489   0.00000  Uiso   1.00
Cu870  Cu    0.11978   0.83333   0.75000   0.00000  Uiso   1.00
Cu871  Cu    0.21355   0.83334   0.75000   0.00000  Uiso   1.00
H872   H     0.28345   0.84150   0.58404   0.00000  Uiso   1.00
H873   H     0.22780   0.79685   0.86594   0.00000  Uiso   1.00
H874   H     0.22846   0.96243   0.77693   0.00000  Uiso   1.00
H875   H     0.10743   0.70431   0.71747   0.00000  Uiso   1.00
H876   H     0.30543   0.78759   0.68967   0.00000  Uiso   1.00
H877   H     0.28634   0.81111   0.91086   0.00000  Uiso   1.00
H878   H     0.30584   0.83565   0.98896   0.00000  Uiso   1.00
H879   H     0.13428   0.82711   0.59049   0.00000  Uiso   1.00
H880   H     0.05185   0.81261   0.91117   0.00000  Uiso   1.00
H881   H     0.08615   0.80249   0.55268   0.00000  Uiso   1.00
H882   H     0.02903   0.79727   0.50371   0.00000  Uiso   1.00
I883   I     0.25409   0.71386   0.80137   0.00000  Uiso   1.00
I884   I     0.08395   0.95156   0.69111   0.00000  Uiso   1.00
I885   I     0.25082   0.90037   0.83934   0.00000  Uiso   1.00
I886   I     0.03645   0.90074   0.83843   0.00000  Uiso   1.00
N887   N     0.04931   0.83332   0.74999   0.00000  Uiso   1.00
N888   N     0.28402   0.83335   0.75000   0.00000  Uiso   1.00
O889   O     0.12708   0.89345   0.75001   0.00000  Uiso   1.00
O890   O     0.20627   0.89346   0.75001   0.00000  Uiso   1.00
O891   O     0.10775   0.83332   0.82549   0.00000  Uiso   1.00
O892   O     0.18694   0.83333   0.82549   0.00000  Uiso   1.00
O893   O     0.12706   0.77321   0.75000   0.00000  Uiso   1.00
O894   O     0.20625   0.77322   0.75000   0.00000  Uiso   1.00
O895   O     0.14640   0.83334   0.67451   0.00000  Uiso   1.00
O896   O     0.22559   0.83335   0.67451   0.00000  Uiso   1.00
Br897  Br    0.40777   0.76985   0.66726   0.00000  Uiso   1.00
C898   C     0.50045   0.91242   0.74785   0.00000  Uiso   1.00
C899   C     0.46178   0.81759   0.90429   0.00000  Uiso   1.00
C900   C     0.53495   0.97855   0.76431   0.00000  Uiso   1.00
C901   C     0.47475   0.82846   0.84907   0.00000  Uiso   1.00
C902   C     0.53500   0.68767   0.76757   0.00000  Uiso   1.00
C903   C     0.50045   0.70950   0.75085   0.00000  Uiso   1.00
C904   C     0.46676   0.68802   0.73140   0.00000  Uiso   1.00
C905   C     0.46682   0.97876   0.72818   0.00000  Uiso   1.00
C906   C     0.50063   0.95703   0.74614   0.00000  Uiso   1.00
C907   C     0.63299   0.85906   0.78413   0.00000  Uiso   1.00
C908   C     0.34919   0.85910   0.78406   0.00000  Uiso   1.00
C909   C     0.48230   0.81378   0.98639   0.00000  Uiso   1.00
C910   C     0.36627   0.80776   0.71635   0.00000  Uiso   1.00
C911   C     0.65045   0.80800   0.71651   0.00000  Uiso   1.00
C912   C     0.49988   0.75417   0.75100   0.00000  Uiso   1.00
C913   C     0.52579   0.83365   0.65026   0.00000  Uiso   1.00
C914   C     0.60199   0.83140   0.51102   0.00000  Uiso   1.00
C915   C     0.54038   0.83215   0.59348   0.00000  Uiso   1.00
C916   C     0.41290   0.81200   0.93109   0.00000  Uiso   1.00
C917   C     0.39931   0.80452   0.98375   0.00000  Uiso   1.00
C918   C     0.43294   0.80724   0.51170   0.00000  Uiso   1.00
C919   C     0.49734   0.81312   0.93139   0.00000  Uiso   1.00
C920   C     0.51753   0.82015   0.51359   0.00000  Uiso   1.00
C921   C     0.56715   0.82197   0.98549   0.00000  Uiso   1.00
C922   C     0.58162   0.81331   0.93229   0.00000  Uiso   1.00
C923   C     0.54725   0.80724   0.90598   0.00000  Uiso   1.00
C924   C     0.50493   0.82634   0.56768   0.00000  Uiso   1.00
C925   C     0.58897   0.83559   0.56489   0.00000  Uiso   1.00
Cu926  Cu    0.45311   0.83333   0.75000   0.00000  Uiso   1.00
Cu927  Cu    0.54689   0.83334   0.75000   0.00000  Uiso   1.00
H928   H     0.61679   0.84150   0.58404   0.00000  Uiso   1.00
H929   H     0.56113   0.79685   0.86594   0.00000  Uiso   1.00
H930   H     0.56179   0.96243   0.77693   0.00000  Uiso   1.00
H931   H     0.44077   0.70431   0.71747   0.00000  Uiso   1.00
H932   H     0.63876   0.78759   0.68967   0.00000  Uiso   1.00
H933   H     0.61968   0.81111   0.91086   0.00000  Uiso   1.00
H934   H     0.63917   0.83565   0.98896   0.00000  Uiso   1.00
H935   H     0.46762   0.82711   0.59049   0.00000  Uiso   1.00
H936   H     0.38519   0.81261   0.91117   0.00000  Uiso   1.00
H937   H     0.41948   0.80249   0.55268   0.00000  Uiso   1.00
H938   H     0.36236   0.79727   0.50371   0.00000  Uiso   1.00
I939   I     0.58743   0.71386   0.80137   0.00000  Uiso   1.00
I940   I     0.41729   0.95156   0.69111   0.00000  Uiso   1.00
I941   I     0.58415   0.90037   0.83934   0.00000  Uiso   1.00
I942   I     0.36979   0.90074   0.83843   0.00000  Uiso   1.00
N943   N     0.38265   0.83332   0.74999   0.00000  Uiso   1.00
N944   N     0.61735   0.83335   0.75000   0.00000  Uiso   1.00
O945   O     0.46042   0.89345   0.75001   0.00000  Uiso   1.00
O946   O     0.53961   0.89346   0.75001   0.00000  Uiso   1.00
O947   O     0.44108   0.83332   0.82549   0.00000  Uiso   1.00
O948   O     0.52027   0.83333   0.82549   0.00000  Uiso   1.00
O949   O     0.46039   0.77321   0.75000   0.00000  Uiso   1.00
O950   O     0.53958   0.77322   0.75000   0.00000  Uiso   1.00
O951   O     0.47973   0.83334   0.67451   0.00000  Uiso   1.00
O952   O     0.55892   0.83335   0.67451   0.00000  Uiso   1.00
Br953  Br    0.74110   0.76985   0.66726   0.00000  Uiso   1.00
C954   C     0.83379   0.91242   0.74785   0.00000  Uiso   1.00
C955   C     0.79511   0.81759   0.90429   0.00000  Uiso   1.00
C956   C     0.86829   0.97855   0.76431   0.00000  Uiso   1.00
C957   C     0.80809   0.82846   0.84907   0.00000  Uiso   1.00
C958   C     0.86833   0.68767   0.76757   0.00000  Uiso   1.00
C959   C     0.83378   0.70950   0.75085   0.00000  Uiso   1.00
C960   C     0.80010   0.68802   0.73140   0.00000  Uiso   1.00
C961   C     0.80015   0.97876   0.72818   0.00000  Uiso   1.00
C962   C     0.83396   0.95703   0.74614   0.00000  Uiso   1.00
C963   C     0.96633   0.85906   0.78413   0.00000  Uiso   1.00
C964   C     0.68252   0.85910   0.78406   0.00000  Uiso   1.00
C965   C     0.81564   0.81378   0.98639   0.00000  Uiso   1.00
C966   C     0.69960   0.80776   0.71635   0.00000  Uiso   1.00
C967   C     0.98379   0.80800   0.71651   0.00000  Uiso   1.00
C968   C     0.83322   0.75417   0.75100   0.00000  Uiso   1.00
C969   C     0.85913   0.83365   0.65026   0.00000  Uiso   1.00
C970   C     0.93532   0.83140   0.51102   0.00000  Uiso   1.00
C971   C     0.87371   0.83215   0.59348   0.00000  Uiso   1.00
C972   C     0.74623   0.81200   0.93109   0.00000  Uiso   1.00
C973   C     0.73265   0.80452   0.98375   0.00000  Uiso   1.00
C974   C     0.76627   0.80724   0.51170   0.00000  Uiso   1.00
C975   C     0.83067   0.81312   0.93139   0.00000  Uiso   1.00
C976   C     0.85086   0.82015   0.51359   0.00000  Uiso   1.00
C977   C     0.90048   0.82197   0.98549   0.00000  Uiso   1.00
C978   C     0.91495   0.81331   0.93229   0.00000  Uiso   1.00
C979   C     0.88059   0.80724   0.90598   0.00000  Uiso   1.00
C980   C     0.83826   0.82634   0.56768   0.00000  Uiso   1.00
C981   C     0.92230   0.83559   0.56489   0.00000  Uiso   1.00
Cu982  Cu    0.78645   0.83333   0.75000   0.00000  Uiso   1.00
Cu983  Cu    0.88022   0.83334   0.75000   0.00000  Uiso   1.00
H984   H     0.95012   0.84150   0.58404   0.00000  Uiso   1.00
H985   H     0.89447   0.79685   0.86594   0.00000  Uiso   1.00
H986   H     0.89512   0.96243   0.77693   0.00000  Uiso   1.00
H987   H     0.77410   0.70431   0.71747   0.00000  Uiso   1.00
H988   H     0.97210   0.78759   0.68967   0.00000  Uiso   1.00
H989   H     0.95301   0.81111   0.91086   0.00000  Uiso   1.00
H990   H     0.97251   0.83565   0.98896   0.00000  Uiso   1.00
H991   H     0.80095   0.82711   0.59049   0.00000  Uiso   1.00
H992   H     0.71852   0.81261   0.91117   0.00000  Uiso   1.00
H993   H     0.75282   0.80249   0.55268   0.00000  Uiso   1.00
H994   H     0.69569   0.79727   0.50371   0.00000  Uiso   1.00
I995   I     0.92076   0.71386   0.80137   0.00000  Uiso   1.00
I996   I     0.75062   0.95156   0.69111   0.00000  Uiso   1.00
I997   I     0.91749   0.90037   0.83934   0.00000  Uiso   1.00
I998   I     0.70312   0.90074   0.83843   0.00000  Uiso   1.00
N999   N     0.71598   0.83332   0.74999   0.00000  Uiso   1.00
N1000  N     0.95069   0.83335   0.75000   0.00000  Uiso   1.00
O1001  O     0.79375   0.89345   0.75001   0.00000  Uiso   1.00
O1002  O     0.87294   0.89346   0.75001   0.00000  Uiso   1.00
O1003  O     0.77441   0.83332   0.82549   0.00000  Uiso   1.00
O1004  O     0.85360   0.83333   0.82549   0.00000  Uiso   1.00
O1005  O     0.79373   0.77321   0.75000   0.00000  Uiso   1.00
O1006  O     0.87292   0.77322   0.75000   0.00000  Uiso   1.00
O1007  O     0.81306   0.83334   0.67451   0.00000  Uiso   1.00
O1008  O     0.89225   0.83335   0.67451   0.00000  Uiso   1.00
loop_
_geom_bond_atom_site_label_1
_geom_bond_atom_site_label_2
_geom_bond_distance
_geom_bond_site_symmetry_2
_ccdc_geom_bond_type
Br1    C14     1.911   .     S
C2     O49     1.296   .     A
C2     C10     1.456   .     S
C2     O50     1.306   .     A
C3     C23     1.430   .     A
C3     C20     1.403   .     A
C3     C5      1.484   .     S
C4     H34     1.077   .     S
C4     C10     1.398   .     A
C4     C174    1.382   .     S
C5     O52     1.297   .     A
C5     O51     1.317   .     A
C6     C7      1.411   .     A
C6     I43     2.133   .     S
C6     C340    1.382   1_545 S
C7     C8      1.400   .     A
C7     C16     1.455   .     S
C8     H35     1.080   .     S
C8     C345    1.386   1_545 S
C9     C10     1.411   .     A
C9     I44     2.133   .     S
C9     C176    1.386   .     S
C11    N48     1.383   .     A
C11    I45     2.150   .     S
C11    C68     1.428   .     S
C12    N47     1.379   .     A
C12    I46     2.154   .     S
C12    C123    1.428   1_455 S
C13    C23     1.417   .     A
C13    C526    1.412   .     S
C13    C528    1.422   .     S
C14    N47     1.381   .     A
C14    C127    1.416   1_455 S
C15    N48     1.359   .     A
C15    H36     1.082   .     S
C15    C70     1.416   .     S
C16    O54     1.295   .     A
C16    O53     1.306   .     A
C17    O56     1.303   .     A
C17    C19     1.462   .     S
C17    O55     1.302   .     A
C18    C29     1.390   .     A
C18    C529    1.397   1_554 S
C18    H542    1.079   1_554 S
C19    C28     1.399   .     A
C19    C29     1.399   .     A
C20    H40     1.083   .     S
C20    C21     1.391   .     A
C21    C526    1.388   .     S
C21    H546    1.079   .     S
C22    H41     1.078   .     S
C22    C517    1.412   1_554 S
C22    C525    1.388   1_554 S
C23    C27     1.415   .     A
C24    C28     1.400   .     A
C24    C517    1.422   1_554 S
C24    C529    1.417   1_554 S
C25    C26     1.387   .     A
C25    C528    1.417   .     S
C25    C522    1.397   .     S
C26    H37     1.085   .     S
C26    C27     1.382   .     A
C27    H33     1.075   .     S
C28    H39     1.075   .     S
C29    H32     1.083   .     S
Cu30   N47     2.033   .     S
Cu30   O51     1.960   .     S
Cu30   O49     1.969   .     S
Cu30   O53     1.970   .     S
Cu30   O55     1.955   .     S
Cu30   Cu31    2.705   .     S
Cu31   O56     1.960   .     S
Cu31   O52     1.955   .     S
Cu31   O54     1.969   .     S
Cu31   N48     2.033   .     S
Cu31   O50     1.970   .     S
H38    C522    1.079   .     S
H42    C525    1.079   1_554 S
Br57   C70     1.911   .     S
C58    O105    1.296   .     A
C58    C66     1.456   .     S
C58    O106    1.306   .     A
C59    C79     1.430   .     A
C59    C76     1.403   .     A
C59    C61     1.484   .     S
C60    H90     1.077   .     S
C60    C66     1.398   .     A
C60    C230    1.382   .     S
C61    O108    1.297   .     A
C61    O107    1.317   .     A
C62    C63     1.411   .     A
C62    I99     2.133   .     S
C62    C396    1.382   1_545 S
C63    C64     1.400   .     A
C63    C72     1.455   .     S
C64    H91     1.080   .     S
C64    C401    1.386   1_545 S
C65    C66     1.411   .     A
C65    I100    2.133   .     S
C65    C232    1.386   .     S
C67    N104    1.383   .     A
C67    I101    2.150   .     S
C67    C124    1.428   .     S
C68    N103    1.379   .     A
C68    I102    2.154   .     S
C69    C79     1.417   .     A
C69    C582    1.412   .     S
C69    C584    1.422   .     S
C70    N103    1.381   .     A
C71    N104    1.359   .     A
C71    H92     1.082   .     S
C71    C126    1.416   .     S
C72    O110    1.295   .     A
C72    O109    1.306   .     A
C73    O112    1.303   .     A
C73    C75     1.462   .     S
C73    O111    1.302   .     A
C74    C85     1.390   .     A
C74    C585    1.397   1_554 S
C74    H598    1.079   1_554 S
C75    C84     1.399   .     A
C75    C85     1.399   .     A
C76    H96     1.083   .     S
C76    C77     1.391   .     A
C77    C582    1.388   .     S
C77    H602    1.079   .     S
C78    H97     1.078   .     S
C78    C573    1.412   1_554 S
C78    C581    1.388   1_554 S
C79    C83     1.415   .     A
C80    C84     1.400   .     A
C80    C573    1.422   1_554 S
C80    C585    1.417   1_554 S
C81    C82     1.387   .     A
C81    C584    1.417   .     S
C81    C578    1.397   .     S
C82    H93     1.085   .     S
C82    C83     1.382   .     A
C83    H89     1.075   .     S
C84    H95     1.075   .     S
C85    H88     1.083   .     S
Cu86   N103    2.033   .     S
Cu86   O107    1.960   .     S
Cu86   O105    1.969   .     S
Cu86   O109    1.970   .     S
Cu86   O111    1.955   .     S
Cu86   Cu87    2.705   .     S
Cu87   O112    1.960   .     S
Cu87   O108    1.955   .     S
Cu87   O110    1.969   .     S
Cu87   N104    2.033   .     S
Cu87   O106    1.970   .     S
H94    C578    1.079   .     S
H98    C581    1.079   1_554 S
Br113  C126    1.911   .     S
C114   O161    1.296   .     A
C114   C122    1.456   .     S
C114   O162    1.306   .     A
C115   C135    1.430   .     A
C115   C132    1.403   .     A
C115   C117    1.484   .     S
C116   H146    1.077   .     S
C116   C122    1.398   .     A
C116   C286    1.382   .     S
C117   O164    1.297   .     A
C117   O163    1.317   .     A
C118   C119    1.411   .     A
C118   I155    2.133   .     S
C118   C452    1.382   1_545 S
C119   C120    1.400   .     A
C119   C128    1.455   .     S
C120   H147    1.080   .     S
C120   C457    1.386   1_545 S
C121   C122    1.411   .     A
C121   I156    2.133   .     S
C121   C288    1.386   .     S
C123   N160    1.383   .     A
C123   I157    2.150   .     S
C123   C12     1.428   1_655 S
C124   N159    1.379   .     A
C124   I158    2.154   .     S
C125   C135    1.417   .     A
C125   C638    1.412   .     S
C125   C640    1.422   .     S
C126   N159    1.381   .     A
C127   N160    1.359   .     A
C127   H148    1.082   .     S
C127   C14     1.416   1_655 S
C128   O166    1.295   .     A
C128   O165    1.306   .     A
C129   O168    1.303   .     A
C129   C131    1.462   .     S
C129   O167    1.302   .     A
C130   C141    1.390   .     A
C130   C641    1.397   1_554 S
C130   H654    1.079   1_554 S
C131   C140    1.399   .     A
C131   C141    1.399   .     A
C132   H152    1.083   .     S
C132   C133    1.391   .     A
C133   C638    1.388   .     S
C133   H658    1.079   .     S
C134   H153    1.078   .     S
C134   C629    1.412   1_554 S
C134   C637    1.388   1_554 S
C135   C139    1.415   .     A
C136   C140    1.400   .     A
C136   C629    1.422   1_554 S
C136   C641    1.417   1_554 S
C137   C138    1.387   .     A
C137   C640    1.417   .     S
C137   C634    1.397   .     S
C138   H149    1.085   .     S
C138   C139    1.382   .     A
C139   H145    1.075   .     S
C140   H151    1.075   .     S
C141   H144    1.083   .     S
Cu142  N159    2.033   .     S
Cu142  O163    1.960   .     S
Cu142  O161    1.969   .     S
Cu142  O165    1.970   .     S
Cu142  O167    1.955   .     S
Cu142  Cu143   2.705   .     S
Cu143  O168    1.960   .     S
Cu143  O164    1.955   .     S
Cu143  O166    1.969   .     S
Cu143  N160    2.033   .     S
Cu143  O162    1.970   .     S
H150   C634    1.079   .     S
H154   C637    1.079   1_554 S
Br169  C182    1.911   .     S
C170   O217    1.296   .     A
C170   C178    1.456   .     S
C170   O218    1.306   .     A
C171   C191    1.430   .     A
C171   C188    1.403   .     A
C171   C173    1.484   .     S
C172   H202    1.077   .     S
C172   C178    1.398   .     A
C172   C342    1.382   .     S
C173   O220    1.297   .     A
C173   O219    1.317   .     A
C174   C175    1.411   .     A
C174   I211    2.133   .     S
C175   C176    1.400   .     A
C175   C184    1.455   .     S
C176   H203    1.080   .     S
C177   C178    1.411   .     A
C177   I212    2.133   .     S
C177   C344    1.386   .     S
C179   N216    1.383   .     A
C179   I213    2.150   .     S
C179   C236    1.428   .     S
C180   N215    1.379   .     A
C180   I214    2.154   .     S
C180   C291    1.428   1_455 S
C181   C191    1.417   .     A
C181   C694    1.412   .     S
C181   C696    1.422   .     S
C182   N215    1.381   .     A
C182   C295    1.416   1_455 S
C183   N216    1.359   .     A
C183   H204    1.082   .     S
C183   C238    1.416   .     S
C184   O222    1.295   .     A
C184   O221    1.306   .     A
C185   O224    1.303   .     A
C185   C187    1.462   .     S
C185   O223    1.302   .     A
C186   C197    1.390   .     A
C186   C697    1.397   1_554 S
C186   H710    1.079   1_554 S
C187   C196    1.399   .     A
C187   C197    1.399   .     A
C188   H208    1.083   .     S
C188   C189    1.391   .     A
C189   C694    1.388   .     S
C189   H714    1.079   .     S
C190   H209    1.078   .     S
C190   C685    1.412   1_554 S
C190   C693    1.388   1_554 S
C191   C195    1.415   .     A
C192   C196    1.400   .     A
C192   C685    1.422   1_554 S
C192   C697    1.417   1_554 S
C193   C194    1.387   .     A
C193   C696    1.417   .     S
C193   C690    1.397   .     S
C194   H205    1.085   .     S
C194   C195    1.382   .     A
C195   H201    1.075   .     S
C196   H207    1.075   .     S
C197   H200    1.083   .     S
Cu198  N215    2.033   .     S
Cu198  O219    1.960   .     S
Cu198  O217    1.969   .     S
Cu198  O221    1.970   .     S
Cu198  O223    1.955   .     S
Cu198  Cu199   2.705   .     S
Cu199  O224    1.960   .     S
Cu199  O220    1.955   .     S
Cu199  O222    1.969   .     S
Cu199  N216    2.033   .     S
Cu199  O218    1.970   .     S
H206   C690    1.079   .     S
H210   C693    1.079   1_554 S
Br225  C238    1.911   .     S
C226   O273    1.296   .     A
C226   C234    1.456   .     S
C226   O274    1.306   .     A
C227   C247    1.430   .     A
C227   C244    1.403   .     A
C227   C229    1.484   .     S
C228   H258    1.077   .     S
C228   C234    1.398   .     A
C228   C398    1.382   .     S
C229   O276    1.297   .     A
C229   O275    1.317   .     A
C230   C231    1.411   .     A
C230   I267    2.133   .     S
C231   C232    1.400   .     A
C231   C240    1.455   .     S
C232   H259    1.080   .     S
C233   C234    1.411   .     A
C233   I268    2.133   .     S
C233   C400    1.386   .     S
C235   N272    1.383   .     A
C235   I269    2.150   .     S
C235   C292    1.428   .     S
C236   N271    1.379   .     A
C236   I270    2.154   .     S
C237   C247    1.417   .     A
C237   C750    1.412   .     S
C237   C752    1.422   .     S
C238   N271    1.381   .     A
C239   N272    1.359   .     A
C239   H260    1.082   .     S
C239   C294    1.416   .     S
C240   O278    1.295   .     A
C240   O277    1.306   .     A
C241   O280    1.303   .     A
C241   C243    1.462   .     S
C241   O279    1.302   .     A
C242   C253    1.390   .     A
C242   C753    1.397   1_554 S
C242   H766    1.079   1_554 S
C243   C252    1.399   .     A
C243   C253    1.399   .     A
C244   H264    1.083   .     S
C244   C245    1.391   .     A
C245   C750    1.388   .     S
C245   H770    1.079   .     S
C246   H265    1.078   .     S
C246   C741    1.412   1_554 S
C246   C749    1.388   1_554 S
C247   C251    1.415   .     A
C248   C252    1.400   .     A
C248   C741    1.422   1_554 S
C248   C753    1.417   1_554 S
C249   C250    1.387   .     A
C249   C752    1.417   .     S
C249   C746    1.397   .     S
C250   H261    1.085   .     S
C250   C251    1.382   .     A
C251   H257    1.075   .     S
C252   H263    1.075   .     S
C253   H256    1.083   .     S
Cu254  N271    2.033   .     S
Cu254  O275    1.960   .     S
Cu254  O273    1.969   .     S
Cu254  O277    1.970   .     S
Cu254  O279    1.955   .     S
Cu254  Cu255   2.705   .     S
Cu255  O280    1.960   .     S
Cu255  O276    1.955   .     S
Cu255  O278    1.969   .     S
Cu255  N272    2.033   .     S
Cu255  O274    1.970   .     S
H262   C746    1.079   .     S
H266   C749    1.079   1_554 S
Br281  C294    1.911   .     S
C282   O329    1.296   .     A
C282   C290    1.456   .     S
C282   O330    1.306   .     A
C283   C303    1.430   .     A
C283   C300    1.403   .     A
C283   C285    1.484   .     S
C284   H314    1.077   .     S
C284   C290    1.398   .     A
C284   C454    1.382   .     S
C285   O332    1.297   .     A
C285   O331    1.317   .     A
C286   C287    1.411   .     A
C286   I323    2.133   .     S
C287   C288    1.400   .     A
C287   C296    1.455   .     S
C288   H315    1.080   .     S
C289   C290    1.411   .     A
C289   I324    2.133   .     S
C289   C456    1.386   .     S
C291   N328    1.383   .     A
C291   I325    2.150   .     S
C291   C180    1.428   1_655 S
C292   N327    1.379   .     A
C292   I326    2.154   .     S
C293   C303    1.417   .     A
C293   C806    1.412   .     S
C293   C808    1.422   .     S
C294   N327    1.381   .     A
C295   N328    1.359   .     A
C295   H316    1.082   .     S
C295   C182    1.416   1_655 S
C296   O334    1.295   .     A
C296   O333    1.306   .     A
C297   O336    1.303   .     A
C297   C299    1.462   .     S
C297   O335    1.302   .     A
C298   C309    1.390   .     A
C298   C809    1.397   1_554 S
C298   H822    1.079   1_554 S
C299   C308    1.399   .     A
C299   C309    1.399   .     A
C300   H320    1.083   .     S
C300   C301    1.391   .     A
C301   C806    1.388   .     S
C301   H826    1.079   .     S
C302   H321    1.078   .     S
C302   C797    1.412   1_554 S
C302   C805    1.388   1_554 S
C303   C307    1.415   .     A
C304   C308    1.400   .     A
C304   C797    1.422   1_554 S
C304   C809    1.417   1_554 S
C305   C306    1.387   .     A
C305   C808    1.417   .     S
C305   C802    1.397   .     S
C306   H317    1.085   .     S
C306   C307    1.382   .     A
C307   H313    1.075   .     S
C308   H319    1.075   .     S
C309   H312    1.083   .     S
Cu310  N327    2.033   .     S
Cu310  O331    1.960   .     S
Cu310  O329    1.969   .     S
Cu310  O333    1.970   .     S
Cu310  O335    1.955   .     S
Cu310  Cu311   2.705   .     S
Cu311  O336    1.960   .     S
Cu311  O332    1.955   .     S
Cu311  O334    1.969   .     S
Cu311  N328    2.033   .     S
Cu311  O330    1.970   .     S
H318   C802    1.079   .     S
H322   C805    1.079   1_554 S
Br337  C350    1.911   .     S
C338   O385    1.296   .     A
C338   C346    1.456   .     S
C338   O386    1.306   .     A
C339   C359    1.430   .     A
C339   C356    1.403   .     A
C339   C341    1.484   .     S
C340   H370    1.077   .     S
C340   C346    1.398   .     A
C340   C6      1.382   1_565 S
C341   O388    1.297   .     A
C341   O387    1.317   .     A
C342   C343    1.411   .     A
C342   I379    2.133   .     S
C343   C344    1.400   .     A
C343   C352    1.455   .     S
C344   H371    1.080   .     S
C345   C346    1.411   .     A
C345   I380    2.133   .     S
C345   C8      1.386   1_565 S
C347   N384    1.383   .     A
C347   I381    2.150   .     S
C347   C404    1.428   .     S
C348   N383    1.379   .     A
C348   I382    2.154   .     S
C348   C459    1.428   1_455 S
C349   C359    1.417   .     A
C349   C862    1.412   .     S
C349   C864    1.422   .     S
C350   N383    1.381   .     A
C350   C463    1.416   1_455 S
C351   N384    1.359   .     A
C351   H372    1.082   .     S
C351   C406    1.416   .     S
C352   O390    1.295   .     A
C352   O389    1.306   .     A
C353   O392    1.303   .     A
C353   C355    1.462   .     S
C353   O391    1.302   .     A
C354   C365    1.390   .     A
C354   C865    1.397   1_554 S
C354   H878    1.079   1_554 S
C355   C364    1.399   .     A
C355   C365    1.399   .     A
C356   H376    1.083   .     S
C356   C357    1.391   .     A
C357   C862    1.388   .     S
C357   H882    1.079   .     S
C358   H377    1.078   .     S
C358   C853    1.412   1_554 S
C358   C861    1.388   1_554 S
C359   C363    1.415   .     A
C360   C364    1.400   .     A
C360   C853    1.422   1_554 S
C360   C865    1.417   1_554 S
C361   C362    1.387   .     A
C361   C864    1.417   .     S
C361   C858    1.397   .     S
C362   H373    1.085   .     S
C362   C363    1.382   .     A
C363   H369    1.075   .     S
C364   H375    1.075   .     S
C365   H368    1.083   .     S
Cu366  N383    2.033   .     S
Cu366  O387    1.960   .     S
Cu366  O385    1.969   .     S
Cu366  O389    1.970   .     S
Cu366  O391    1.955   .     S
Cu366  Cu367   2.705   .     S
Cu367  O392    1.960   .     S
Cu367  O388    1.955   .     S
Cu367  O390    1.969   .     S
Cu367  N384    2.033   .     S
Cu367  O386    1.970   .     S
H374   C858    1.079   .     S
H378   C861    1.079   1_554 S
Br393  C406    1.911   .     S
C394   O441    1.296   .     A
C394   C402    1.456   .     S
C394   O442    1.306   .     A
C395   C415    1.430   .     A
C395   C412    1.403   .     A
C395   C397    1.484   .     S
C396   H426    1.077   .     S
C396   C402    1.398   .     A
C396   C62     1.382   1_565 S
C397   O444    1.297   .     A
C397   O443    1.317   .     A
C398   C399    1.411   .     A
C398   I435    2.133   .     S
C399   C400    1.400   .     A
C399   C408    1.455   .     S
C400   H427    1.080   .     S
C401   C402    1.411   .     A
C401   I436    2.133   .     S
C401   C64     1.386   1_565 S
C403   N440    1.383   .     A
C403   I437    2.150   .     S
C403   C460    1.428   .     S
C404   N439    1.379   .     A
C404   I438    2.154   .     S
C405   C415    1.417   .     A
C405   C918    1.412   .     S
C405   C920    1.422   .     S
C406   N439    1.381   .     A
C407   N440    1.359   .     A
C407   H428    1.082   .     S
C407   C462    1.416   .     S
C408   O446    1.295   .     A
C408   O445    1.306   .     A
C409   O448    1.303   .     A
C409   C411    1.462   .     S
C409   O447    1.302   .     A
C410   C421    1.390   .     A
C410   C921    1.397   1_554 S
C410   H934    1.079   1_554 S
C411   C420    1.399   .     A
C411   C421    1.399   .     A
C412   H432    1.083   .     S
C412   C413    1.391   .     A
C413   C918    1.388   .     S
C413   H938    1.079   .     S
C414   H433    1.078   .     S
C414   C909    1.412   1_554 S
C414   C917    1.388   1_554 S
C415   C419    1.415   .     A
C416   C420    1.400   .     A
C416   C909    1.422   1_554 S
C416   C921    1.417   1_554 S
C417   C418    1.387   .     A
C417   C920    1.417   .     S
C417   C914    1.397   .     S
C418   H429    1.085   .     S
C418   C419    1.382   .     A
C419   H425    1.075   .     S
C420   H431    1.075   .     S
C421   H424    1.083   .     S
Cu422  N439    2.033   .     S
Cu422  O443    1.960   .     S
Cu422  O441    1.969   .     S
Cu422  O445    1.970   .     S
Cu422  O447    1.955   .     S
Cu422  Cu423   2.705   .     S
Cu423  O448    1.960   .     S
Cu423  O444    1.955   .     S
Cu423  O446    1.969   .     S
Cu423  N440    2.033   .     S
Cu423  O442    1.970   .     S
H430   C914    1.079   .     S
H434   C917    1.079   1_554 S
Br449  C462    1.911   .     S
C450   O497    1.296   .     A
C450   C458    1.456   .     S
C450   O498    1.306   .     A
C451   C471    1.430   .     A
C451   C468    1.403   .     A
C451   C453    1.484   .     S
C452   H482    1.077   .     S
C452   C458    1.398   .     A
C452   C118    1.382   1_565 S
C453   O500    1.297   .     A
C453   O499    1.317   .     A
C454   C455    1.411   .     A
C454   I491    2.133   .     S
C455   C456    1.400   .     A
C455   C464    1.455   .     S
C456   H483    1.080   .     S
C457   C458    1.411   .     A
C457   I492    2.133   .     S
C457   C120    1.386   1_565 S
C459   N496    1.383   .     A
C459   I493    2.150   .     S
C459   C348    1.428   1_655 S
C460   N495    1.379   .     A
C460   I494    2.154   .     S
C461   C471    1.417   .     A
C461   C974    1.412   .     S
C461   C976    1.422   .     S
C462   N495    1.381   .     A
C463   N496    1.359   .     A
C463   H484    1.082   .     S
C463   C350    1.416   1_655 S
C464   O502    1.295   .     A
C464   O501    1.306   .     A
C465   O504    1.303   .     A
C465   C467    1.462   .     S
C465   O503    1.302   .     A
C466   C477    1.390   .     A
C466   C977    1.397   1_554 S
C466   H990    1.079   1_554 S
C467   C476    1.399   .     A
C467   C477    1.399   .     A
C468   H488    1.083   .     S
C468   C469    1.391   .     A
C469   C974    1.388   .     S
C469   H994    1.079   .     S
C470   H489    1.078   .     S
C470   C965    1.412   1_554 S
C470   C973    1.388   1_554 S
C471   C475    1.415   .     A
C472   C476    1.400   .     A
C472   C965    1.422   1_554 S
C472   C977    1.417   1_554 S
C473   C474    1.387   .     A
C473   C976    1.417   .     S
C473   C970    1.397   .     S
C474   H485    1.085   .     S
C474   C475    1.382   .     A
C475   H481    1.075   .     S
C476   H487    1.075   .     S
C477   H480    1.083   .     S
Cu478  N495    2.033   .     S
Cu478  O499    1.960   .     S
Cu478  O497    1.969   .     S
Cu478  O501    1.970   .     S
Cu478  O503    1.955   .     S
Cu478  Cu479   2.705   .     S
Cu479  O504    1.960   .     S
Cu479  O500    1.955   .     S
Cu479  O502    1.969   .     S
Cu479  N496    2.033   .     S
Cu479  O498    1.970   .     S
H486   C970    1.079   .     S
H490   C973    1.079   1_554 S
Br505  C518    1.911   .     S
C506   O553    1.296   .     A
C506   C514    1.456   .     S
C506   O554    1.306   .     A
C507   C527    1.430   .     A
C507   C524    1.403   .     A
C507   C509    1.484   .     S
C508   H538    1.077   .     S
C508   C514    1.398   .     A
C508   C678    1.382   .     S
C509   O556    1.297   .     A
C509   O555    1.317   .     A
C510   C511    1.411   .     A
C510   I547    2.133   .     S
C510   C844    1.382   1_545 S
C511   C512    1.400   .     A
C511   C520    1.455   .     S
C512   H539    1.080   .     S
C512   C849    1.386   1_545 S
C513   C514    1.411   .     A
C513   I548    2.133   .     S
C513   C680    1.386   .     S
C515   N552    1.383   .     A
C515   I549    2.150   .     S
C515   C572    1.428   .     S
C516   N551    1.379   .     A
C516   I550    2.154   .     S
C516   C627    1.428   1_455 S
C517   C527    1.417   .     A
C517   C22     1.412   1_556 S
C517   C24     1.422   1_556 S
C518   N551    1.381   .     A
C518   C631    1.416   1_455 S
C519   N552    1.359   .     A
C519   H540    1.082   .     S
C519   C574    1.416   .     S
C520   O558    1.295   .     A
C520   O557    1.306   .     A
C521   O560    1.303   .     A
C521   C523    1.462   .     S
C521   O559    1.302   .     A
C522   C533    1.390   .     A
C523   C532    1.399   .     A
C523   C533    1.399   .     A
C524   H544    1.083   .     S
C524   C525    1.391   .     A
C525   C22     1.388   1_556 S
C525   H42     1.079   1_556 S
C526   H545    1.078   .     S
C527   C531    1.415   .     A
C528   C532    1.400   .     A
C529   C530    1.387   .     A
C529   C24     1.417   1_556 S
C529   C18     1.397   1_556 S
C530   H541    1.085   .     S
C530   C531    1.382   .     A
C531   H537    1.075   .     S
C532   H543    1.075   .     S
C533   H536    1.083   .     S
Cu534  N551    2.033   .     S
Cu534  O555    1.960   .     S
Cu534  O553    1.969   .     S
Cu534  O557    1.970   .     S
Cu534  O559    1.955   .     S
Cu534  Cu535   2.705   .     S
Cu535  O560    1.960   .     S
Cu535  O556    1.955   .     S
Cu535  O558    1.969   .     S
Cu535  N552    2.033   .     S
Cu535  O554    1.970   .     S
H542   C18     1.079   1_556 S
Br561  C574    1.911   .     S
C562   O609    1.296   .     A
C562   C570    1.456   .     S
C562   O610    1.306   .     A
C563   C583    1.430   .     A
C563   C580    1.403   .     A
C563   C565    1.484   .     S
C564   H594    1.077   .     S
C564   C570    1.398   .     A
C564   C734    1.382   .     S
C565   O612    1.297   .     A
C565   O611    1.317   .     A
C566   C567    1.411   .     A
C566   I603    2.133   .     S
C566   C900    1.382   1_545 S
C567   C568    1.400   .     A
C567   C576    1.455   .     S
C568   H595    1.080   .     S
C568   C905    1.386   1_545 S
C569   C570    1.411   .     A
C569   I604    2.133   .     S
C569   C736    1.386   .     S
C571   N608    1.383   .     A
C571   I605    2.150   .     S
C571   C628    1.428   .     S
C572   N607    1.379   .     A
C572   I606    2.154   .     S
C573   C583    1.417   .     A
C573   C78     1.412   1_556 S
C573   C80     1.422   1_556 S
C574   N607    1.381   .     A
C575   N608    1.359   .     A
C575   H596    1.082   .     S
C575   C630    1.416   .     S
C576   O614    1.295   .     A
C576   O613    1.306   .     A
C577   O616    1.303   .     A
C577   C579    1.462   .     S
C577   O615    1.302   .     A
C578   C589    1.390   .     A
C579   C588    1.399   .     A
C579   C589    1.399   .     A
C580   H600    1.083   .     S
C580   C581    1.391   .     A
C581   C78     1.388   1_556 S
C581   H98     1.079   1_556 S
C582   H601    1.078   .     S
C583   C587    1.415   .     A
C584   C588    1.400   .     A
C585   C586    1.387   .     A
C585   C80     1.417   1_556 S
C585   C74     1.397   1_556 S
C586   H597    1.085   .     S
C586   C587    1.382   .     A
C587   H593    1.075   .     S
C588   H599    1.075   .     S
C589   H592    1.083   .     S
Cu590  N607    2.033   .     S
Cu590  O611    1.960   .     S
Cu590  O609    1.969   .     S
Cu590  O613    1.970   .     S
Cu590  O615    1.955   .     S
Cu590  Cu591   2.705   .     S
Cu591  O616    1.960   .     S
Cu591  O612    1.955   .     S
Cu591  O614    1.969   .     S
Cu591  N608    2.033   .     S
Cu591  O610    1.970   .     S
H598   C74     1.079   1_556 S
Br617  C630    1.911   .     S
C618   O665    1.296   .     A
C618   C626    1.456   .     S
C618   O666    1.306   .     A
C619   C639    1.430   .     A
C619   C636    1.403   .     A
C619   C621    1.484   .     S
C620   H650    1.077   .     S
C620   C626    1.398   .     A
C620   C790    1.382   .     S
C621   O668    1.297   .     A
C621   O667    1.317   .     A
C622   C623    1.411   .     A
C622   I659    2.133   .     S
C622   C956    1.382   1_545 S
C623   C624    1.400   .     A
C623   C632    1.455   .     S
C624   H651    1.080   .     S
C624   C961    1.386   1_545 S
C625   C626    1.411   .     A
C625   I660    2.133   .     S
C625   C792    1.386   .     S
C627   N664    1.383   .     A
C627   I661    2.150   .     S
C627   C516    1.428   1_655 S
C628   N663    1.379   .     A
C628   I662    2.154   .     S
C629   C639    1.417   .     A
C629   C134    1.412   1_556 S
C629   C136    1.422   1_556 S
C630   N663    1.381   .     A
C631   N664    1.359   .     A
C631   H652    1.082   .     S
C631   C518    1.416   1_655 S
C632   O670    1.295   .     A
C632   O669    1.306   .     A
C633   O672    1.303   .     A
C633   C635    1.462   .     S
C633   O671    1.302   .     A
C634   C645    1.390   .     A
C635   C644    1.399   .     A
C635   C645    1.399   .     A
C636   H656    1.083   .     S
C636   C637    1.391   .     A
C637   C134    1.388   1_556 S
C637   H154    1.079   1_556 S
C638   H657    1.078   .     S
C639   C643    1.415   .     A
C640   C644    1.400   .     A
C641   C642    1.387   .     A
C641   C136    1.417   1_556 S
C641   C130    1.397   1_556 S
C642   H653    1.085   .     S
C642   C643    1.382   .     A
C643   H649    1.075   .     S
C644   H655    1.075   .     S
C645   H648    1.083   .     S
Cu646  N663    2.033   .     S
Cu646  O667    1.960   .     S
Cu646  O665    1.969   .     S
Cu646  O669    1.970   .     S
Cu646  O671    1.955   .     S
Cu646  Cu647   2.705   .     S
Cu647  O672    1.960   .     S
Cu647  O668    1.955   .     S
Cu647  O670    1.969   .     S
Cu647  N664    2.033   .     S
Cu647  O666    1.970   .     S
H654   C130    1.079   1_556 S
Br673  C686    1.911   .     S
C674   O721    1.296   .     A
C674   C682    1.456   .     S
C674   O722    1.306   .     A
C675   C695    1.430   .     A
C675   C692    1.403   .     A
C675   C677    1.484   .     S
C676   H706    1.077   .     S
C676   C682    1.398   .     A
C676   C846    1.382   .     S
C677   O724    1.297   .     A
C677   O723    1.317   .     A
C678   C679    1.411   .     A
C678   I715    2.133   .     S
C679   C680    1.400   .     A
C679   C688    1.455   .     S
C680   H707    1.080   .     S
C681   C682    1.411   .     A
C681   I716    2.133   .     S
C681   C848    1.386   .     S
C683   N720    1.383   .     A
C683   I717    2.150   .     S
C683   C740    1.428   .     S
C684   N719    1.379   .     A
C684   I718    2.154   .     S
C684   C795    1.428   1_455 S
C685   C695    1.417   .     A
C685   C190    1.412   1_556 S
C685   C192    1.422   1_556 S
C686   N719    1.381   .     A
C686   C799    1.416   1_455 S
C687   N720    1.359   .     A
C687   H708    1.082   .     S
C687   C742    1.416   .     S
C688   O726    1.295   .     A
C688   O725    1.306   .     A
C689   O728    1.303   .     A
C689   C691    1.462   .     S
C689   O727    1.302   .     A
C690   C701    1.390   .     A
C691   C700    1.399   .     A
C691   C701    1.399   .     A
C692   H712    1.083   .     S
C692   C693    1.391   .     A
C693   C190    1.388   1_556 S
C693   H210    1.079   1_556 S
C694   H713    1.078   .     S
C695   C699    1.415   .     A
C696   C700    1.400   .     A
C697   C698    1.387   .     A
C697   C192    1.417   1_556 S
C697   C186    1.397   1_556 S
C698   H709    1.085   .     S
C698   C699    1.382   .     A
C699   H705    1.075   .     S
C700   H711    1.075   .     S
C701   H704    1.083   .     S
Cu702  N719    2.033   .     S
Cu702  O723    1.960   .     S
Cu702  O721    1.969   .     S
Cu702  O725    1.970   .     S
Cu702  O727    1.955   .     S
Cu702  Cu703   2.705   .     S
Cu703  O728    1.960   .     S
Cu703  O724    1.955   .     S
Cu703  O726    1.969   .     S
Cu703  N720    2.033   .     S
Cu703  O722    1.970   .     S
H710   C186    1.079   1_556 S
Br729  C742    1.911   .     S
C730   O777    1.296   .     A
C730   C738    1.456   .     S
C730   O778    1.306   .     A
C731   C751    1.430   .     A
C731   C748    1.403   .     A
C731   C733    1.484   .     S
C732   H762    1.077   .     S
C732   C738    1.398   .     A
C732   C902    1.382   .     S
C733   O780    1.297   .     A
C733   O779    1.317   .     A
C734   C735    1.411   .     A
C734   I771    2.133   .     S
C735   C736    1.400   .     A
C735   C744    1.455   .     S
C736   H763    1.080   .     S
C737   C738    1.411   .     A
C737   I772    2.133   .     S
C737   C904    1.386   .     S
C739   N776    1.383   .     A
C739   I773    2.150   .     S
C739   C796    1.428   .     S
C740   N775    1.379   .     A
C740   I774    2.154   .     S
C741   C751    1.417   .     A
C741   C246    1.412   1_556 S
C741   C248    1.422   1_556 S
C742   N775    1.381   .     A
C743   N776    1.359   .     A
C743   H764    1.082   .     S
C743   C798    1.416   .     S
C744   O782    1.295   .     A
C744   O781    1.306   .     A
C745   O784    1.303   .     A
C745   C747    1.462   .     S
C745   O783    1.302   .     A
C746   C757    1.390   .     A
C747   C756    1.399   .     A
C747   C757    1.399   .     A
C748   H768    1.083   .     S
C748   C749    1.391   .     A
C749   C246    1.388   1_556 S
C749   H266    1.079   1_556 S
C750   H769    1.078   .     S
C751   C755    1.415   .     A
C752   C756    1.400   .     A
C753   C754    1.387   .     A
C753   C248    1.417   1_556 S
C753   C242    1.397   1_556 S
C754   H765    1.085   .     S
C754   C755    1.382   .     A
C755   H761    1.075   .     S
C756   H767    1.075   .     S
C757   H760    1.083   .     S
Cu758  N775    2.033   .     S
Cu758  O779    1.960   .     S
Cu758  O777    1.969   .     S
Cu758  O781    1.970   .     S
Cu758  O783    1.955   .     S
Cu758  Cu759   2.705   .     S
Cu759  O784    1.960   .     S
Cu759  O780    1.955   .     S
Cu759  O782    1.969   .     S
Cu759  N776    2.033   .     S
Cu759  O778    1.970   .     S
H766   C242    1.079   1_556 S
Br785  C798    1.911   .     S
C786   O833    1.296   .     A
C786   C794    1.456   .     S
C786   O834    1.306   .     A
C787   C807    1.430   .     A
C787   C804    1.403   .     A
C787   C789    1.484   .     S
C788   H818    1.077   .     S
C788   C794    1.398   .     A
C788   C958    1.382   .     S
C789   O836    1.297   .     A
C789   O835    1.317   .     A
C790   C791    1.411   .     A
C790   I827    2.133   .     S
C791   C792    1.400   .     A
C791   C800    1.455   .     S
C792   H819    1.080   .     S
C793   C794    1.411   .     A
C793   I828    2.133   .     S
C793   C960    1.386   .     S
C795   N832    1.383   .     A
C795   I829    2.150   .     S
C795   C684    1.428   1_655 S
C796   N831    1.379   .     A
C796   I830    2.154   .     S
C797   C807    1.417   .     A
C797   C302    1.412   1_556 S
C797   C304    1.422   1_556 S
C798   N831    1.381   .     A
C799   N832    1.359   .     A
C799   H820    1.082   .     S
C799   C686    1.416   1_655 S
C800   O838    1.295   .     A
C800   O837    1.306   .     A
C801   O840    1.303   .     A
C801   C803    1.462   .     S
C801   O839    1.302   .     A
C802   C813    1.390   .     A
C803   C812    1.399   .     A
C803   C813    1.399   .     A
C804   H824    1.083   .     S
C804   C805    1.391   .     A
C805   C302    1.388   1_556 S
C805   H322    1.079   1_556 S
C806   H825    1.078   .     S
C807   C811    1.415   .     A
C808   C812    1.400   .     A
C809   C810    1.387   .     A
C809   C304    1.417   1_556 S
C809   C298    1.397   1_556 S
C810   H821    1.085   .     S
C810   C811    1.382   .     A
C811   H817    1.075   .     S
C812   H823    1.075   .     S
C813   H816    1.083   .     S
Cu814  N831    2.033   .     S
Cu814  O835    1.960   .     S
Cu814  O833    1.969   .     S
Cu814  O837    1.970   .     S
Cu814  O839    1.955   .     S
Cu814  Cu815   2.705   .     S
Cu815  O840    1.960   .     S
Cu815  O836    1.955   .     S
Cu815  O838    1.969   .     S
Cu815  N832    2.033   .     S
Cu815  O834    1.970   .     S
H822   C298    1.079   1_556 S
Br841  C854    1.911   .     S
C842   O889    1.296   .     A
C842   C850    1.456   .     S
C842   O890    1.306   .     A
C843   C863    1.430   .     A
C843   C860    1.403   .     A
C843   C845    1.484   .     S
C844   H874    1.077   .     S
C844   C850    1.398   .     A
C844   C510    1.382   1_565 S
C845   O892    1.297   .     A
C845   O891    1.317   .     A
C846   C847    1.411   .     A
C846   I883    2.133   .     S
C847   C848    1.400   .     A
C847   C856    1.455   .     S
C848   H875    1.080   .     S
C849   C850    1.411   .     A
C849   I884    2.133   .     S
C849   C512    1.386   1_565 S
C851   N888    1.383   .     A
C851   I885    2.150   .     S
C851   C908    1.428   .     S
C852   N887    1.379   .     A
C852   I886    2.154   .     S
C852   C963    1.428   1_455 S
C853   C863    1.417   .     A
C853   C358    1.412   1_556 S
C853   C360    1.422   1_556 S
C854   N887    1.381   .     A
C854   C967    1.416   1_455 S
C855   N888    1.359   .     A
C855   H876    1.082   .     S
C855   C910    1.416   .     S
C856   O894    1.295   .     A
C856   O893    1.306   .     A
C857   O896    1.303   .     A
C857   C859    1.462   .     S
C857   O895    1.302   .     A
C858   C869    1.390   .     A
C859   C868    1.399   .     A
C859   C869    1.399   .     A
C860   H880    1.083   .     S
C860   C861    1.391   .     A
C861   C358    1.388   1_556 S
C861   H378    1.079   1_556 S
C862   H881    1.078   .     S
C863   C867    1.415   .     A
C864   C868    1.400   .     A
C865   C866    1.387   .     A
C865   C360    1.417   1_556 S
C865   C354    1.397   1_556 S
C866   H877    1.085   .     S
C866   C867    1.382   .     A
C867   H873    1.075   .     S
C868   H879    1.075   .     S
C869   H872    1.083   .     S
Cu870  N887    2.033   .     S
Cu870  O891    1.960   .     S
Cu870  O889    1.969   .     S
Cu870  O893    1.970   .     S
Cu870  O895    1.955   .     S
Cu870  Cu871   2.705   .     S
Cu871  O896    1.960   .     S
Cu871  O892    1.955   .     S
Cu871  O894    1.969   .     S
Cu871  N888    2.033   .     S
Cu871  O890    1.970   .     S
H878   C354    1.079   1_556 S
Br897  C910    1.911   .     S
C898   O945    1.296   .     A
C898   C906    1.456   .     S
C898   O946    1.306   .     A
C899   C919    1.430   .     A
C899   C916    1.403   .     A
C899   C901    1.484   .     S
C900   H930    1.077   .     S
C900   C906    1.398   .     A
C900   C566    1.382   1_565 S
C901   O948    1.297   .     A
C901   O947    1.317   .     A
C902   C903    1.411   .     A
C902   I939    2.133   .     S
C903   C904    1.400   .     A
C903   C912    1.455   .     S
C904   H931    1.080   .     S
C905   C906    1.411   .     A
C905   I940    2.133   .     S
C905   C568    1.386   1_565 S
C907   N944    1.383   .     A
C907   I941    2.150   .     S
C907   C964    1.428   .     S
C908   N943    1.379   .     A
C908   I942    2.154   .     S
C909   C919    1.417   .     A
C909   C414    1.412   1_556 S
C909   C416    1.422   1_556 S
C910   N943    1.381   .     A
C911   N944    1.359   .     A
C911   H932    1.082   .     S
C911   C966    1.416   .     S
C912   O950    1.295   .     A
C912   O949    1.306   .     A
C913   O952    1.303   .     A
C913   C915    1.462   .     S
C913   O951    1.302   .     A
C914   C925    1.390   .     A
C915   C924    1.399   .     A
C915   C925    1.399   .     A
C916   H936    1.083   .     S
C916   C917    1.391   .     A
C917   C414    1.388   1_556 S
C917   H434    1.079   1_556 S
C918   H937    1.078   .     S
C919   C923    1.415   .     A
C920   C924    1.400   .     A
C921   C922    1.387   .     A
C921   C416    1.417   1_556 S
C921   C410    1.397   1_556 S
C922   H933    1.085   .     S
C922   C923    1.382   .     A
C923   H929    1.075   .     S
C924   H935    1.075   .     S
C925   H928    1.083   .     S
Cu926  N943    2.033   .     S
Cu926  O947    1.960   .     S
Cu926  O945    1.969   .     S
Cu926  O949    1.970   .     S
Cu926  O951    1.955   .     S
Cu926  Cu927   2.705   .     S
Cu927  O952    1.960   .     S
Cu927  O948    1.955   .     S
Cu927  O950    1.969   .     S
Cu927  N944    2.033   .     S
Cu927  O946    1.970   .     S
H934   C410    1.079   1_556 S
Br953  C966    1.911   .     S
C954   O1001   1.296   .     A
C954   C962    1.456   .     S
C954   O1002   1.306   .     A
C955   C975    1.430   .     A
C955   C972    1.403   .     A
C955   C957    1.484   .     S
C956   H986    1.077   .     S
C956   C962    1.398   .     A
C956   C622    1.382   1_565 S
C957   O1004   1.297   .     A
C957   O1003   1.317   .     A
C958   C959    1.411   .     A
C958   I995    2.133   .     S
C959   C960    1.400   .     A
C959   C968    1.455   .     S
C960   H987    1.080   .     S
C961   C962    1.411   .     A
C961   I996    2.133   .     S
C961   C624    1.386   1_565 S
C963   N1000   1.383   .     A
C963   I997    2.150   .     S
C963   C852    1.428   1_655 S
C964   N999    1.379   .     A
C964   I998    2.154   .     S
C965   C975    1.417   .     A
C965   C470    1.412   1_556 S
C965   C472    1.422   1_556 S
C966   N999    1.381   .     A
C967   N1000   1.359   .     A
C967   H988    1.082   .     S
C967   C854    1.416   1_655 S
C968   O1006   1.295   .     A
C968   O1005   1.306   .     A
C969   O1008   1.303   .     A
C969   C971    1.462   .     S
C969   O1007   1.302   .     A
C970   C981    1.390   .     A
C971   C980    1.399   .     A
C971   C981    1.399   .     A
C972   H992    1.083   .     S
C972   C973    1.391   .     A
C973   C470    1.388   1_556 S
C973   H490    1.079   1_556 S
C974   H993    1.078   .     S
C975   C979    1.415   .     A
C976   C980    1.400   .     A
C977   C978    1.387   .     A
C977   C472    1.417   1_556 S
C977   C466    1.397   1_556 S
C978   H989    1.085   .     S
C978   C979    1.382   .     A
C979   H985    1.075   .     S
C980   H991    1.075   .     S
C981   H984    1.083   .     S
Cu982  N999    2.033   .     S
Cu982  O1003   1.960   .     S
Cu982  O1001   1.969   .     S
Cu982  O1005   1.970   .     S
Cu982  O1007   1.955   .     S
Cu982  Cu983   2.705   .     S
Cu983  O1008   1.960   .     S
Cu983  O1004   1.955   .     S
Cu983  O1006   1.969   .     S
Cu983  N1000   2.033   .     S
Cu983  O1002   1.970   .     S
H990   C466    1.079   1_556 S
