data_str_m2_o1_o10_pcu_sym.52
_audit_creation_date              2020-01-03
_audit_creation_method            'Materials Studio'
_symmetry_space_group_name_H-M    'P1'
_symmetry_Int_Tables_number       1
_symmetry_cell_setting            triclinic
loop_
_symmetry_equiv_pos_as_xyz
  x,y,z
_cell_length_a                    26.3608
_cell_length_b                    32.5174
_cell_length_c                    28.6796
_cell_angle_alpha                 89.6848
_cell_angle_beta                  98.3646
_cell_angle_gamma                 92.0250
loop_
_atom_site_label
_atom_site_type_symbol
_atom_site_fract_x
_atom_site_fract_y
_atom_site_fract_z
_atom_site_U_iso_or_equiv
_atom_site_adp_type
_atom_site_occupancy
C1     C     0.16968   0.08760   0.16726   0.00000  Uiso   1.00
C2     C     0.18754   0.02111   0.21032   0.00000  Uiso   1.00
C3     C     0.16994   0.29079   0.16639   0.00000  Uiso   1.00
C4     C     0.17458   0.04316   0.16805   0.00000  Uiso   1.00
C5     C     0.13168   0.14235   0.02015   0.00000  Uiso   1.00
C6     C     0.20338   0.18947   0.31291   0.00000  Uiso   1.00
C7     C     0.13078   0.14428   0.30350   0.00000  Uiso   1.00
C8     C     0.20275   0.18909   0.02977   0.00000  Uiso   1.00
C9     C     0.30973   0.10084   0.11458   0.00000  Uiso   1.00
C10    C     0.27183   0.08507   0.07274   0.00000  Uiso   1.00
C11    C     0.00740   0.23838   0.21054   0.00000  Uiso   1.00
C12    C     0.16701   0.24599   0.16654   0.00000  Uiso   1.00
C13    C     0.04789   0.26337   0.24273   0.00000  Uiso   1.00
C14    C     0.17416   0.29599   0.04974   0.00000  Uiso   1.00
C15    C     0.14705   0.28033   0.00259   0.00000  Uiso   1.00
C16    C     0.25329   0.05340   0.25897   0.00000  Uiso   1.00
C17    C     0.28742   0.01903   0.28012   0.00000  Uiso   1.00
C18    C     0.09130   0.07767   0.01859   0.00000  Uiso   1.00
C19    C     0.06167   0.04792   0.04663   0.00000  Uiso   1.00
C20    C     0.27850   0.23362   0.32048   0.00000  Uiso   1.00
C21    C     0.32077   0.20448   0.00667   0.00000  Uiso   1.00
C22    C     0.06800   0.16555   0.15466   0.00000  Uiso   1.00
C23    C     0.26525   0.16815   0.17859   0.00000  Uiso   1.00
C24    C     0.01284   0.16015   0.14916   0.00000  Uiso   1.00
C25    C     0.32044   0.17334   0.18377   0.00000  Uiso   1.00
C26    C     0.16474   0.02218   0.12531   0.00000  Uiso   1.00
C27    C     0.18468   0.31171   0.20902   0.00000  Uiso   1.00
C28    C     0.16054   0.31293   0.12393   0.00000  Uiso   1.00
Cu29   Cu    0.16667   0.16667   0.21355   0.00000  Uiso   1.00
Cu30   Cu    0.16667   0.16666   0.11978   0.00000  Uiso   1.00
H31    H     0.15767   0.03895   0.09268   0.00000  Uiso   1.00
H32    H     0.30205   0.24854   0.21558   0.00000  Uiso   1.00
H33    H     0.01348   0.24534   0.17353   0.00000  Uiso   1.00
H34    H     0.04480   0.25686   0.28017   0.00000  Uiso   1.00
H35    H     0.08670   0.25536   0.23607   0.00000  Uiso   1.00
H36    H     0.04285   0.29673   0.23593   0.00000  Uiso   1.00
H37    H     0.20728   0.27653   0.06188   0.00000  Uiso   1.00
H38    H     0.18875   0.32793   0.04426   0.00000  Uiso   1.00
H39    H     0.11866   0.30286   0.32043   0.00000  Uiso   1.00
H40    H     0.17552   0.27634   0.31176   0.00000  Uiso   1.00
H41    H     0.12698   0.25026   0.00699   0.00000  Uiso   1.00
H42    H     0.19453   0.29492   0.24142   0.00000  Uiso   1.00
H43    H     0.25875   0.07980   0.28380   0.00000  Uiso   1.00
H44    H     0.26613   0.06474   0.22565   0.00000  Uiso   1.00
H45    H     0.28538   0.32623   0.25514   0.00000  Uiso   1.00
H46    H     0.32785   0.03065   0.28712   0.00000  Uiso   1.00
H47    H     0.27520   0.00811   0.31367   0.00000  Uiso   1.00
H48    H     0.12956   0.06485   0.01637   0.00000  Uiso   1.00
H49    H     0.06881   0.07881   0.31614   0.00000  Uiso   1.00
H50    H     0.02015   0.05280   0.03809   0.00000  Uiso   1.00
H51    H     0.06844   0.01575   0.03707   0.00000  Uiso   1.00
H52    H     0.07344   0.05225   0.08496   0.00000  Uiso   1.00
H53    H     0.10160   0.12788   0.27977   0.00000  Uiso   1.00
H54    H     0.26492   0.25204   0.01491   0.00000  Uiso   1.00
H55    H     0.29561   0.25710   0.29883   0.00000  Uiso   1.00
H56    H     0.01856   0.22186   0.02940   0.00000  Uiso   1.00
H57    H     0.30556   0.17958   0.02771   0.00000  Uiso   1.00
H58    H     0.00375   0.19016   0.31076   0.00000  Uiso   1.00
H59    H     0.23070   0.20617   0.05392   0.00000  Uiso   1.00
H60    H     0.29192   0.09509   0.14704   0.00000  Uiso   1.00
H61    H     0.01193   0.08325   0.11762   0.00000  Uiso   1.00
H62    H     0.28572   0.09355   0.03915   0.00000  Uiso   1.00
H63    H     0.26666   0.05110   0.07486   0.00000  Uiso   1.00
H64    H     0.23418   0.09914   0.07264   0.00000  Uiso   1.00
N65    N     0.16668   0.16668   0.28403   0.00000  Uiso   1.00
N66    N     0.16665   0.16666   0.04931   0.00000  Uiso   1.00
O67    O     0.16666   0.10655   0.20625   0.00000  Uiso   1.00
O68    O     0.01189   0.19606   0.22170   0.00000  Uiso   1.00
O69    O     0.13913   0.29368   0.08250   0.00000  Uiso   1.00
O70    O     0.20083   0.04060   0.25337   0.00000  Uiso   1.00
O71    O     0.09657   0.11719   0.04001   0.00000  Uiso   1.00
O72    O     0.23840   0.21282   0.29061   0.00000  Uiso   1.00
O73    O     0.16667   0.22678   0.12709   0.00000  Uiso   1.00
O74    O     0.16666   0.10654   0.12706   0.00000  Uiso   1.00
O75    O     0.16667   0.22679   0.20628   0.00000  Uiso   1.00
O76    O     0.09161   0.16667   0.19712   0.00000  Uiso   1.00
O77    O     0.24172   0.16666   0.13621   0.00000  Uiso   1.00
O78    O     0.09161   0.16666   0.11793   0.00000  Uiso   1.00
O79    O     0.24172   0.16667   0.21540   0.00000  Uiso   1.00
O80    O     0.32129   0.14297   0.10748   0.00000  Uiso   1.00
C81    C     0.50301   0.08760   0.16726   0.00000  Uiso   1.00
C82    C     0.52087   0.02111   0.21032   0.00000  Uiso   1.00
C83    C     0.50328   0.29079   0.16639   0.00000  Uiso   1.00
C84    C     0.50791   0.04316   0.16805   0.00000  Uiso   1.00
C85    C     0.46501   0.14235   0.02015   0.00000  Uiso   1.00
C86    C     0.53671   0.18947   0.31291   0.00000  Uiso   1.00
C87    C     0.46411   0.14428   0.30350   0.00000  Uiso   1.00
C88    C     0.53609   0.18909   0.02977   0.00000  Uiso   1.00
C89    C     0.64306   0.10084   0.11458   0.00000  Uiso   1.00
C90    C     0.60517   0.08507   0.07274   0.00000  Uiso   1.00
C91    C     0.34074   0.23838   0.21054   0.00000  Uiso   1.00
C92    C     0.50034   0.24599   0.16654   0.00000  Uiso   1.00
C93    C     0.38122   0.26337   0.24273   0.00000  Uiso   1.00
C94    C     0.50749   0.29599   0.04974   0.00000  Uiso   1.00
C95    C     0.48038   0.28033   0.00259   0.00000  Uiso   1.00
C96    C     0.58663   0.05340   0.25897   0.00000  Uiso   1.00
C97    C     0.62075   0.01903   0.28012   0.00000  Uiso   1.00
C98    C     0.42464   0.07767   0.01859   0.00000  Uiso   1.00
C99    C     0.39501   0.04792   0.04663   0.00000  Uiso   1.00
C100   C     0.61184   0.23362   0.32048   0.00000  Uiso   1.00
C101   C     0.65410   0.20448   0.00667   0.00000  Uiso   1.00
C102   C     0.40133   0.16555   0.15466   0.00000  Uiso   1.00
C103   C     0.59859   0.16815   0.17859   0.00000  Uiso   1.00
C104   C     0.34618   0.16015   0.14916   0.00000  Uiso   1.00
C105   C     0.65377   0.17334   0.18377   0.00000  Uiso   1.00
C106   C     0.49807   0.02218   0.12531   0.00000  Uiso   1.00
C107   C     0.51801   0.31171   0.20902   0.00000  Uiso   1.00
C108   C     0.49387   0.31293   0.12393   0.00000  Uiso   1.00
Cu109  Cu    0.50000   0.16667   0.21355   0.00000  Uiso   1.00
Cu110  Cu    0.50000   0.16666   0.11978   0.00000  Uiso   1.00
H111   H     0.49100   0.03895   0.09268   0.00000  Uiso   1.00
H112   H     0.63538   0.24854   0.21558   0.00000  Uiso   1.00
H113   H     0.34682   0.24534   0.17353   0.00000  Uiso   1.00
H114   H     0.37813   0.25686   0.28017   0.00000  Uiso   1.00
H115   H     0.42003   0.25536   0.23607   0.00000  Uiso   1.00
H116   H     0.37619   0.29673   0.23593   0.00000  Uiso   1.00
H117   H     0.54061   0.27653   0.06188   0.00000  Uiso   1.00
H118   H     0.52208   0.32793   0.04426   0.00000  Uiso   1.00
H119   H     0.45199   0.30286   0.32043   0.00000  Uiso   1.00
H120   H     0.50886   0.27634   0.31176   0.00000  Uiso   1.00
H121   H     0.46031   0.25026   0.00699   0.00000  Uiso   1.00
H122   H     0.52787   0.29492   0.24142   0.00000  Uiso   1.00
H123   H     0.59208   0.07980   0.28380   0.00000  Uiso   1.00
H124   H     0.59947   0.06474   0.22565   0.00000  Uiso   1.00
H125   H     0.61872   0.32623   0.25514   0.00000  Uiso   1.00
H126   H     0.66118   0.03065   0.28712   0.00000  Uiso   1.00
H127   H     0.60853   0.00811   0.31367   0.00000  Uiso   1.00
H128   H     0.46289   0.06485   0.01637   0.00000  Uiso   1.00
H129   H     0.40214   0.07881   0.31614   0.00000  Uiso   1.00
H130   H     0.35348   0.05280   0.03809   0.00000  Uiso   1.00
H131   H     0.40177   0.01575   0.03707   0.00000  Uiso   1.00
H132   H     0.40677   0.05225   0.08496   0.00000  Uiso   1.00
H133   H     0.43494   0.12788   0.27977   0.00000  Uiso   1.00
H134   H     0.59826   0.25204   0.01491   0.00000  Uiso   1.00
H135   H     0.62894   0.25710   0.29883   0.00000  Uiso   1.00
H136   H     0.35189   0.22186   0.02940   0.00000  Uiso   1.00
H137   H     0.63890   0.17958   0.02771   0.00000  Uiso   1.00
H138   H     0.33709   0.19016   0.31076   0.00000  Uiso   1.00
H139   H     0.56404   0.20617   0.05392   0.00000  Uiso   1.00
H140   H     0.62525   0.09509   0.14704   0.00000  Uiso   1.00
H141   H     0.34526   0.08325   0.11762   0.00000  Uiso   1.00
H142   H     0.61905   0.09355   0.03915   0.00000  Uiso   1.00
H143   H     0.59999   0.05110   0.07486   0.00000  Uiso   1.00
H144   H     0.56751   0.09914   0.07264   0.00000  Uiso   1.00
N145   N     0.50001   0.16668   0.28403   0.00000  Uiso   1.00
N146   N     0.49999   0.16666   0.04931   0.00000  Uiso   1.00
O147   O     0.50000   0.10655   0.20625   0.00000  Uiso   1.00
O148   O     0.34522   0.19606   0.22170   0.00000  Uiso   1.00
O149   O     0.47247   0.29368   0.08250   0.00000  Uiso   1.00
O150   O     0.53417   0.04060   0.25337   0.00000  Uiso   1.00
O151   O     0.42991   0.11719   0.04001   0.00000  Uiso   1.00
O152   O     0.57173   0.21282   0.29061   0.00000  Uiso   1.00
O153   O     0.50000   0.22678   0.12709   0.00000  Uiso   1.00
O154   O     0.50000   0.10654   0.12706   0.00000  Uiso   1.00
O155   O     0.50000   0.22679   0.20628   0.00000  Uiso   1.00
O156   O     0.42495   0.16667   0.19712   0.00000  Uiso   1.00
O157   O     0.57505   0.16666   0.13621   0.00000  Uiso   1.00
O158   O     0.42494   0.16666   0.11793   0.00000  Uiso   1.00
O159   O     0.57506   0.16667   0.21540   0.00000  Uiso   1.00
O160   O     0.65462   0.14297   0.10748   0.00000  Uiso   1.00
C161   C     0.83635   0.08760   0.16726   0.00000  Uiso   1.00
C162   C     0.85421   0.02111   0.21032   0.00000  Uiso   1.00
C163   C     0.83661   0.29079   0.16639   0.00000  Uiso   1.00
C164   C     0.84124   0.04316   0.16805   0.00000  Uiso   1.00
C165   C     0.79834   0.14235   0.02015   0.00000  Uiso   1.00
C166   C     0.87004   0.18947   0.31291   0.00000  Uiso   1.00
C167   C     0.79744   0.14428   0.30350   0.00000  Uiso   1.00
C168   C     0.86942   0.18909   0.02977   0.00000  Uiso   1.00
C169   C     0.97639   0.10084   0.11458   0.00000  Uiso   1.00
C170   C     0.93850   0.08507   0.07274   0.00000  Uiso   1.00
C171   C     0.67407   0.23838   0.21054   0.00000  Uiso   1.00
C172   C     0.83368   0.24599   0.16654   0.00000  Uiso   1.00
C173   C     0.71455   0.26337   0.24273   0.00000  Uiso   1.00
C174   C     0.84082   0.29599   0.04974   0.00000  Uiso   1.00
C175   C     0.81372   0.28033   0.00259   0.00000  Uiso   1.00
C176   C     0.91996   0.05340   0.25897   0.00000  Uiso   1.00
C177   C     0.95408   0.01903   0.28012   0.00000  Uiso   1.00
C178   C     0.75797   0.07767   0.01859   0.00000  Uiso   1.00
C179   C     0.72834   0.04792   0.04663   0.00000  Uiso   1.00
C180   C     0.94517   0.23362   0.32048   0.00000  Uiso   1.00
C181   C     0.98744   0.20448   0.00667   0.00000  Uiso   1.00
C182   C     0.73467   0.16555   0.15466   0.00000  Uiso   1.00
C183   C     0.93192   0.16815   0.17859   0.00000  Uiso   1.00
C184   C     0.67951   0.16015   0.14916   0.00000  Uiso   1.00
C185   C     0.98710   0.17334   0.18377   0.00000  Uiso   1.00
C186   C     0.83140   0.02218   0.12531   0.00000  Uiso   1.00
C187   C     0.85135   0.31171   0.20902   0.00000  Uiso   1.00
C188   C     0.82721   0.31293   0.12393   0.00000  Uiso   1.00
Cu189  Cu    0.83333   0.16667   0.21355   0.00000  Uiso   1.00
Cu190  Cu    0.83333   0.16666   0.11978   0.00000  Uiso   1.00
H191   H     0.82434   0.03895   0.09268   0.00000  Uiso   1.00
H192   H     0.96871   0.24854   0.21558   0.00000  Uiso   1.00
H193   H     0.68015   0.24534   0.17353   0.00000  Uiso   1.00
H194   H     0.71147   0.25686   0.28017   0.00000  Uiso   1.00
H195   H     0.75336   0.25536   0.23607   0.00000  Uiso   1.00
H196   H     0.70952   0.29673   0.23593   0.00000  Uiso   1.00
H197   H     0.87395   0.27653   0.06188   0.00000  Uiso   1.00
H198   H     0.85542   0.32793   0.04426   0.00000  Uiso   1.00
H199   H     0.78532   0.30286   0.32043   0.00000  Uiso   1.00
H200   H     0.84219   0.27634   0.31176   0.00000  Uiso   1.00
H201   H     0.79365   0.25026   0.00699   0.00000  Uiso   1.00
H202   H     0.86120   0.29492   0.24142   0.00000  Uiso   1.00
H203   H     0.92542   0.07980   0.28380   0.00000  Uiso   1.00
H204   H     0.93280   0.06474   0.22565   0.00000  Uiso   1.00
H205   H     0.95205   0.32623   0.25514   0.00000  Uiso   1.00
H206   H     0.99452   0.03065   0.28712   0.00000  Uiso   1.00
H207   H     0.94187   0.00811   0.31367   0.00000  Uiso   1.00
H208   H     0.79622   0.06485   0.01637   0.00000  Uiso   1.00
H209   H     0.73547   0.07881   0.31614   0.00000  Uiso   1.00
H210   H     0.68681   0.05280   0.03809   0.00000  Uiso   1.00
H211   H     0.73511   0.01575   0.03707   0.00000  Uiso   1.00
H212   H     0.74011   0.05225   0.08496   0.00000  Uiso   1.00
H213   H     0.76827   0.12788   0.27977   0.00000  Uiso   1.00
H214   H     0.93159   0.25204   0.01491   0.00000  Uiso   1.00
H215   H     0.96227   0.25710   0.29883   0.00000  Uiso   1.00
H216   H     0.68523   0.22186   0.02940   0.00000  Uiso   1.00
H217   H     0.97223   0.17958   0.02771   0.00000  Uiso   1.00
H218   H     0.67042   0.19016   0.31076   0.00000  Uiso   1.00
H219   H     0.89737   0.20617   0.05392   0.00000  Uiso   1.00
H220   H     0.95859   0.09509   0.14704   0.00000  Uiso   1.00
H221   H     0.67859   0.08325   0.11762   0.00000  Uiso   1.00
H222   H     0.95239   0.09355   0.03915   0.00000  Uiso   1.00
H223   H     0.93332   0.05110   0.07486   0.00000  Uiso   1.00
H224   H     0.90085   0.09914   0.07264   0.00000  Uiso   1.00
N225   N     0.83335   0.16668   0.28403   0.00000  Uiso   1.00
N226   N     0.83332   0.16666   0.04931   0.00000  Uiso   1.00
O227   O     0.83333   0.10655   0.20625   0.00000  Uiso   1.00
O228   O     0.67855   0.19606   0.22170   0.00000  Uiso   1.00
O229   O     0.80580   0.29368   0.08250   0.00000  Uiso   1.00
O230   O     0.86750   0.04060   0.25337   0.00000  Uiso   1.00
O231   O     0.76324   0.11719   0.04001   0.00000  Uiso   1.00
O232   O     0.90507   0.21282   0.29061   0.00000  Uiso   1.00
O233   O     0.83334   0.22678   0.12709   0.00000  Uiso   1.00
O234   O     0.83333   0.10654   0.12706   0.00000  Uiso   1.00
O235   O     0.83334   0.22679   0.20628   0.00000  Uiso   1.00
O236   O     0.75828   0.16667   0.19712   0.00000  Uiso   1.00
O237   O     0.90839   0.16666   0.13621   0.00000  Uiso   1.00
O238   O     0.75828   0.16666   0.11793   0.00000  Uiso   1.00
O239   O     0.90839   0.16667   0.21540   0.00000  Uiso   1.00
O240   O     0.98795   0.14297   0.10748   0.00000  Uiso   1.00
C241   C     0.16968   0.42093   0.16726   0.00000  Uiso   1.00
C242   C     0.18754   0.35445   0.21032   0.00000  Uiso   1.00
C243   C     0.16994   0.62412   0.16639   0.00000  Uiso   1.00
C244   C     0.17458   0.37649   0.16805   0.00000  Uiso   1.00
C245   C     0.13168   0.47568   0.02015   0.00000  Uiso   1.00
C246   C     0.20338   0.52280   0.31291   0.00000  Uiso   1.00
C247   C     0.13078   0.47762   0.30350   0.00000  Uiso   1.00
C248   C     0.20275   0.52243   0.02977   0.00000  Uiso   1.00
C249   C     0.30973   0.43417   0.11458   0.00000  Uiso   1.00
C250   C     0.27183   0.41840   0.07274   0.00000  Uiso   1.00
C251   C     0.00740   0.57171   0.21054   0.00000  Uiso   1.00
C252   C     0.16701   0.57932   0.16654   0.00000  Uiso   1.00
C253   C     0.04789   0.59670   0.24273   0.00000  Uiso   1.00
C254   C     0.17416   0.62932   0.04974   0.00000  Uiso   1.00
C255   C     0.14705   0.61366   0.00259   0.00000  Uiso   1.00
C256   C     0.25329   0.38673   0.25897   0.00000  Uiso   1.00
C257   C     0.28742   0.35236   0.28012   0.00000  Uiso   1.00
C258   C     0.09130   0.41100   0.01859   0.00000  Uiso   1.00
C259   C     0.06167   0.38126   0.04663   0.00000  Uiso   1.00
C260   C     0.27850   0.56696   0.32048   0.00000  Uiso   1.00
C261   C     0.32077   0.53781   0.00667   0.00000  Uiso   1.00
C262   C     0.06800   0.49888   0.15466   0.00000  Uiso   1.00
C263   C     0.26525   0.50148   0.17859   0.00000  Uiso   1.00
C264   C     0.01284   0.49349   0.14916   0.00000  Uiso   1.00
C265   C     0.32044   0.50668   0.18377   0.00000  Uiso   1.00
C266   C     0.16474   0.35552   0.12531   0.00000  Uiso   1.00
C267   C     0.18468   0.64504   0.20902   0.00000  Uiso   1.00
C268   C     0.16054   0.64626   0.12393   0.00000  Uiso   1.00
Cu269  Cu    0.16667   0.50001   0.21355   0.00000  Uiso   1.00
Cu270  Cu    0.16667   0.49999   0.11978   0.00000  Uiso   1.00
H271   H     0.15767   0.37228   0.09268   0.00000  Uiso   1.00
H272   H     0.30205   0.58188   0.21558   0.00000  Uiso   1.00
H273   H     0.01348   0.57867   0.17353   0.00000  Uiso   1.00
H274   H     0.04480   0.59019   0.28017   0.00000  Uiso   1.00
H275   H     0.08670   0.58870   0.23607   0.00000  Uiso   1.00
H276   H     0.04285   0.63006   0.23593   0.00000  Uiso   1.00
H277   H     0.20728   0.60986   0.06188   0.00000  Uiso   1.00
H278   H     0.18875   0.66126   0.04426   0.00000  Uiso   1.00
H279   H     0.11866   0.63620   0.32043   0.00000  Uiso   1.00
H280   H     0.17552   0.60967   0.31176   0.00000  Uiso   1.00
H281   H     0.12698   0.58360   0.00699   0.00000  Uiso   1.00
H282   H     0.19453   0.62825   0.24142   0.00000  Uiso   1.00
H283   H     0.25875   0.41313   0.28380   0.00000  Uiso   1.00
H284   H     0.26613   0.39807   0.22565   0.00000  Uiso   1.00
H285   H     0.28538   0.65957   0.25514   0.00000  Uiso   1.00
H286   H     0.32785   0.36399   0.28712   0.00000  Uiso   1.00
H287   H     0.27520   0.34145   0.31367   0.00000  Uiso   1.00
H288   H     0.12956   0.39818   0.01637   0.00000  Uiso   1.00
H289   H     0.06881   0.41215   0.31614   0.00000  Uiso   1.00
H290   H     0.02015   0.38613   0.03809   0.00000  Uiso   1.00
H291   H     0.06844   0.34908   0.03707   0.00000  Uiso   1.00
H292   H     0.07344   0.38558   0.08496   0.00000  Uiso   1.00
H293   H     0.10160   0.46121   0.27977   0.00000  Uiso   1.00
H294   H     0.26492   0.58538   0.01491   0.00000  Uiso   1.00
H295   H     0.29561   0.59043   0.29883   0.00000  Uiso   1.00
H296   H     0.01856   0.55520   0.02940   0.00000  Uiso   1.00
H297   H     0.30556   0.51291   0.02771   0.00000  Uiso   1.00
H298   H     0.00375   0.52349   0.31076   0.00000  Uiso   1.00
H299   H     0.23070   0.53950   0.05392   0.00000  Uiso   1.00
H300   H     0.29192   0.42842   0.14704   0.00000  Uiso   1.00
H301   H     0.01193   0.41659   0.11762   0.00000  Uiso   1.00
H302   H     0.28572   0.42688   0.03915   0.00000  Uiso   1.00
H303   H     0.26666   0.38443   0.07486   0.00000  Uiso   1.00
H304   H     0.23418   0.43247   0.07264   0.00000  Uiso   1.00
N305   N     0.16668   0.50001   0.28403   0.00000  Uiso   1.00
N306   N     0.16665   0.49999   0.04931   0.00000  Uiso   1.00
O307   O     0.16666   0.43989   0.20625   0.00000  Uiso   1.00
O308   O     0.01189   0.52940   0.22170   0.00000  Uiso   1.00
O309   O     0.13913   0.62701   0.08250   0.00000  Uiso   1.00
O310   O     0.20083   0.37394   0.25337   0.00000  Uiso   1.00
O311   O     0.09657   0.45053   0.04001   0.00000  Uiso   1.00
O312   O     0.23840   0.54616   0.29061   0.00000  Uiso   1.00
O313   O     0.16667   0.56011   0.12709   0.00000  Uiso   1.00
O314   O     0.16666   0.43988   0.12706   0.00000  Uiso   1.00
O315   O     0.16667   0.56012   0.20628   0.00000  Uiso   1.00
O316   O     0.09161   0.50000   0.19712   0.00000  Uiso   1.00
O317   O     0.24172   0.50000   0.13621   0.00000  Uiso   1.00
O318   O     0.09161   0.49999   0.11793   0.00000  Uiso   1.00
O319   O     0.24172   0.50001   0.21540   0.00000  Uiso   1.00
O320   O     0.32129   0.47630   0.10748   0.00000  Uiso   1.00
C321   C     0.50301   0.42093   0.16726   0.00000  Uiso   1.00
C322   C     0.52087   0.35445   0.21032   0.00000  Uiso   1.00
C323   C     0.50328   0.62412   0.16639   0.00000  Uiso   1.00
C324   C     0.50791   0.37649   0.16805   0.00000  Uiso   1.00
C325   C     0.46501   0.47568   0.02015   0.00000  Uiso   1.00
C326   C     0.53671   0.52280   0.31291   0.00000  Uiso   1.00
C327   C     0.46411   0.47762   0.30350   0.00000  Uiso   1.00
C328   C     0.53609   0.52243   0.02977   0.00000  Uiso   1.00
C329   C     0.64306   0.43417   0.11458   0.00000  Uiso   1.00
C330   C     0.60517   0.41840   0.07274   0.00000  Uiso   1.00
C331   C     0.34074   0.57171   0.21054   0.00000  Uiso   1.00
C332   C     0.50034   0.57932   0.16654   0.00000  Uiso   1.00
C333   C     0.38122   0.59670   0.24273   0.00000  Uiso   1.00
C334   C     0.50749   0.62932   0.04974   0.00000  Uiso   1.00
C335   C     0.48038   0.61366   0.00259   0.00000  Uiso   1.00
C336   C     0.58663   0.38673   0.25897   0.00000  Uiso   1.00
C337   C     0.62075   0.35236   0.28012   0.00000  Uiso   1.00
C338   C     0.42464   0.41100   0.01859   0.00000  Uiso   1.00
C339   C     0.39501   0.38126   0.04663   0.00000  Uiso   1.00
C340   C     0.61184   0.56696   0.32048   0.00000  Uiso   1.00
C341   C     0.65410   0.53781   0.00667   0.00000  Uiso   1.00
C342   C     0.40133   0.49888   0.15466   0.00000  Uiso   1.00
C343   C     0.59859   0.50148   0.17859   0.00000  Uiso   1.00
C344   C     0.34618   0.49349   0.14916   0.00000  Uiso   1.00
C345   C     0.65377   0.50668   0.18377   0.00000  Uiso   1.00
C346   C     0.49807   0.35552   0.12531   0.00000  Uiso   1.00
C347   C     0.51801   0.64504   0.20902   0.00000  Uiso   1.00
C348   C     0.49387   0.64626   0.12393   0.00000  Uiso   1.00
Cu349  Cu    0.50000   0.50001   0.21355   0.00000  Uiso   1.00
Cu350  Cu    0.50000   0.49999   0.11978   0.00000  Uiso   1.00
H351   H     0.49100   0.37228   0.09268   0.00000  Uiso   1.00
H352   H     0.63538   0.58188   0.21558   0.00000  Uiso   1.00
H353   H     0.34682   0.57867   0.17353   0.00000  Uiso   1.00
H354   H     0.37813   0.59019   0.28017   0.00000  Uiso   1.00
H355   H     0.42003   0.58870   0.23607   0.00000  Uiso   1.00
H356   H     0.37619   0.63006   0.23593   0.00000  Uiso   1.00
H357   H     0.54061   0.60986   0.06188   0.00000  Uiso   1.00
H358   H     0.52208   0.66126   0.04426   0.00000  Uiso   1.00
H359   H     0.45199   0.63620   0.32043   0.00000  Uiso   1.00
H360   H     0.50886   0.60967   0.31176   0.00000  Uiso   1.00
H361   H     0.46031   0.58360   0.00699   0.00000  Uiso   1.00
H362   H     0.52787   0.62825   0.24142   0.00000  Uiso   1.00
H363   H     0.59208   0.41313   0.28380   0.00000  Uiso   1.00
H364   H     0.59947   0.39807   0.22565   0.00000  Uiso   1.00
H365   H     0.61872   0.65957   0.25514   0.00000  Uiso   1.00
H366   H     0.66118   0.36399   0.28712   0.00000  Uiso   1.00
H367   H     0.60853   0.34145   0.31367   0.00000  Uiso   1.00
H368   H     0.46289   0.39818   0.01637   0.00000  Uiso   1.00
H369   H     0.40214   0.41215   0.31614   0.00000  Uiso   1.00
H370   H     0.35348   0.38613   0.03809   0.00000  Uiso   1.00
H371   H     0.40177   0.34908   0.03707   0.00000  Uiso   1.00
H372   H     0.40677   0.38558   0.08496   0.00000  Uiso   1.00
H373   H     0.43494   0.46121   0.27977   0.00000  Uiso   1.00
H374   H     0.59826   0.58538   0.01491   0.00000  Uiso   1.00
H375   H     0.62894   0.59043   0.29883   0.00000  Uiso   1.00
H376   H     0.35189   0.55520   0.02940   0.00000  Uiso   1.00
H377   H     0.63890   0.51291   0.02771   0.00000  Uiso   1.00
H378   H     0.33709   0.52349   0.31076   0.00000  Uiso   1.00
H379   H     0.56404   0.53950   0.05392   0.00000  Uiso   1.00
H380   H     0.62525   0.42842   0.14704   0.00000  Uiso   1.00
H381   H     0.34526   0.41659   0.11762   0.00000  Uiso   1.00
H382   H     0.61905   0.42688   0.03915   0.00000  Uiso   1.00
H383   H     0.59999   0.38443   0.07486   0.00000  Uiso   1.00
H384   H     0.56751   0.43247   0.07264   0.00000  Uiso   1.00
N385   N     0.50001   0.50001   0.28403   0.00000  Uiso   1.00
N386   N     0.49999   0.49999   0.04931   0.00000  Uiso   1.00
O387   O     0.50000   0.43989   0.20625   0.00000  Uiso   1.00
O388   O     0.34522   0.52940   0.22170   0.00000  Uiso   1.00
O389   O     0.47247   0.62701   0.08250   0.00000  Uiso   1.00
O390   O     0.53417   0.37394   0.25337   0.00000  Uiso   1.00
O391   O     0.42991   0.45053   0.04001   0.00000  Uiso   1.00
O392   O     0.57173   0.54616   0.29061   0.00000  Uiso   1.00
O393   O     0.50000   0.56011   0.12709   0.00000  Uiso   1.00
O394   O     0.50000   0.43988   0.12706   0.00000  Uiso   1.00
O395   O     0.50000   0.56012   0.20628   0.00000  Uiso   1.00
O396   O     0.42495   0.50000   0.19712   0.00000  Uiso   1.00
O397   O     0.57505   0.50000   0.13621   0.00000  Uiso   1.00
O398   O     0.42494   0.49999   0.11793   0.00000  Uiso   1.00
O399   O     0.57506   0.50001   0.21540   0.00000  Uiso   1.00
O400   O     0.65462   0.47630   0.10748   0.00000  Uiso   1.00
C401   C     0.83635   0.42093   0.16726   0.00000  Uiso   1.00
C402   C     0.85421   0.35445   0.21032   0.00000  Uiso   1.00
C403   C     0.83661   0.62412   0.16639   0.00000  Uiso   1.00
C404   C     0.84124   0.37649   0.16805   0.00000  Uiso   1.00
C405   C     0.79834   0.47568   0.02015   0.00000  Uiso   1.00
C406   C     0.87004   0.52280   0.31291   0.00000  Uiso   1.00
C407   C     0.79744   0.47762   0.30350   0.00000  Uiso   1.00
C408   C     0.86942   0.52243   0.02977   0.00000  Uiso   1.00
C409   C     0.97639   0.43417   0.11458   0.00000  Uiso   1.00
C410   C     0.93850   0.41840   0.07274   0.00000  Uiso   1.00
C411   C     0.67407   0.57171   0.21054   0.00000  Uiso   1.00
C412   C     0.83368   0.57932   0.16654   0.00000  Uiso   1.00
C413   C     0.71455   0.59670   0.24273   0.00000  Uiso   1.00
C414   C     0.84082   0.62932   0.04974   0.00000  Uiso   1.00
C415   C     0.81372   0.61366   0.00259   0.00000  Uiso   1.00
C416   C     0.91996   0.38673   0.25897   0.00000  Uiso   1.00
C417   C     0.95408   0.35236   0.28012   0.00000  Uiso   1.00
C418   C     0.75797   0.41100   0.01859   0.00000  Uiso   1.00
C419   C     0.72834   0.38126   0.04663   0.00000  Uiso   1.00
C420   C     0.94517   0.56696   0.32048   0.00000  Uiso   1.00
C421   C     0.98744   0.53781   0.00667   0.00000  Uiso   1.00
C422   C     0.73467   0.49888   0.15466   0.00000  Uiso   1.00
C423   C     0.93192   0.50148   0.17859   0.00000  Uiso   1.00
C424   C     0.67951   0.49349   0.14916   0.00000  Uiso   1.00
C425   C     0.98710   0.50668   0.18377   0.00000  Uiso   1.00
C426   C     0.83140   0.35552   0.12531   0.00000  Uiso   1.00
C427   C     0.85135   0.64504   0.20902   0.00000  Uiso   1.00
C428   C     0.82721   0.64626   0.12393   0.00000  Uiso   1.00
Cu429  Cu    0.83333   0.50001   0.21355   0.00000  Uiso   1.00
Cu430  Cu    0.83333   0.49999   0.11978   0.00000  Uiso   1.00
H431   H     0.82434   0.37228   0.09268   0.00000  Uiso   1.00
H432   H     0.96871   0.58188   0.21558   0.00000  Uiso   1.00
H433   H     0.68015   0.57867   0.17353   0.00000  Uiso   1.00
H434   H     0.71147   0.59019   0.28017   0.00000  Uiso   1.00
H435   H     0.75336   0.58870   0.23607   0.00000  Uiso   1.00
H436   H     0.70952   0.63006   0.23593   0.00000  Uiso   1.00
H437   H     0.87395   0.60986   0.06188   0.00000  Uiso   1.00
H438   H     0.85542   0.66126   0.04426   0.00000  Uiso   1.00
H439   H     0.78532   0.63620   0.32043   0.00000  Uiso   1.00
H440   H     0.84219   0.60967   0.31176   0.00000  Uiso   1.00
H441   H     0.79365   0.58360   0.00699   0.00000  Uiso   1.00
H442   H     0.86120   0.62825   0.24142   0.00000  Uiso   1.00
H443   H     0.92542   0.41313   0.28380   0.00000  Uiso   1.00
H444   H     0.93280   0.39807   0.22565   0.00000  Uiso   1.00
H445   H     0.95205   0.65957   0.25514   0.00000  Uiso   1.00
H446   H     0.99452   0.36399   0.28712   0.00000  Uiso   1.00
H447   H     0.94187   0.34145   0.31367   0.00000  Uiso   1.00
H448   H     0.79622   0.39818   0.01637   0.00000  Uiso   1.00
H449   H     0.73547   0.41215   0.31614   0.00000  Uiso   1.00
H450   H     0.68681   0.38613   0.03809   0.00000  Uiso   1.00
H451   H     0.73511   0.34908   0.03707   0.00000  Uiso   1.00
H452   H     0.74011   0.38558   0.08496   0.00000  Uiso   1.00
H453   H     0.76827   0.46121   0.27977   0.00000  Uiso   1.00
H454   H     0.93159   0.58538   0.01491   0.00000  Uiso   1.00
H455   H     0.96227   0.59043   0.29883   0.00000  Uiso   1.00
H456   H     0.68523   0.55520   0.02940   0.00000  Uiso   1.00
H457   H     0.97223   0.51291   0.02771   0.00000  Uiso   1.00
H458   H     0.67042   0.52349   0.31076   0.00000  Uiso   1.00
H459   H     0.89737   0.53950   0.05392   0.00000  Uiso   1.00
H460   H     0.95859   0.42842   0.14704   0.00000  Uiso   1.00
H461   H     0.67859   0.41659   0.11762   0.00000  Uiso   1.00
H462   H     0.95239   0.42688   0.03915   0.00000  Uiso   1.00
H463   H     0.93332   0.38443   0.07486   0.00000  Uiso   1.00
H464   H     0.90085   0.43247   0.07264   0.00000  Uiso   1.00
N465   N     0.83335   0.50001   0.28403   0.00000  Uiso   1.00
N466   N     0.83332   0.49999   0.04931   0.00000  Uiso   1.00
O467   O     0.83333   0.43989   0.20625   0.00000  Uiso   1.00
O468   O     0.67855   0.52940   0.22170   0.00000  Uiso   1.00
O469   O     0.80580   0.62701   0.08250   0.00000  Uiso   1.00
O470   O     0.86750   0.37394   0.25337   0.00000  Uiso   1.00
O471   O     0.76324   0.45053   0.04001   0.00000  Uiso   1.00
O472   O     0.90507   0.54616   0.29061   0.00000  Uiso   1.00
O473   O     0.83334   0.56011   0.12709   0.00000  Uiso   1.00
O474   O     0.83333   0.43988   0.12706   0.00000  Uiso   1.00
O475   O     0.83334   0.56012   0.20628   0.00000  Uiso   1.00
O476   O     0.75828   0.50000   0.19712   0.00000  Uiso   1.00
O477   O     0.90839   0.50000   0.13621   0.00000  Uiso   1.00
O478   O     0.75828   0.49999   0.11793   0.00000  Uiso   1.00
O479   O     0.90839   0.50001   0.21540   0.00000  Uiso   1.00
O480   O     0.98795   0.47630   0.10748   0.00000  Uiso   1.00
C481   C     0.16968   0.75426   0.16726   0.00000  Uiso   1.00
C482   C     0.18754   0.68778   0.21032   0.00000  Uiso   1.00
C483   C     0.16994   0.95745   0.16639   0.00000  Uiso   1.00
C484   C     0.17458   0.70983   0.16805   0.00000  Uiso   1.00
C485   C     0.13168   0.80902   0.02015   0.00000  Uiso   1.00
C486   C     0.20338   0.85614   0.31291   0.00000  Uiso   1.00
C487   C     0.13078   0.81095   0.30350   0.00000  Uiso   1.00
C488   C     0.20275   0.85576   0.02977   0.00000  Uiso   1.00
C489   C     0.30973   0.76751   0.11458   0.00000  Uiso   1.00
C490   C     0.27183   0.75173   0.07274   0.00000  Uiso   1.00
C491   C     0.00740   0.90505   0.21054   0.00000  Uiso   1.00
C492   C     0.16701   0.91266   0.16654   0.00000  Uiso   1.00
C493   C     0.04789   0.93003   0.24273   0.00000  Uiso   1.00
C494   C     0.17416   0.96266   0.04974   0.00000  Uiso   1.00
C495   C     0.14705   0.94700   0.00259   0.00000  Uiso   1.00
C496   C     0.25329   0.72006   0.25897   0.00000  Uiso   1.00
C497   C     0.28742   0.68570   0.28012   0.00000  Uiso   1.00
C498   C     0.09130   0.74433   0.01859   0.00000  Uiso   1.00
C499   C     0.06167   0.71459   0.04663   0.00000  Uiso   1.00
C500   C     0.27850   0.90029   0.32048   0.00000  Uiso   1.00
C501   C     0.32077   0.87115   0.00667   0.00000  Uiso   1.00
C502   C     0.06800   0.83221   0.15466   0.00000  Uiso   1.00
C503   C     0.26525   0.83482   0.17859   0.00000  Uiso   1.00
C504   C     0.01284   0.82682   0.14916   0.00000  Uiso   1.00
C505   C     0.32044   0.84001   0.18377   0.00000  Uiso   1.00
C506   C     0.16474   0.68885   0.12531   0.00000  Uiso   1.00
C507   C     0.18468   0.97837   0.20902   0.00000  Uiso   1.00
C508   C     0.16054   0.97960   0.12393   0.00000  Uiso   1.00
Cu509  Cu    0.16667   0.83334   0.21355   0.00000  Uiso   1.00
Cu510  Cu    0.16667   0.83333   0.11978   0.00000  Uiso   1.00
H511   H     0.15767   0.70562   0.09268   0.00000  Uiso   1.00
H512   H     0.30205   0.91521   0.21558   0.00000  Uiso   1.00
H513   H     0.01348   0.91201   0.17353   0.00000  Uiso   1.00
H514   H     0.04480   0.92352   0.28017   0.00000  Uiso   1.00
H515   H     0.08670   0.92203   0.23607   0.00000  Uiso   1.00
H516   H     0.04285   0.96340   0.23593   0.00000  Uiso   1.00
H517   H     0.20728   0.94320   0.06188   0.00000  Uiso   1.00
H518   H     0.18875   0.99460   0.04426   0.00000  Uiso   1.00
H519   H     0.11866   0.96953   0.32043   0.00000  Uiso   1.00
H520   H     0.17552   0.94301   0.31176   0.00000  Uiso   1.00
H521   H     0.12698   0.91693   0.00699   0.00000  Uiso   1.00
H522   H     0.19453   0.96159   0.24142   0.00000  Uiso   1.00
H523   H     0.25875   0.74646   0.28380   0.00000  Uiso   1.00
H524   H     0.26613   0.73140   0.22565   0.00000  Uiso   1.00
H525   H     0.28538   0.99290   0.25514   0.00000  Uiso   1.00
H526   H     0.32785   0.69732   0.28712   0.00000  Uiso   1.00
H527   H     0.27520   0.67478   0.31367   0.00000  Uiso   1.00
H528   H     0.12956   0.73151   0.01637   0.00000  Uiso   1.00
H529   H     0.06881   0.74548   0.31614   0.00000  Uiso   1.00
H530   H     0.02015   0.71946   0.03809   0.00000  Uiso   1.00
H531   H     0.06844   0.68242   0.03707   0.00000  Uiso   1.00
H532   H     0.07344   0.71892   0.08496   0.00000  Uiso   1.00
H533   H     0.10160   0.79455   0.27977   0.00000  Uiso   1.00
H534   H     0.26492   0.91871   0.01491   0.00000  Uiso   1.00
H535   H     0.29561   0.92376   0.29883   0.00000  Uiso   1.00
H536   H     0.01856   0.88853   0.02940   0.00000  Uiso   1.00
H537   H     0.30556   0.84624   0.02771   0.00000  Uiso   1.00
H538   H     0.00375   0.85682   0.31076   0.00000  Uiso   1.00
H539   H     0.23070   0.87283   0.05392   0.00000  Uiso   1.00
H540   H     0.29192   0.76176   0.14704   0.00000  Uiso   1.00
H541   H     0.01193   0.74992   0.11762   0.00000  Uiso   1.00
H542   H     0.28572   0.76021   0.03915   0.00000  Uiso   1.00
H543   H     0.26666   0.71777   0.07486   0.00000  Uiso   1.00
H544   H     0.23418   0.76581   0.07264   0.00000  Uiso   1.00
N545   N     0.16668   0.83334   0.28403   0.00000  Uiso   1.00
N546   N     0.16665   0.83332   0.04931   0.00000  Uiso   1.00
O547   O     0.16666   0.77322   0.20625   0.00000  Uiso   1.00
O548   O     0.01189   0.86273   0.22170   0.00000  Uiso   1.00
O549   O     0.13913   0.96035   0.08250   0.00000  Uiso   1.00
O550   O     0.20083   0.70727   0.25337   0.00000  Uiso   1.00
O551   O     0.09657   0.78386   0.04001   0.00000  Uiso   1.00
O552   O     0.23840   0.87949   0.29061   0.00000  Uiso   1.00
O553   O     0.16667   0.89345   0.12709   0.00000  Uiso   1.00
O554   O     0.16666   0.77321   0.12706   0.00000  Uiso   1.00
O555   O     0.16667   0.89346   0.20628   0.00000  Uiso   1.00
O556   O     0.09161   0.83334   0.19712   0.00000  Uiso   1.00
O557   O     0.24172   0.83333   0.13621   0.00000  Uiso   1.00
O558   O     0.09161   0.83333   0.11793   0.00000  Uiso   1.00
O559   O     0.24172   0.83334   0.21540   0.00000  Uiso   1.00
O560   O     0.32129   0.80963   0.10748   0.00000  Uiso   1.00
C561   C     0.50301   0.75426   0.16726   0.00000  Uiso   1.00
C562   C     0.52087   0.68778   0.21032   0.00000  Uiso   1.00
C563   C     0.50328   0.95745   0.16639   0.00000  Uiso   1.00
C564   C     0.50791   0.70983   0.16805   0.00000  Uiso   1.00
C565   C     0.46501   0.80902   0.02015   0.00000  Uiso   1.00
C566   C     0.53671   0.85614   0.31291   0.00000  Uiso   1.00
C567   C     0.46411   0.81095   0.30350   0.00000  Uiso   1.00
C568   C     0.53609   0.85576   0.02977   0.00000  Uiso   1.00
C569   C     0.64306   0.76751   0.11458   0.00000  Uiso   1.00
C570   C     0.60517   0.75173   0.07274   0.00000  Uiso   1.00
C571   C     0.34074   0.90505   0.21054   0.00000  Uiso   1.00
C572   C     0.50034   0.91266   0.16654   0.00000  Uiso   1.00
C573   C     0.38122   0.93003   0.24273   0.00000  Uiso   1.00
C574   C     0.50749   0.96266   0.04974   0.00000  Uiso   1.00
C575   C     0.48038   0.94700   0.00259   0.00000  Uiso   1.00
C576   C     0.58663   0.72006   0.25897   0.00000  Uiso   1.00
C577   C     0.62075   0.68570   0.28012   0.00000  Uiso   1.00
C578   C     0.42464   0.74433   0.01859   0.00000  Uiso   1.00
C579   C     0.39501   0.71459   0.04663   0.00000  Uiso   1.00
C580   C     0.61184   0.90029   0.32048   0.00000  Uiso   1.00
C581   C     0.65410   0.87115   0.00667   0.00000  Uiso   1.00
C582   C     0.40133   0.83221   0.15466   0.00000  Uiso   1.00
C583   C     0.59859   0.83482   0.17859   0.00000  Uiso   1.00
C584   C     0.34618   0.82682   0.14916   0.00000  Uiso   1.00
C585   C     0.65377   0.84001   0.18377   0.00000  Uiso   1.00
C586   C     0.49807   0.68885   0.12531   0.00000  Uiso   1.00
C587   C     0.51801   0.97837   0.20902   0.00000  Uiso   1.00
C588   C     0.49387   0.97960   0.12393   0.00000  Uiso   1.00
Cu589  Cu    0.50000   0.83334   0.21355   0.00000  Uiso   1.00
Cu590  Cu    0.50000   0.83333   0.11978   0.00000  Uiso   1.00
H591   H     0.49100   0.70562   0.09268   0.00000  Uiso   1.00
H592   H     0.63538   0.91521   0.21558   0.00000  Uiso   1.00
H593   H     0.34682   0.91201   0.17353   0.00000  Uiso   1.00
H594   H     0.37813   0.92352   0.28017   0.00000  Uiso   1.00
H595   H     0.42003   0.92203   0.23607   0.00000  Uiso   1.00
H596   H     0.37619   0.96340   0.23593   0.00000  Uiso   1.00
H597   H     0.54061   0.94320   0.06188   0.00000  Uiso   1.00
H598   H     0.52208   0.99460   0.04426   0.00000  Uiso   1.00
H599   H     0.45199   0.96953   0.32043   0.00000  Uiso   1.00
H600   H     0.50886   0.94301   0.31176   0.00000  Uiso   1.00
H601   H     0.46031   0.91693   0.00699   0.00000  Uiso   1.00
H602   H     0.52787   0.96159   0.24142   0.00000  Uiso   1.00
H603   H     0.59208   0.74646   0.28380   0.00000  Uiso   1.00
H604   H     0.59947   0.73140   0.22565   0.00000  Uiso   1.00
H605   H     0.61872   0.99290   0.25514   0.00000  Uiso   1.00
H606   H     0.66118   0.69732   0.28712   0.00000  Uiso   1.00
H607   H     0.60853   0.67478   0.31367   0.00000  Uiso   1.00
H608   H     0.46289   0.73151   0.01637   0.00000  Uiso   1.00
H609   H     0.40214   0.74548   0.31614   0.00000  Uiso   1.00
H610   H     0.35348   0.71946   0.03809   0.00000  Uiso   1.00
H611   H     0.40177   0.68242   0.03707   0.00000  Uiso   1.00
H612   H     0.40677   0.71892   0.08496   0.00000  Uiso   1.00
H613   H     0.43494   0.79455   0.27977   0.00000  Uiso   1.00
H614   H     0.59826   0.91871   0.01491   0.00000  Uiso   1.00
H615   H     0.62894   0.92376   0.29883   0.00000  Uiso   1.00
H616   H     0.35189   0.88853   0.02940   0.00000  Uiso   1.00
H617   H     0.63890   0.84624   0.02771   0.00000  Uiso   1.00
H618   H     0.33709   0.85682   0.31076   0.00000  Uiso   1.00
H619   H     0.56404   0.87283   0.05392   0.00000  Uiso   1.00
H620   H     0.62525   0.76176   0.14704   0.00000  Uiso   1.00
H621   H     0.34526   0.74992   0.11762   0.00000  Uiso   1.00
H622   H     0.61905   0.76021   0.03915   0.00000  Uiso   1.00
H623   H     0.59999   0.71777   0.07486   0.00000  Uiso   1.00
H624   H     0.56751   0.76581   0.07264   0.00000  Uiso   1.00
N625   N     0.50001   0.83334   0.28403   0.00000  Uiso   1.00
N626   N     0.49999   0.83332   0.04931   0.00000  Uiso   1.00
O627   O     0.50000   0.77322   0.20625   0.00000  Uiso   1.00
O628   O     0.34522   0.86273   0.22170   0.00000  Uiso   1.00
O629   O     0.47247   0.96035   0.08250   0.00000  Uiso   1.00
O630   O     0.53417   0.70727   0.25337   0.00000  Uiso   1.00
O631   O     0.42991   0.78386   0.04001   0.00000  Uiso   1.00
O632   O     0.57173   0.87949   0.29061   0.00000  Uiso   1.00
O633   O     0.50000   0.89345   0.12709   0.00000  Uiso   1.00
O634   O     0.50000   0.77321   0.12706   0.00000  Uiso   1.00
O635   O     0.50000   0.89346   0.20628   0.00000  Uiso   1.00
O636   O     0.42495   0.83334   0.19712   0.00000  Uiso   1.00
O637   O     0.57505   0.83333   0.13621   0.00000  Uiso   1.00
O638   O     0.42494   0.83333   0.11793   0.00000  Uiso   1.00
O639   O     0.57506   0.83334   0.21540   0.00000  Uiso   1.00
O640   O     0.65462   0.80963   0.10748   0.00000  Uiso   1.00
C641   C     0.83635   0.75426   0.16726   0.00000  Uiso   1.00
C642   C     0.85421   0.68778   0.21032   0.00000  Uiso   1.00
C643   C     0.83661   0.95745   0.16639   0.00000  Uiso   1.00
C644   C     0.84124   0.70983   0.16805   0.00000  Uiso   1.00
C645   C     0.79834   0.80902   0.02015   0.00000  Uiso   1.00
C646   C     0.87004   0.85614   0.31291   0.00000  Uiso   1.00
C647   C     0.79744   0.81095   0.30350   0.00000  Uiso   1.00
C648   C     0.86942   0.85576   0.02977   0.00000  Uiso   1.00
C649   C     0.97639   0.76751   0.11458   0.00000  Uiso   1.00
C650   C     0.93850   0.75173   0.07274   0.00000  Uiso   1.00
C651   C     0.67407   0.90505   0.21054   0.00000  Uiso   1.00
C652   C     0.83368   0.91266   0.16654   0.00000  Uiso   1.00
C653   C     0.71455   0.93003   0.24273   0.00000  Uiso   1.00
C654   C     0.84082   0.96266   0.04974   0.00000  Uiso   1.00
C655   C     0.81372   0.94700   0.00259   0.00000  Uiso   1.00
C656   C     0.91996   0.72006   0.25897   0.00000  Uiso   1.00
C657   C     0.95408   0.68570   0.28012   0.00000  Uiso   1.00
C658   C     0.75797   0.74433   0.01859   0.00000  Uiso   1.00
C659   C     0.72834   0.71459   0.04663   0.00000  Uiso   1.00
C660   C     0.94517   0.90029   0.32048   0.00000  Uiso   1.00
C661   C     0.98744   0.87115   0.00667   0.00000  Uiso   1.00
C662   C     0.73467   0.83221   0.15466   0.00000  Uiso   1.00
C663   C     0.93192   0.83482   0.17859   0.00000  Uiso   1.00
C664   C     0.67951   0.82682   0.14916   0.00000  Uiso   1.00
C665   C     0.98710   0.84001   0.18377   0.00000  Uiso   1.00
C666   C     0.83140   0.68885   0.12531   0.00000  Uiso   1.00
C667   C     0.85135   0.97837   0.20902   0.00000  Uiso   1.00
C668   C     0.82721   0.97960   0.12393   0.00000  Uiso   1.00
Cu669  Cu    0.83333   0.83334   0.21355   0.00000  Uiso   1.00
Cu670  Cu    0.83333   0.83333   0.11978   0.00000  Uiso   1.00
H671   H     0.82434   0.70562   0.09268   0.00000  Uiso   1.00
H672   H     0.96871   0.91521   0.21558   0.00000  Uiso   1.00
H673   H     0.68015   0.91201   0.17353   0.00000  Uiso   1.00
H674   H     0.71147   0.92352   0.28017   0.00000  Uiso   1.00
H675   H     0.75336   0.92203   0.23607   0.00000  Uiso   1.00
H676   H     0.70952   0.96340   0.23593   0.00000  Uiso   1.00
H677   H     0.87395   0.94320   0.06188   0.00000  Uiso   1.00
H678   H     0.85542   0.99460   0.04426   0.00000  Uiso   1.00
H679   H     0.78532   0.96953   0.32043   0.00000  Uiso   1.00
H680   H     0.84219   0.94301   0.31176   0.00000  Uiso   1.00
H681   H     0.79365   0.91693   0.00699   0.00000  Uiso   1.00
H682   H     0.86120   0.96159   0.24142   0.00000  Uiso   1.00
H683   H     0.92542   0.74646   0.28380   0.00000  Uiso   1.00
H684   H     0.93280   0.73140   0.22565   0.00000  Uiso   1.00
H685   H     0.95205   0.99290   0.25514   0.00000  Uiso   1.00
H686   H     0.99452   0.69732   0.28712   0.00000  Uiso   1.00
H687   H     0.94187   0.67478   0.31367   0.00000  Uiso   1.00
H688   H     0.79622   0.73151   0.01637   0.00000  Uiso   1.00
H689   H     0.73547   0.74548   0.31614   0.00000  Uiso   1.00
H690   H     0.68681   0.71946   0.03809   0.00000  Uiso   1.00
H691   H     0.73511   0.68242   0.03707   0.00000  Uiso   1.00
H692   H     0.74011   0.71892   0.08496   0.00000  Uiso   1.00
H693   H     0.76827   0.79455   0.27977   0.00000  Uiso   1.00
H694   H     0.93159   0.91871   0.01491   0.00000  Uiso   1.00
H695   H     0.96227   0.92376   0.29883   0.00000  Uiso   1.00
H696   H     0.68523   0.88853   0.02940   0.00000  Uiso   1.00
H697   H     0.97223   0.84624   0.02771   0.00000  Uiso   1.00
H698   H     0.67042   0.85682   0.31076   0.00000  Uiso   1.00
H699   H     0.89737   0.87283   0.05392   0.00000  Uiso   1.00
H700   H     0.95859   0.76176   0.14704   0.00000  Uiso   1.00
H701   H     0.67859   0.74992   0.11762   0.00000  Uiso   1.00
H702   H     0.95239   0.76021   0.03915   0.00000  Uiso   1.00
H703   H     0.93332   0.71777   0.07486   0.00000  Uiso   1.00
H704   H     0.90085   0.76581   0.07264   0.00000  Uiso   1.00
N705   N     0.83335   0.83334   0.28403   0.00000  Uiso   1.00
N706   N     0.83332   0.83332   0.04931   0.00000  Uiso   1.00
O707   O     0.83333   0.77322   0.20625   0.00000  Uiso   1.00
O708   O     0.67855   0.86273   0.22170   0.00000  Uiso   1.00
O709   O     0.80580   0.96035   0.08250   0.00000  Uiso   1.00
O710   O     0.86750   0.70727   0.25337   0.00000  Uiso   1.00
O711   O     0.76324   0.78386   0.04001   0.00000  Uiso   1.00
O712   O     0.90507   0.87949   0.29061   0.00000  Uiso   1.00
O713   O     0.83334   0.89345   0.12709   0.00000  Uiso   1.00
O714   O     0.83333   0.77321   0.12706   0.00000  Uiso   1.00
O715   O     0.83334   0.89346   0.20628   0.00000  Uiso   1.00
O716   O     0.75828   0.83334   0.19712   0.00000  Uiso   1.00
O717   O     0.90839   0.83333   0.13621   0.00000  Uiso   1.00
O718   O     0.75828   0.83333   0.11793   0.00000  Uiso   1.00
O719   O     0.90839   0.83334   0.21540   0.00000  Uiso   1.00
O720   O     0.98795   0.80963   0.10748   0.00000  Uiso   1.00
C721   C     0.16968   0.08760   0.50060   0.00000  Uiso   1.00
C722   C     0.18754   0.02111   0.54365   0.00000  Uiso   1.00
C723   C     0.16994   0.29079   0.49972   0.00000  Uiso   1.00
C724   C     0.17458   0.04316   0.50139   0.00000  Uiso   1.00
C725   C     0.13168   0.14235   0.35348   0.00000  Uiso   1.00
C726   C     0.20338   0.18947   0.64624   0.00000  Uiso   1.00
C727   C     0.13078   0.14428   0.63683   0.00000  Uiso   1.00
C728   C     0.20275   0.18909   0.36310   0.00000  Uiso   1.00
C729   C     0.30973   0.10084   0.44791   0.00000  Uiso   1.00
C730   C     0.27183   0.08507   0.40608   0.00000  Uiso   1.00
C731   C     0.00740   0.23838   0.54387   0.00000  Uiso   1.00
C732   C     0.16701   0.24599   0.49987   0.00000  Uiso   1.00
C733   C     0.04789   0.26337   0.57607   0.00000  Uiso   1.00
C734   C     0.17416   0.29599   0.38307   0.00000  Uiso   1.00
C735   C     0.14705   0.28033   0.33592   0.00000  Uiso   1.00
C736   C     0.25329   0.05340   0.59230   0.00000  Uiso   1.00
C737   C     0.28742   0.01903   0.61345   0.00000  Uiso   1.00
C738   C     0.09130   0.07767   0.35192   0.00000  Uiso   1.00
C739   C     0.06167   0.04792   0.37997   0.00000  Uiso   1.00
C740   C     0.27850   0.23362   0.65381   0.00000  Uiso   1.00
C741   C     0.32077   0.20448   0.34001   0.00000  Uiso   1.00
C742   C     0.06800   0.16555   0.48799   0.00000  Uiso   1.00
C743   C     0.26525   0.16815   0.51192   0.00000  Uiso   1.00
C744   C     0.01284   0.16015   0.48249   0.00000  Uiso   1.00
C745   C     0.32044   0.17334   0.51711   0.00000  Uiso   1.00
C746   C     0.16474   0.02218   0.45864   0.00000  Uiso   1.00
C747   C     0.18468   0.31171   0.54235   0.00000  Uiso   1.00
C748   C     0.16054   0.31293   0.45726   0.00000  Uiso   1.00
Cu749  Cu    0.16667   0.16667   0.54689   0.00000  Uiso   1.00
Cu750  Cu    0.16667   0.16666   0.45311   0.00000  Uiso   1.00
H751   H     0.15767   0.03895   0.42602   0.00000  Uiso   1.00
H752   H     0.30205   0.24854   0.54891   0.00000  Uiso   1.00
H753   H     0.01348   0.24534   0.50686   0.00000  Uiso   1.00
H754   H     0.04480   0.25686   0.61350   0.00000  Uiso   1.00
H755   H     0.08670   0.25536   0.56941   0.00000  Uiso   1.00
H756   H     0.04285   0.29673   0.56926   0.00000  Uiso   1.00
H757   H     0.20728   0.27653   0.39521   0.00000  Uiso   1.00
H758   H     0.18875   0.32793   0.37760   0.00000  Uiso   1.00
H759   H     0.11866   0.30286   0.65377   0.00000  Uiso   1.00
H760   H     0.17552   0.27634   0.64509   0.00000  Uiso   1.00
H761   H     0.12698   0.25026   0.34032   0.00000  Uiso   1.00
H762   H     0.19453   0.29492   0.57476   0.00000  Uiso   1.00
H763   H     0.25875   0.07980   0.61713   0.00000  Uiso   1.00
H764   H     0.26613   0.06474   0.55898   0.00000  Uiso   1.00
H765   H     0.28538   0.32623   0.58847   0.00000  Uiso   1.00
H766   H     0.32785   0.03065   0.62045   0.00000  Uiso   1.00
H767   H     0.27520   0.00811   0.64701   0.00000  Uiso   1.00
H768   H     0.12956   0.06485   0.34971   0.00000  Uiso   1.00
H769   H     0.06881   0.07881   0.64947   0.00000  Uiso   1.00
H770   H     0.02015   0.05280   0.37142   0.00000  Uiso   1.00
H771   H     0.06844   0.01575   0.37041   0.00000  Uiso   1.00
H772   H     0.07344   0.05225   0.41829   0.00000  Uiso   1.00
H773   H     0.10160   0.12788   0.61310   0.00000  Uiso   1.00
H774   H     0.26492   0.25204   0.34825   0.00000  Uiso   1.00
H775   H     0.29561   0.25710   0.63217   0.00000  Uiso   1.00
H776   H     0.01856   0.22186   0.36273   0.00000  Uiso   1.00
H777   H     0.30556   0.17958   0.36104   0.00000  Uiso   1.00
H778   H     0.00375   0.19016   0.64409   0.00000  Uiso   1.00
H779   H     0.23070   0.20617   0.38725   0.00000  Uiso   1.00
H780   H     0.29192   0.09509   0.48037   0.00000  Uiso   1.00
H781   H     0.01193   0.08325   0.45096   0.00000  Uiso   1.00
H782   H     0.28572   0.09355   0.37248   0.00000  Uiso   1.00
H783   H     0.26666   0.05110   0.40820   0.00000  Uiso   1.00
H784   H     0.23418   0.09914   0.40597   0.00000  Uiso   1.00
N785   N     0.16668   0.16668   0.61736   0.00000  Uiso   1.00
N786   N     0.16665   0.16666   0.38264   0.00000  Uiso   1.00
O787   O     0.16666   0.10655   0.53958   0.00000  Uiso   1.00
O788   O     0.01189   0.19606   0.55503   0.00000  Uiso   1.00
O789   O     0.13913   0.29368   0.41583   0.00000  Uiso   1.00
O790   O     0.20083   0.04060   0.58671   0.00000  Uiso   1.00
O791   O     0.09657   0.11719   0.37335   0.00000  Uiso   1.00
O792   O     0.23840   0.21282   0.62395   0.00000  Uiso   1.00
O793   O     0.16667   0.22678   0.46042   0.00000  Uiso   1.00
O794   O     0.16666   0.10654   0.46039   0.00000  Uiso   1.00
O795   O     0.16667   0.22679   0.53961   0.00000  Uiso   1.00
O796   O     0.09161   0.16667   0.53046   0.00000  Uiso   1.00
O797   O     0.24172   0.16666   0.46954   0.00000  Uiso   1.00
O798   O     0.09161   0.16666   0.45127   0.00000  Uiso   1.00
O799   O     0.24172   0.16667   0.54873   0.00000  Uiso   1.00
O800   O     0.32129   0.14297   0.44082   0.00000  Uiso   1.00
C801   C     0.50301   0.08760   0.50060   0.00000  Uiso   1.00
C802   C     0.52087   0.02111   0.54365   0.00000  Uiso   1.00
C803   C     0.50328   0.29079   0.49972   0.00000  Uiso   1.00
C804   C     0.50791   0.04316   0.50139   0.00000  Uiso   1.00
C805   C     0.46501   0.14235   0.35348   0.00000  Uiso   1.00
C806   C     0.53671   0.18947   0.64624   0.00000  Uiso   1.00
C807   C     0.46411   0.14428   0.63683   0.00000  Uiso   1.00
C808   C     0.53609   0.18909   0.36310   0.00000  Uiso   1.00
C809   C     0.64306   0.10084   0.44791   0.00000  Uiso   1.00
C810   C     0.60517   0.08507   0.40608   0.00000  Uiso   1.00
C811   C     0.34074   0.23838   0.54387   0.00000  Uiso   1.00
C812   C     0.50034   0.24599   0.49987   0.00000  Uiso   1.00
C813   C     0.38122   0.26337   0.57607   0.00000  Uiso   1.00
C814   C     0.50749   0.29599   0.38307   0.00000  Uiso   1.00
C815   C     0.48038   0.28033   0.33592   0.00000  Uiso   1.00
C816   C     0.58663   0.05340   0.59230   0.00000  Uiso   1.00
C817   C     0.62075   0.01903   0.61345   0.00000  Uiso   1.00
C818   C     0.42464   0.07767   0.35192   0.00000  Uiso   1.00
C819   C     0.39501   0.04792   0.37997   0.00000  Uiso   1.00
C820   C     0.61184   0.23362   0.65381   0.00000  Uiso   1.00
C821   C     0.65410   0.20448   0.34001   0.00000  Uiso   1.00
C822   C     0.40133   0.16555   0.48799   0.00000  Uiso   1.00
C823   C     0.59859   0.16815   0.51192   0.00000  Uiso   1.00
C824   C     0.34618   0.16015   0.48249   0.00000  Uiso   1.00
C825   C     0.65377   0.17334   0.51711   0.00000  Uiso   1.00
C826   C     0.49807   0.02218   0.45864   0.00000  Uiso   1.00
C827   C     0.51801   0.31171   0.54235   0.00000  Uiso   1.00
C828   C     0.49387   0.31293   0.45726   0.00000  Uiso   1.00
Cu829  Cu    0.50000   0.16667   0.54689   0.00000  Uiso   1.00
Cu830  Cu    0.50000   0.16666   0.45311   0.00000  Uiso   1.00
H831   H     0.49100   0.03895   0.42602   0.00000  Uiso   1.00
H832   H     0.63538   0.24854   0.54891   0.00000  Uiso   1.00
H833   H     0.34682   0.24534   0.50686   0.00000  Uiso   1.00
H834   H     0.37813   0.25686   0.61350   0.00000  Uiso   1.00
H835   H     0.42003   0.25536   0.56941   0.00000  Uiso   1.00
H836   H     0.37619   0.29673   0.56926   0.00000  Uiso   1.00
H837   H     0.54061   0.27653   0.39521   0.00000  Uiso   1.00
H838   H     0.52208   0.32793   0.37760   0.00000  Uiso   1.00
H839   H     0.45199   0.30286   0.65377   0.00000  Uiso   1.00
H840   H     0.50886   0.27634   0.64509   0.00000  Uiso   1.00
H841   H     0.46031   0.25026   0.34032   0.00000  Uiso   1.00
H842   H     0.52787   0.29492   0.57476   0.00000  Uiso   1.00
H843   H     0.59208   0.07980   0.61713   0.00000  Uiso   1.00
H844   H     0.59947   0.06474   0.55898   0.00000  Uiso   1.00
H845   H     0.61872   0.32623   0.58847   0.00000  Uiso   1.00
H846   H     0.66118   0.03065   0.62045   0.00000  Uiso   1.00
H847   H     0.60853   0.00811   0.64701   0.00000  Uiso   1.00
H848   H     0.46289   0.06485   0.34971   0.00000  Uiso   1.00
H849   H     0.40214   0.07881   0.64947   0.00000  Uiso   1.00
H850   H     0.35348   0.05280   0.37142   0.00000  Uiso   1.00
H851   H     0.40177   0.01575   0.37041   0.00000  Uiso   1.00
H852   H     0.40677   0.05225   0.41829   0.00000  Uiso   1.00
H853   H     0.43494   0.12788   0.61310   0.00000  Uiso   1.00
H854   H     0.59826   0.25204   0.34825   0.00000  Uiso   1.00
H855   H     0.62894   0.25710   0.63217   0.00000  Uiso   1.00
H856   H     0.35189   0.22186   0.36273   0.00000  Uiso   1.00
H857   H     0.63890   0.17958   0.36104   0.00000  Uiso   1.00
H858   H     0.33709   0.19016   0.64409   0.00000  Uiso   1.00
H859   H     0.56404   0.20617   0.38725   0.00000  Uiso   1.00
H860   H     0.62525   0.09509   0.48037   0.00000  Uiso   1.00
H861   H     0.34526   0.08325   0.45096   0.00000  Uiso   1.00
H862   H     0.61905   0.09355   0.37248   0.00000  Uiso   1.00
H863   H     0.59999   0.05110   0.40820   0.00000  Uiso   1.00
H864   H     0.56751   0.09914   0.40597   0.00000  Uiso   1.00
N865   N     0.50001   0.16668   0.61736   0.00000  Uiso   1.00
N866   N     0.49999   0.16666   0.38264   0.00000  Uiso   1.00
O867   O     0.50000   0.10655   0.53958   0.00000  Uiso   1.00
O868   O     0.34522   0.19606   0.55503   0.00000  Uiso   1.00
O869   O     0.47247   0.29368   0.41583   0.00000  Uiso   1.00
O870   O     0.53417   0.04060   0.58671   0.00000  Uiso   1.00
O871   O     0.42991   0.11719   0.37335   0.00000  Uiso   1.00
O872   O     0.57173   0.21282   0.62395   0.00000  Uiso   1.00
O873   O     0.50000   0.22678   0.46042   0.00000  Uiso   1.00
O874   O     0.50000   0.10654   0.46039   0.00000  Uiso   1.00
O875   O     0.50000   0.22679   0.53961   0.00000  Uiso   1.00
O876   O     0.42495   0.16667   0.53046   0.00000  Uiso   1.00
O877   O     0.57505   0.16666   0.46954   0.00000  Uiso   1.00
O878   O     0.42494   0.16666   0.45127   0.00000  Uiso   1.00
O879   O     0.57506   0.16667   0.54873   0.00000  Uiso   1.00
O880   O     0.65462   0.14297   0.44082   0.00000  Uiso   1.00
C881   C     0.83635   0.08760   0.50060   0.00000  Uiso   1.00
C882   C     0.85421   0.02111   0.54365   0.00000  Uiso   1.00
C883   C     0.83661   0.29079   0.49972   0.00000  Uiso   1.00
C884   C     0.84124   0.04316   0.50139   0.00000  Uiso   1.00
C885   C     0.79834   0.14235   0.35348   0.00000  Uiso   1.00
C886   C     0.87004   0.18947   0.64624   0.00000  Uiso   1.00
C887   C     0.79744   0.14428   0.63683   0.00000  Uiso   1.00
C888   C     0.86942   0.18909   0.36310   0.00000  Uiso   1.00
C889   C     0.97639   0.10084   0.44791   0.00000  Uiso   1.00
C890   C     0.93850   0.08507   0.40608   0.00000  Uiso   1.00
C891   C     0.67407   0.23838   0.54387   0.00000  Uiso   1.00
C892   C     0.83368   0.24599   0.49987   0.00000  Uiso   1.00
C893   C     0.71455   0.26337   0.57607   0.00000  Uiso   1.00
C894   C     0.84082   0.29599   0.38307   0.00000  Uiso   1.00
C895   C     0.81372   0.28033   0.33592   0.00000  Uiso   1.00
C896   C     0.91996   0.05340   0.59230   0.00000  Uiso   1.00
C897   C     0.95408   0.01903   0.61345   0.00000  Uiso   1.00
C898   C     0.75797   0.07767   0.35192   0.00000  Uiso   1.00
C899   C     0.72834   0.04792   0.37997   0.00000  Uiso   1.00
C900   C     0.94517   0.23362   0.65381   0.00000  Uiso   1.00
C901   C     0.98744   0.20448   0.34001   0.00000  Uiso   1.00
C902   C     0.73467   0.16555   0.48799   0.00000  Uiso   1.00
C903   C     0.93192   0.16815   0.51192   0.00000  Uiso   1.00
C904   C     0.67951   0.16015   0.48249   0.00000  Uiso   1.00
C905   C     0.98710   0.17334   0.51711   0.00000  Uiso   1.00
C906   C     0.83140   0.02218   0.45864   0.00000  Uiso   1.00
C907   C     0.85135   0.31171   0.54235   0.00000  Uiso   1.00
C908   C     0.82721   0.31293   0.45726   0.00000  Uiso   1.00
Cu909  Cu    0.83333   0.16667   0.54689   0.00000  Uiso   1.00
Cu910  Cu    0.83333   0.16666   0.45311   0.00000  Uiso   1.00
H911   H     0.82434   0.03895   0.42602   0.00000  Uiso   1.00
H912   H     0.96871   0.24854   0.54891   0.00000  Uiso   1.00
H913   H     0.68015   0.24534   0.50686   0.00000  Uiso   1.00
H914   H     0.71147   0.25686   0.61350   0.00000  Uiso   1.00
H915   H     0.75336   0.25536   0.56941   0.00000  Uiso   1.00
H916   H     0.70952   0.29673   0.56926   0.00000  Uiso   1.00
H917   H     0.87395   0.27653   0.39521   0.00000  Uiso   1.00
H918   H     0.85542   0.32793   0.37760   0.00000  Uiso   1.00
H919   H     0.78532   0.30286   0.65377   0.00000  Uiso   1.00
H920   H     0.84219   0.27634   0.64509   0.00000  Uiso   1.00
H921   H     0.79365   0.25026   0.34032   0.00000  Uiso   1.00
H922   H     0.86120   0.29492   0.57476   0.00000  Uiso   1.00
H923   H     0.92542   0.07980   0.61713   0.00000  Uiso   1.00
H924   H     0.93280   0.06474   0.55898   0.00000  Uiso   1.00
H925   H     0.95205   0.32623   0.58847   0.00000  Uiso   1.00
H926   H     0.99452   0.03065   0.62045   0.00000  Uiso   1.00
H927   H     0.94187   0.00811   0.64701   0.00000  Uiso   1.00
H928   H     0.79622   0.06485   0.34971   0.00000  Uiso   1.00
H929   H     0.73547   0.07881   0.64947   0.00000  Uiso   1.00
H930   H     0.68681   0.05280   0.37142   0.00000  Uiso   1.00
H931   H     0.73511   0.01575   0.37041   0.00000  Uiso   1.00
H932   H     0.74011   0.05225   0.41829   0.00000  Uiso   1.00
H933   H     0.76827   0.12788   0.61310   0.00000  Uiso   1.00
H934   H     0.93159   0.25204   0.34825   0.00000  Uiso   1.00
H935   H     0.96227   0.25710   0.63217   0.00000  Uiso   1.00
H936   H     0.68523   0.22186   0.36273   0.00000  Uiso   1.00
H937   H     0.97223   0.17958   0.36104   0.00000  Uiso   1.00
H938   H     0.67042   0.19016   0.64409   0.00000  Uiso   1.00
H939   H     0.89737   0.20617   0.38725   0.00000  Uiso   1.00
H940   H     0.95859   0.09509   0.48037   0.00000  Uiso   1.00
H941   H     0.67859   0.08325   0.45096   0.00000  Uiso   1.00
H942   H     0.95239   0.09355   0.37248   0.00000  Uiso   1.00
H943   H     0.93332   0.05110   0.40820   0.00000  Uiso   1.00
H944   H     0.90085   0.09914   0.40597   0.00000  Uiso   1.00
N945   N     0.83335   0.16668   0.61736   0.00000  Uiso   1.00
N946   N     0.83332   0.16666   0.38264   0.00000  Uiso   1.00
O947   O     0.83333   0.10655   0.53958   0.00000  Uiso   1.00
O948   O     0.67855   0.19606   0.55503   0.00000  Uiso   1.00
O949   O     0.80580   0.29368   0.41583   0.00000  Uiso   1.00
O950   O     0.86750   0.04060   0.58671   0.00000  Uiso   1.00
O951   O     0.76324   0.11719   0.37335   0.00000  Uiso   1.00
O952   O     0.90507   0.21282   0.62395   0.00000  Uiso   1.00
O953   O     0.83334   0.22678   0.46042   0.00000  Uiso   1.00
O954   O     0.83333   0.10654   0.46039   0.00000  Uiso   1.00
O955   O     0.83334   0.22679   0.53961   0.00000  Uiso   1.00
O956   O     0.75828   0.16667   0.53046   0.00000  Uiso   1.00
O957   O     0.90839   0.16666   0.46954   0.00000  Uiso   1.00
O958   O     0.75828   0.16666   0.45127   0.00000  Uiso   1.00
O959   O     0.90839   0.16667   0.54873   0.00000  Uiso   1.00
O960   O     0.98795   0.14297   0.44082   0.00000  Uiso   1.00
C961   C     0.16968   0.42093   0.50060   0.00000  Uiso   1.00
C962   C     0.18754   0.35445   0.54365   0.00000  Uiso   1.00
C963   C     0.16994   0.62412   0.49972   0.00000  Uiso   1.00
C964   C     0.17458   0.37649   0.50139   0.00000  Uiso   1.00
C965   C     0.13168   0.47568   0.35348   0.00000  Uiso   1.00
C966   C     0.20338   0.52280   0.64624   0.00000  Uiso   1.00
C967   C     0.13078   0.47762   0.63683   0.00000  Uiso   1.00
C968   C     0.20275   0.52243   0.36310   0.00000  Uiso   1.00
C969   C     0.30973   0.43417   0.44791   0.00000  Uiso   1.00
C970   C     0.27183   0.41840   0.40608   0.00000  Uiso   1.00
C971   C     0.00740   0.57171   0.54387   0.00000  Uiso   1.00
C972   C     0.16701   0.57932   0.49987   0.00000  Uiso   1.00
C973   C     0.04789   0.59670   0.57607   0.00000  Uiso   1.00
C974   C     0.17416   0.62932   0.38307   0.00000  Uiso   1.00
C975   C     0.14705   0.61366   0.33592   0.00000  Uiso   1.00
C976   C     0.25329   0.38673   0.59230   0.00000  Uiso   1.00
C977   C     0.28742   0.35236   0.61345   0.00000  Uiso   1.00
C978   C     0.09130   0.41100   0.35192   0.00000  Uiso   1.00
C979   C     0.06167   0.38126   0.37997   0.00000  Uiso   1.00
C980   C     0.27850   0.56696   0.65381   0.00000  Uiso   1.00
C981   C     0.32077   0.53781   0.34001   0.00000  Uiso   1.00
C982   C     0.06800   0.49888   0.48799   0.00000  Uiso   1.00
C983   C     0.26525   0.50148   0.51192   0.00000  Uiso   1.00
C984   C     0.01284   0.49349   0.48249   0.00000  Uiso   1.00
C985   C     0.32044   0.50668   0.51711   0.00000  Uiso   1.00
C986   C     0.16474   0.35552   0.45864   0.00000  Uiso   1.00
C987   C     0.18468   0.64504   0.54235   0.00000  Uiso   1.00
C988   C     0.16054   0.64626   0.45726   0.00000  Uiso   1.00
Cu989  Cu    0.16667   0.50001   0.54689   0.00000  Uiso   1.00
Cu990  Cu    0.16667   0.49999   0.45311   0.00000  Uiso   1.00
H991   H     0.15767   0.37228   0.42602   0.00000  Uiso   1.00
H992   H     0.30205   0.58188   0.54891   0.00000  Uiso   1.00
H993   H     0.01348   0.57867   0.50686   0.00000  Uiso   1.00
H994   H     0.04480   0.59019   0.61350   0.00000  Uiso   1.00
H995   H     0.08670   0.58870   0.56941   0.00000  Uiso   1.00
H996   H     0.04285   0.63006   0.56926   0.00000  Uiso   1.00
H997   H     0.20728   0.60986   0.39521   0.00000  Uiso   1.00
H998   H     0.18875   0.66126   0.37760   0.00000  Uiso   1.00
H999   H     0.11866   0.63620   0.65377   0.00000  Uiso   1.00
H1000  H     0.17552   0.60967   0.64509   0.00000  Uiso   1.00
H1001  H     0.12698   0.58360   0.34032   0.00000  Uiso   1.00
H1002  H     0.19453   0.62825   0.57476   0.00000  Uiso   1.00
H1003  H     0.25875   0.41313   0.61713   0.00000  Uiso   1.00
H1004  H     0.26613   0.39807   0.55898   0.00000  Uiso   1.00
H1005  H     0.28538   0.65957   0.58847   0.00000  Uiso   1.00
H1006  H     0.32785   0.36399   0.62045   0.00000  Uiso   1.00
H1007  H     0.27520   0.34145   0.64701   0.00000  Uiso   1.00
H1008  H     0.12956   0.39818   0.34971   0.00000  Uiso   1.00
H1009  H     0.06881   0.41215   0.64947   0.00000  Uiso   1.00
H1010  H     0.02015   0.38613   0.37142   0.00000  Uiso   1.00
H1011  H     0.06844   0.34908   0.37041   0.00000  Uiso   1.00
H1012  H     0.07344   0.38558   0.41829   0.00000  Uiso   1.00
H1013  H     0.10160   0.46121   0.61310   0.00000  Uiso   1.00
H1014  H     0.26492   0.58538   0.34825   0.00000  Uiso   1.00
H1015  H     0.29561   0.59043   0.63217   0.00000  Uiso   1.00
H1016  H     0.01856   0.55520   0.36273   0.00000  Uiso   1.00
H1017  H     0.30556   0.51291   0.36104   0.00000  Uiso   1.00
H1018  H     0.00375   0.52349   0.64409   0.00000  Uiso   1.00
H1019  H     0.23070   0.53950   0.38725   0.00000  Uiso   1.00
H1020  H     0.29192   0.42842   0.48037   0.00000  Uiso   1.00
H1021  H     0.01193   0.41659   0.45096   0.00000  Uiso   1.00
H1022  H     0.28572   0.42688   0.37248   0.00000  Uiso   1.00
H1023  H     0.26666   0.38443   0.40820   0.00000  Uiso   1.00
H1024  H     0.23418   0.43247   0.40597   0.00000  Uiso   1.00
N1025  N     0.16668   0.50001   0.61736   0.00000  Uiso   1.00
N1026  N     0.16665   0.49999   0.38264   0.00000  Uiso   1.00
O1027  O     0.16666   0.43989   0.53958   0.00000  Uiso   1.00
O1028  O     0.01189   0.52940   0.55503   0.00000  Uiso   1.00
O1029  O     0.13913   0.62701   0.41583   0.00000  Uiso   1.00
O1030  O     0.20083   0.37394   0.58671   0.00000  Uiso   1.00
O1031  O     0.09657   0.45053   0.37335   0.00000  Uiso   1.00
O1032  O     0.23840   0.54616   0.62395   0.00000  Uiso   1.00
O1033  O     0.16667   0.56011   0.46042   0.00000  Uiso   1.00
O1034  O     0.16666   0.43988   0.46039   0.00000  Uiso   1.00
O1035  O     0.16667   0.56012   0.53961   0.00000  Uiso   1.00
O1036  O     0.09161   0.50000   0.53046   0.00000  Uiso   1.00
O1037  O     0.24172   0.50000   0.46954   0.00000  Uiso   1.00
O1038  O     0.09161   0.49999   0.45127   0.00000  Uiso   1.00
O1039  O     0.24172   0.50001   0.54873   0.00000  Uiso   1.00
O1040  O     0.32129   0.47630   0.44082   0.00000  Uiso   1.00
C1041  C     0.50301   0.42093   0.50060   0.00000  Uiso   1.00
C1042  C     0.52087   0.35445   0.54365   0.00000  Uiso   1.00
C1043  C     0.50328   0.62412   0.49972   0.00000  Uiso   1.00
C1044  C     0.50791   0.37649   0.50139   0.00000  Uiso   1.00
C1045  C     0.46501   0.47568   0.35348   0.00000  Uiso   1.00
C1046  C     0.53671   0.52280   0.64624   0.00000  Uiso   1.00
C1047  C     0.46411   0.47762   0.63683   0.00000  Uiso   1.00
C1048  C     0.53609   0.52243   0.36310   0.00000  Uiso   1.00
C1049  C     0.64306   0.43417   0.44791   0.00000  Uiso   1.00
C1050  C     0.60517   0.41840   0.40608   0.00000  Uiso   1.00
C1051  C     0.34074   0.57171   0.54387   0.00000  Uiso   1.00
C1052  C     0.50034   0.57932   0.49987   0.00000  Uiso   1.00
C1053  C     0.38122   0.59670   0.57607   0.00000  Uiso   1.00
C1054  C     0.50749   0.62932   0.38307   0.00000  Uiso   1.00
C1055  C     0.48038   0.61366   0.33592   0.00000  Uiso   1.00
C1056  C     0.58663   0.38673   0.59230   0.00000  Uiso   1.00
C1057  C     0.62075   0.35236   0.61345   0.00000  Uiso   1.00
C1058  C     0.42464   0.41100   0.35192   0.00000  Uiso   1.00
C1059  C     0.39501   0.38126   0.37997   0.00000  Uiso   1.00
C1060  C     0.61184   0.56696   0.65381   0.00000  Uiso   1.00
C1061  C     0.65410   0.53781   0.34001   0.00000  Uiso   1.00
C1062  C     0.40133   0.49888   0.48799   0.00000  Uiso   1.00
C1063  C     0.59859   0.50148   0.51192   0.00000  Uiso   1.00
C1064  C     0.34618   0.49349   0.48249   0.00000  Uiso   1.00
C1065  C     0.65377   0.50668   0.51711   0.00000  Uiso   1.00
C1066  C     0.49807   0.35552   0.45864   0.00000  Uiso   1.00
C1067  C     0.51801   0.64504   0.54235   0.00000  Uiso   1.00
C1068  C     0.49387   0.64626   0.45726   0.00000  Uiso   1.00
Cu1069 Cu    0.50000   0.50001   0.54689   0.00000  Uiso   1.00
Cu1070 Cu    0.50000   0.49999   0.45311   0.00000  Uiso   1.00
H1071  H     0.49100   0.37228   0.42602   0.00000  Uiso   1.00
H1072  H     0.63538   0.58188   0.54891   0.00000  Uiso   1.00
H1073  H     0.34682   0.57867   0.50686   0.00000  Uiso   1.00
H1074  H     0.37813   0.59019   0.61350   0.00000  Uiso   1.00
H1075  H     0.42003   0.58870   0.56941   0.00000  Uiso   1.00
H1076  H     0.37619   0.63006   0.56926   0.00000  Uiso   1.00
H1077  H     0.54061   0.60986   0.39521   0.00000  Uiso   1.00
H1078  H     0.52208   0.66126   0.37760   0.00000  Uiso   1.00
H1079  H     0.45199   0.63620   0.65377   0.00000  Uiso   1.00
H1080  H     0.50886   0.60967   0.64509   0.00000  Uiso   1.00
H1081  H     0.46031   0.58360   0.34032   0.00000  Uiso   1.00
H1082  H     0.52787   0.62825   0.57476   0.00000  Uiso   1.00
H1083  H     0.59208   0.41313   0.61713   0.00000  Uiso   1.00
H1084  H     0.59947   0.39807   0.55898   0.00000  Uiso   1.00
H1085  H     0.61872   0.65957   0.58847   0.00000  Uiso   1.00
H1086  H     0.66118   0.36399   0.62045   0.00000  Uiso   1.00
H1087  H     0.60853   0.34145   0.64701   0.00000  Uiso   1.00
H1088  H     0.46289   0.39818   0.34971   0.00000  Uiso   1.00
H1089  H     0.40214   0.41215   0.64947   0.00000  Uiso   1.00
H1090  H     0.35348   0.38613   0.37142   0.00000  Uiso   1.00
H1091  H     0.40177   0.34908   0.37041   0.00000  Uiso   1.00
H1092  H     0.40677   0.38558   0.41829   0.00000  Uiso   1.00
H1093  H     0.43494   0.46121   0.61310   0.00000  Uiso   1.00
H1094  H     0.59826   0.58538   0.34825   0.00000  Uiso   1.00
H1095  H     0.62894   0.59043   0.63217   0.00000  Uiso   1.00
H1096  H     0.35189   0.55520   0.36273   0.00000  Uiso   1.00
H1097  H     0.63890   0.51291   0.36104   0.00000  Uiso   1.00
H1098  H     0.33709   0.52349   0.64409   0.00000  Uiso   1.00
H1099  H     0.56404   0.53950   0.38725   0.00000  Uiso   1.00
H1100  H     0.62525   0.42842   0.48037   0.00000  Uiso   1.00
H1101  H     0.34526   0.41659   0.45096   0.00000  Uiso   1.00
H1102  H     0.61905   0.42688   0.37248   0.00000  Uiso   1.00
H1103  H     0.59999   0.38443   0.40820   0.00000  Uiso   1.00
H1104  H     0.56751   0.43247   0.40597   0.00000  Uiso   1.00
N1105  N     0.50001   0.50001   0.61736   0.00000  Uiso   1.00
N1106  N     0.49999   0.49999   0.38264   0.00000  Uiso   1.00
O1107  O     0.50000   0.43989   0.53958   0.00000  Uiso   1.00
O1108  O     0.34522   0.52940   0.55503   0.00000  Uiso   1.00
O1109  O     0.47247   0.62701   0.41583   0.00000  Uiso   1.00
O1110  O     0.53417   0.37394   0.58671   0.00000  Uiso   1.00
O1111  O     0.42991   0.45053   0.37335   0.00000  Uiso   1.00
O1112  O     0.57173   0.54616   0.62395   0.00000  Uiso   1.00
O1113  O     0.50000   0.56011   0.46042   0.00000  Uiso   1.00
O1114  O     0.50000   0.43988   0.46039   0.00000  Uiso   1.00
O1115  O     0.50000   0.56012   0.53961   0.00000  Uiso   1.00
O1116  O     0.42495   0.50000   0.53046   0.00000  Uiso   1.00
O1117  O     0.57505   0.50000   0.46954   0.00000  Uiso   1.00
O1118  O     0.42494   0.49999   0.45127   0.00000  Uiso   1.00
O1119  O     0.57506   0.50001   0.54873   0.00000  Uiso   1.00
O1120  O     0.65462   0.47630   0.44082   0.00000  Uiso   1.00
C1121  C     0.83635   0.42093   0.50060   0.00000  Uiso   1.00
C1122  C     0.85421   0.35445   0.54365   0.00000  Uiso   1.00
C1123  C     0.83661   0.62412   0.49972   0.00000  Uiso   1.00
C1124  C     0.84124   0.37649   0.50139   0.00000  Uiso   1.00
C1125  C     0.79834   0.47568   0.35348   0.00000  Uiso   1.00
C1126  C     0.87004   0.52280   0.64624   0.00000  Uiso   1.00
C1127  C     0.79744   0.47762   0.63683   0.00000  Uiso   1.00
C1128  C     0.86942   0.52243   0.36310   0.00000  Uiso   1.00
C1129  C     0.97639   0.43417   0.44791   0.00000  Uiso   1.00
C1130  C     0.93850   0.41840   0.40608   0.00000  Uiso   1.00
C1131  C     0.67407   0.57171   0.54387   0.00000  Uiso   1.00
C1132  C     0.83368   0.57932   0.49987   0.00000  Uiso   1.00
C1133  C     0.71455   0.59670   0.57607   0.00000  Uiso   1.00
C1134  C     0.84082   0.62932   0.38307   0.00000  Uiso   1.00
C1135  C     0.81372   0.61366   0.33592   0.00000  Uiso   1.00
C1136  C     0.91996   0.38673   0.59230   0.00000  Uiso   1.00
C1137  C     0.95408   0.35236   0.61345   0.00000  Uiso   1.00
C1138  C     0.75797   0.41100   0.35192   0.00000  Uiso   1.00
C1139  C     0.72834   0.38126   0.37997   0.00000  Uiso   1.00
C1140  C     0.94517   0.56696   0.65381   0.00000  Uiso   1.00
C1141  C     0.98744   0.53781   0.34001   0.00000  Uiso   1.00
C1142  C     0.73467   0.49888   0.48799   0.00000  Uiso   1.00
C1143  C     0.93192   0.50148   0.51192   0.00000  Uiso   1.00
C1144  C     0.67951   0.49349   0.48249   0.00000  Uiso   1.00
C1145  C     0.98710   0.50668   0.51711   0.00000  Uiso   1.00
C1146  C     0.83140   0.35552   0.45864   0.00000  Uiso   1.00
C1147  C     0.85135   0.64504   0.54235   0.00000  Uiso   1.00
C1148  C     0.82721   0.64626   0.45726   0.00000  Uiso   1.00
Cu1149 Cu    0.83333   0.50001   0.54689   0.00000  Uiso   1.00
Cu1150 Cu    0.83333   0.49999   0.45311   0.00000  Uiso   1.00
H1151  H     0.82434   0.37228   0.42602   0.00000  Uiso   1.00
H1152  H     0.96871   0.58188   0.54891   0.00000  Uiso   1.00
H1153  H     0.68015   0.57867   0.50686   0.00000  Uiso   1.00
H1154  H     0.71147   0.59019   0.61350   0.00000  Uiso   1.00
H1155  H     0.75336   0.58870   0.56941   0.00000  Uiso   1.00
H1156  H     0.70952   0.63006   0.56926   0.00000  Uiso   1.00
H1157  H     0.87395   0.60986   0.39521   0.00000  Uiso   1.00
H1158  H     0.85542   0.66126   0.37760   0.00000  Uiso   1.00
H1159  H     0.78532   0.63620   0.65377   0.00000  Uiso   1.00
H1160  H     0.84219   0.60967   0.64509   0.00000  Uiso   1.00
H1161  H     0.79365   0.58360   0.34032   0.00000  Uiso   1.00
H1162  H     0.86120   0.62825   0.57476   0.00000  Uiso   1.00
H1163  H     0.92542   0.41313   0.61713   0.00000  Uiso   1.00
H1164  H     0.93280   0.39807   0.55898   0.00000  Uiso   1.00
H1165  H     0.95205   0.65957   0.58847   0.00000  Uiso   1.00
H1166  H     0.99452   0.36399   0.62045   0.00000  Uiso   1.00
H1167  H     0.94187   0.34145   0.64701   0.00000  Uiso   1.00
H1168  H     0.79622   0.39818   0.34971   0.00000  Uiso   1.00
H1169  H     0.73547   0.41215   0.64947   0.00000  Uiso   1.00
H1170  H     0.68681   0.38613   0.37142   0.00000  Uiso   1.00
H1171  H     0.73511   0.34908   0.37041   0.00000  Uiso   1.00
H1172  H     0.74011   0.38558   0.41829   0.00000  Uiso   1.00
H1173  H     0.76827   0.46121   0.61310   0.00000  Uiso   1.00
H1174  H     0.93159   0.58538   0.34825   0.00000  Uiso   1.00
H1175  H     0.96227   0.59043   0.63217   0.00000  Uiso   1.00
H1176  H     0.68523   0.55520   0.36273   0.00000  Uiso   1.00
H1177  H     0.97223   0.51291   0.36104   0.00000  Uiso   1.00
H1178  H     0.67042   0.52349   0.64409   0.00000  Uiso   1.00
H1179  H     0.89737   0.53950   0.38725   0.00000  Uiso   1.00
H1180  H     0.95859   0.42842   0.48037   0.00000  Uiso   1.00
H1181  H     0.67859   0.41659   0.45096   0.00000  Uiso   1.00
H1182  H     0.95239   0.42688   0.37248   0.00000  Uiso   1.00
H1183  H     0.93332   0.38443   0.40820   0.00000  Uiso   1.00
H1184  H     0.90085   0.43247   0.40597   0.00000  Uiso   1.00
N1185  N     0.83335   0.50001   0.61736   0.00000  Uiso   1.00
N1186  N     0.83332   0.49999   0.38264   0.00000  Uiso   1.00
O1187  O     0.83333   0.43989   0.53958   0.00000  Uiso   1.00
O1188  O     0.67855   0.52940   0.55503   0.00000  Uiso   1.00
O1189  O     0.80580   0.62701   0.41583   0.00000  Uiso   1.00
O1190  O     0.86750   0.37394   0.58671   0.00000  Uiso   1.00
O1191  O     0.76324   0.45053   0.37335   0.00000  Uiso   1.00
O1192  O     0.90507   0.54616   0.62395   0.00000  Uiso   1.00
O1193  O     0.83334   0.56011   0.46042   0.00000  Uiso   1.00
O1194  O     0.83333   0.43988   0.46039   0.00000  Uiso   1.00
O1195  O     0.83334   0.56012   0.53961   0.00000  Uiso   1.00
O1196  O     0.75828   0.50000   0.53046   0.00000  Uiso   1.00
O1197  O     0.90839   0.50000   0.46954   0.00000  Uiso   1.00
O1198  O     0.75828   0.49999   0.45127   0.00000  Uiso   1.00
O1199  O     0.90839   0.50001   0.54873   0.00000  Uiso   1.00
O1200  O     0.98795   0.47630   0.44082   0.00000  Uiso   1.00
C1201  C     0.16968   0.75426   0.50060   0.00000  Uiso   1.00
C1202  C     0.18754   0.68778   0.54365   0.00000  Uiso   1.00
C1203  C     0.16994   0.95745   0.49972   0.00000  Uiso   1.00
C1204  C     0.17458   0.70983   0.50139   0.00000  Uiso   1.00
C1205  C     0.13168   0.80902   0.35348   0.00000  Uiso   1.00
C1206  C     0.20338   0.85614   0.64624   0.00000  Uiso   1.00
C1207  C     0.13078   0.81095   0.63683   0.00000  Uiso   1.00
C1208  C     0.20275   0.85576   0.36310   0.00000  Uiso   1.00
C1209  C     0.30973   0.76751   0.44791   0.00000  Uiso   1.00
C1210  C     0.27183   0.75173   0.40608   0.00000  Uiso   1.00
C1211  C     0.00740   0.90505   0.54387   0.00000  Uiso   1.00
C1212  C     0.16701   0.91266   0.49987   0.00000  Uiso   1.00
C1213  C     0.04789   0.93003   0.57607   0.00000  Uiso   1.00
C1214  C     0.17416   0.96266   0.38307   0.00000  Uiso   1.00
C1215  C     0.14705   0.94700   0.33592   0.00000  Uiso   1.00
C1216  C     0.25329   0.72006   0.59230   0.00000  Uiso   1.00
C1217  C     0.28742   0.68570   0.61345   0.00000  Uiso   1.00
C1218  C     0.09130   0.74433   0.35192   0.00000  Uiso   1.00
C1219  C     0.06167   0.71459   0.37997   0.00000  Uiso   1.00
C1220  C     0.27850   0.90029   0.65381   0.00000  Uiso   1.00
C1221  C     0.32077   0.87115   0.34001   0.00000  Uiso   1.00
C1222  C     0.06800   0.83221   0.48799   0.00000  Uiso   1.00
C1223  C     0.26525   0.83482   0.51192   0.00000  Uiso   1.00
C1224  C     0.01284   0.82682   0.48249   0.00000  Uiso   1.00
C1225  C     0.32044   0.84001   0.51711   0.00000  Uiso   1.00
C1226  C     0.16474   0.68885   0.45864   0.00000  Uiso   1.00
C1227  C     0.18468   0.97837   0.54235   0.00000  Uiso   1.00
C1228  C     0.16054   0.97960   0.45726   0.00000  Uiso   1.00
Cu1229 Cu    0.16667   0.83334   0.54689   0.00000  Uiso   1.00
Cu1230 Cu    0.16667   0.83333   0.45311   0.00000  Uiso   1.00
H1231  H     0.15767   0.70562   0.42602   0.00000  Uiso   1.00
H1232  H     0.30205   0.91521   0.54891   0.00000  Uiso   1.00
H1233  H     0.01348   0.91201   0.50686   0.00000  Uiso   1.00
H1234  H     0.04480   0.92352   0.61350   0.00000  Uiso   1.00
H1235  H     0.08670   0.92203   0.56941   0.00000  Uiso   1.00
H1236  H     0.04285   0.96340   0.56926   0.00000  Uiso   1.00
H1237  H     0.20728   0.94320   0.39521   0.00000  Uiso   1.00
H1238  H     0.18875   0.99460   0.37760   0.00000  Uiso   1.00
H1239  H     0.11866   0.96953   0.65377   0.00000  Uiso   1.00
H1240  H     0.17552   0.94301   0.64509   0.00000  Uiso   1.00
H1241  H     0.12698   0.91693   0.34032   0.00000  Uiso   1.00
H1242  H     0.19453   0.96159   0.57476   0.00000  Uiso   1.00
H1243  H     0.25875   0.74646   0.61713   0.00000  Uiso   1.00
H1244  H     0.26613   0.73140   0.55898   0.00000  Uiso   1.00
H1245  H     0.28538   0.99290   0.58847   0.00000  Uiso   1.00
H1246  H     0.32785   0.69732   0.62045   0.00000  Uiso   1.00
H1247  H     0.27520   0.67478   0.64701   0.00000  Uiso   1.00
H1248  H     0.12956   0.73151   0.34971   0.00000  Uiso   1.00
H1249  H     0.06881   0.74548   0.64947   0.00000  Uiso   1.00
H1250  H     0.02015   0.71946   0.37142   0.00000  Uiso   1.00
H1251  H     0.06844   0.68242   0.37041   0.00000  Uiso   1.00
H1252  H     0.07344   0.71892   0.41829   0.00000  Uiso   1.00
H1253  H     0.10160   0.79455   0.61310   0.00000  Uiso   1.00
H1254  H     0.26492   0.91871   0.34825   0.00000  Uiso   1.00
H1255  H     0.29561   0.92376   0.63217   0.00000  Uiso   1.00
H1256  H     0.01856   0.88853   0.36273   0.00000  Uiso   1.00
H1257  H     0.30556   0.84624   0.36104   0.00000  Uiso   1.00
H1258  H     0.00375   0.85682   0.64409   0.00000  Uiso   1.00
H1259  H     0.23070   0.87283   0.38725   0.00000  Uiso   1.00
H1260  H     0.29192   0.76176   0.48037   0.00000  Uiso   1.00
H1261  H     0.01193   0.74992   0.45096   0.00000  Uiso   1.00
H1262  H     0.28572   0.76021   0.37248   0.00000  Uiso   1.00
H1263  H     0.26666   0.71777   0.40820   0.00000  Uiso   1.00
H1264  H     0.23418   0.76581   0.40597   0.00000  Uiso   1.00
N1265  N     0.16668   0.83334   0.61736   0.00000  Uiso   1.00
N1266  N     0.16665   0.83332   0.38264   0.00000  Uiso   1.00
O1267  O     0.16666   0.77322   0.53958   0.00000  Uiso   1.00
O1268  O     0.01189   0.86273   0.55503   0.00000  Uiso   1.00
O1269  O     0.13913   0.96035   0.41583   0.00000  Uiso   1.00
O1270  O     0.20083   0.70727   0.58671   0.00000  Uiso   1.00
O1271  O     0.09657   0.78386   0.37335   0.00000  Uiso   1.00
O1272  O     0.23840   0.87949   0.62395   0.00000  Uiso   1.00
O1273  O     0.16667   0.89345   0.46042   0.00000  Uiso   1.00
O1274  O     0.16666   0.77321   0.46039   0.00000  Uiso   1.00
O1275  O     0.16667   0.89346   0.53961   0.00000  Uiso   1.00
O1276  O     0.09161   0.83334   0.53046   0.00000  Uiso   1.00
O1277  O     0.24172   0.83333   0.46954   0.00000  Uiso   1.00
O1278  O     0.09161   0.83333   0.45127   0.00000  Uiso   1.00
O1279  O     0.24172   0.83334   0.54873   0.00000  Uiso   1.00
O1280  O     0.32129   0.80963   0.44082   0.00000  Uiso   1.00
C1281  C     0.50301   0.75426   0.50060   0.00000  Uiso   1.00
C1282  C     0.52087   0.68778   0.54365   0.00000  Uiso   1.00
C1283  C     0.50328   0.95745   0.49972   0.00000  Uiso   1.00
C1284  C     0.50791   0.70983   0.50139   0.00000  Uiso   1.00
C1285  C     0.46501   0.80902   0.35348   0.00000  Uiso   1.00
C1286  C     0.53671   0.85614   0.64624   0.00000  Uiso   1.00
C1287  C     0.46411   0.81095   0.63683   0.00000  Uiso   1.00
C1288  C     0.53609   0.85576   0.36310   0.00000  Uiso   1.00
C1289  C     0.64306   0.76751   0.44791   0.00000  Uiso   1.00
C1290  C     0.60517   0.75173   0.40608   0.00000  Uiso   1.00
C1291  C     0.34074   0.90505   0.54387   0.00000  Uiso   1.00
C1292  C     0.50034   0.91266   0.49987   0.00000  Uiso   1.00
C1293  C     0.38122   0.93003   0.57607   0.00000  Uiso   1.00
C1294  C     0.50749   0.96266   0.38307   0.00000  Uiso   1.00
C1295  C     0.48038   0.94700   0.33592   0.00000  Uiso   1.00
C1296  C     0.58663   0.72006   0.59230   0.00000  Uiso   1.00
C1297  C     0.62075   0.68570   0.61345   0.00000  Uiso   1.00
C1298  C     0.42464   0.74433   0.35192   0.00000  Uiso   1.00
C1299  C     0.39501   0.71459   0.37997   0.00000  Uiso   1.00
C1300  C     0.61184   0.90029   0.65381   0.00000  Uiso   1.00
C1301  C     0.65410   0.87115   0.34001   0.00000  Uiso   1.00
C1302  C     0.40133   0.83221   0.48799   0.00000  Uiso   1.00
C1303  C     0.59859   0.83482   0.51192   0.00000  Uiso   1.00
C1304  C     0.34618   0.82682   0.48249   0.00000  Uiso   1.00
C1305  C     0.65377   0.84001   0.51711   0.00000  Uiso   1.00
C1306  C     0.49807   0.68885   0.45864   0.00000  Uiso   1.00
C1307  C     0.51801   0.97837   0.54235   0.00000  Uiso   1.00
C1308  C     0.49387   0.97960   0.45726   0.00000  Uiso   1.00
Cu1309 Cu    0.50000   0.83334   0.54689   0.00000  Uiso   1.00
Cu1310 Cu    0.50000   0.83333   0.45311   0.00000  Uiso   1.00
H1311  H     0.49100   0.70562   0.42602   0.00000  Uiso   1.00
H1312  H     0.63538   0.91521   0.54891   0.00000  Uiso   1.00
H1313  H     0.34682   0.91201   0.50686   0.00000  Uiso   1.00
H1314  H     0.37813   0.92352   0.61350   0.00000  Uiso   1.00
H1315  H     0.42003   0.92203   0.56941   0.00000  Uiso   1.00
H1316  H     0.37619   0.96340   0.56926   0.00000  Uiso   1.00
H1317  H     0.54061   0.94320   0.39521   0.00000  Uiso   1.00
H1318  H     0.52208   0.99460   0.37760   0.00000  Uiso   1.00
H1319  H     0.45199   0.96953   0.65377   0.00000  Uiso   1.00
H1320  H     0.50886   0.94301   0.64509   0.00000  Uiso   1.00
H1321  H     0.46031   0.91693   0.34032   0.00000  Uiso   1.00
H1322  H     0.52787   0.96159   0.57476   0.00000  Uiso   1.00
H1323  H     0.59208   0.74646   0.61713   0.00000  Uiso   1.00
H1324  H     0.59947   0.73140   0.55898   0.00000  Uiso   1.00
H1325  H     0.61872   0.99290   0.58847   0.00000  Uiso   1.00
H1326  H     0.66118   0.69732   0.62045   0.00000  Uiso   1.00
H1327  H     0.60853   0.67478   0.64701   0.00000  Uiso   1.00
H1328  H     0.46289   0.73151   0.34971   0.00000  Uiso   1.00
H1329  H     0.40214   0.74548   0.64947   0.00000  Uiso   1.00
H1330  H     0.35348   0.71946   0.37142   0.00000  Uiso   1.00
H1331  H     0.40177   0.68242   0.37041   0.00000  Uiso   1.00
H1332  H     0.40677   0.71892   0.41829   0.00000  Uiso   1.00
H1333  H     0.43494   0.79455   0.61310   0.00000  Uiso   1.00
H1334  H     0.59826   0.91871   0.34825   0.00000  Uiso   1.00
H1335  H     0.62894   0.92376   0.63217   0.00000  Uiso   1.00
H1336  H     0.35189   0.88853   0.36273   0.00000  Uiso   1.00
H1337  H     0.63890   0.84624   0.36104   0.00000  Uiso   1.00
H1338  H     0.33709   0.85682   0.64409   0.00000  Uiso   1.00
H1339  H     0.56404   0.87283   0.38725   0.00000  Uiso   1.00
H1340  H     0.62525   0.76176   0.48037   0.00000  Uiso   1.00
H1341  H     0.34526   0.74992   0.45096   0.00000  Uiso   1.00
H1342  H     0.61905   0.76021   0.37248   0.00000  Uiso   1.00
H1343  H     0.59999   0.71777   0.40820   0.00000  Uiso   1.00
H1344  H     0.56751   0.76581   0.40597   0.00000  Uiso   1.00
N1345  N     0.50001   0.83334   0.61736   0.00000  Uiso   1.00
N1346  N     0.49999   0.83332   0.38264   0.00000  Uiso   1.00
O1347  O     0.50000   0.77322   0.53958   0.00000  Uiso   1.00
O1348  O     0.34522   0.86273   0.55503   0.00000  Uiso   1.00
O1349  O     0.47247   0.96035   0.41583   0.00000  Uiso   1.00
O1350  O     0.53417   0.70727   0.58671   0.00000  Uiso   1.00
O1351  O     0.42991   0.78386   0.37335   0.00000  Uiso   1.00
O1352  O     0.57173   0.87949   0.62395   0.00000  Uiso   1.00
O1353  O     0.50000   0.89345   0.46042   0.00000  Uiso   1.00
O1354  O     0.50000   0.77321   0.46039   0.00000  Uiso   1.00
O1355  O     0.50000   0.89346   0.53961   0.00000  Uiso   1.00
O1356  O     0.42495   0.83334   0.53046   0.00000  Uiso   1.00
O1357  O     0.57505   0.83333   0.46954   0.00000  Uiso   1.00
O1358  O     0.42494   0.83333   0.45127   0.00000  Uiso   1.00
O1359  O     0.57506   0.83334   0.54873   0.00000  Uiso   1.00
O1360  O     0.65462   0.80963   0.44082   0.00000  Uiso   1.00
C1361  C     0.83635   0.75426   0.50060   0.00000  Uiso   1.00
C1362  C     0.85421   0.68778   0.54365   0.00000  Uiso   1.00
C1363  C     0.83661   0.95745   0.49972   0.00000  Uiso   1.00
C1364  C     0.84124   0.70983   0.50139   0.00000  Uiso   1.00
C1365  C     0.79834   0.80902   0.35348   0.00000  Uiso   1.00
C1366  C     0.87004   0.85614   0.64624   0.00000  Uiso   1.00
C1367  C     0.79744   0.81095   0.63683   0.00000  Uiso   1.00
C1368  C     0.86942   0.85576   0.36310   0.00000  Uiso   1.00
C1369  C     0.97639   0.76751   0.44791   0.00000  Uiso   1.00
C1370  C     0.93850   0.75173   0.40608   0.00000  Uiso   1.00
C1371  C     0.67407   0.90505   0.54387   0.00000  Uiso   1.00
C1372  C     0.83368   0.91266   0.49987   0.00000  Uiso   1.00
C1373  C     0.71455   0.93003   0.57607   0.00000  Uiso   1.00
C1374  C     0.84082   0.96266   0.38307   0.00000  Uiso   1.00
C1375  C     0.81372   0.94700   0.33592   0.00000  Uiso   1.00
C1376  C     0.91996   0.72006   0.59230   0.00000  Uiso   1.00
C1377  C     0.95408   0.68570   0.61345   0.00000  Uiso   1.00
C1378  C     0.75797   0.74433   0.35192   0.00000  Uiso   1.00
C1379  C     0.72834   0.71459   0.37997   0.00000  Uiso   1.00
C1380  C     0.94517   0.90029   0.65381   0.00000  Uiso   1.00
C1381  C     0.98744   0.87115   0.34001   0.00000  Uiso   1.00
C1382  C     0.73467   0.83221   0.48799   0.00000  Uiso   1.00
C1383  C     0.93192   0.83482   0.51192   0.00000  Uiso   1.00
C1384  C     0.67951   0.82682   0.48249   0.00000  Uiso   1.00
C1385  C     0.98710   0.84001   0.51711   0.00000  Uiso   1.00
C1386  C     0.83140   0.68885   0.45864   0.00000  Uiso   1.00
C1387  C     0.85135   0.97837   0.54235   0.00000  Uiso   1.00
C1388  C     0.82721   0.97960   0.45726   0.00000  Uiso   1.00
Cu1389 Cu    0.83333   0.83334   0.54689   0.00000  Uiso   1.00
Cu1390 Cu    0.83333   0.83333   0.45311   0.00000  Uiso   1.00
H1391  H     0.82434   0.70562   0.42602   0.00000  Uiso   1.00
H1392  H     0.96871   0.91521   0.54891   0.00000  Uiso   1.00
H1393  H     0.68015   0.91201   0.50686   0.00000  Uiso   1.00
H1394  H     0.71147   0.92352   0.61350   0.00000  Uiso   1.00
H1395  H     0.75336   0.92203   0.56941   0.00000  Uiso   1.00
H1396  H     0.70952   0.96340   0.56926   0.00000  Uiso   1.00
H1397  H     0.87395   0.94320   0.39521   0.00000  Uiso   1.00
H1398  H     0.85542   0.99460   0.37760   0.00000  Uiso   1.00
H1399  H     0.78532   0.96953   0.65377   0.00000  Uiso   1.00
H1400  H     0.84219   0.94301   0.64509   0.00000  Uiso   1.00
H1401  H     0.79365   0.91693   0.34032   0.00000  Uiso   1.00
H1402  H     0.86120   0.96159   0.57476   0.00000  Uiso   1.00
H1403  H     0.92542   0.74646   0.61713   0.00000  Uiso   1.00
H1404  H     0.93280   0.73140   0.55898   0.00000  Uiso   1.00
H1405  H     0.95205   0.99290   0.58847   0.00000  Uiso   1.00
H1406  H     0.99452   0.69732   0.62045   0.00000  Uiso   1.00
H1407  H     0.94187   0.67478   0.64701   0.00000  Uiso   1.00
H1408  H     0.79622   0.73151   0.34971   0.00000  Uiso   1.00
H1409  H     0.73547   0.74548   0.64947   0.00000  Uiso   1.00
H1410  H     0.68681   0.71946   0.37142   0.00000  Uiso   1.00
H1411  H     0.73511   0.68242   0.37041   0.00000  Uiso   1.00
H1412  H     0.74011   0.71892   0.41829   0.00000  Uiso   1.00
H1413  H     0.76827   0.79455   0.61310   0.00000  Uiso   1.00
H1414  H     0.93159   0.91871   0.34825   0.00000  Uiso   1.00
H1415  H     0.96227   0.92376   0.63217   0.00000  Uiso   1.00
H1416  H     0.68523   0.88853   0.36273   0.00000  Uiso   1.00
H1417  H     0.97223   0.84624   0.36104   0.00000  Uiso   1.00
H1418  H     0.67042   0.85682   0.64409   0.00000  Uiso   1.00
H1419  H     0.89737   0.87283   0.38725   0.00000  Uiso   1.00
H1420  H     0.95859   0.76176   0.48037   0.00000  Uiso   1.00
H1421  H     0.67859   0.74992   0.45096   0.00000  Uiso   1.00
H1422  H     0.95239   0.76021   0.37248   0.00000  Uiso   1.00
H1423  H     0.93332   0.71777   0.40820   0.00000  Uiso   1.00
H1424  H     0.90085   0.76581   0.40597   0.00000  Uiso   1.00
N1425  N     0.83335   0.83334   0.61736   0.00000  Uiso   1.00
N1426  N     0.83332   0.83332   0.38264   0.00000  Uiso   1.00
O1427  O     0.83333   0.77322   0.53958   0.00000  Uiso   1.00
O1428  O     0.67855   0.86273   0.55503   0.00000  Uiso   1.00
O1429  O     0.80580   0.96035   0.41583   0.00000  Uiso   1.00
O1430  O     0.86750   0.70727   0.58671   0.00000  Uiso   1.00
O1431  O     0.76324   0.78386   0.37335   0.00000  Uiso   1.00
O1432  O     0.90507   0.87949   0.62395   0.00000  Uiso   1.00
O1433  O     0.83334   0.89345   0.46042   0.00000  Uiso   1.00
O1434  O     0.83333   0.77321   0.46039   0.00000  Uiso   1.00
O1435  O     0.83334   0.89346   0.53961   0.00000  Uiso   1.00
O1436  O     0.75828   0.83334   0.53046   0.00000  Uiso   1.00
O1437  O     0.90839   0.83333   0.46954   0.00000  Uiso   1.00
O1438  O     0.75828   0.83333   0.45127   0.00000  Uiso   1.00
O1439  O     0.90839   0.83334   0.54873   0.00000  Uiso   1.00
O1440  O     0.98795   0.80963   0.44082   0.00000  Uiso   1.00
C1441  C     0.16968   0.08760   0.83393   0.00000  Uiso   1.00
C1442  C     0.18754   0.02111   0.87698   0.00000  Uiso   1.00
C1443  C     0.16994   0.29079   0.83305   0.00000  Uiso   1.00
C1444  C     0.17458   0.04316   0.83472   0.00000  Uiso   1.00
C1445  C     0.13168   0.14235   0.68682   0.00000  Uiso   1.00
C1446  C     0.20338   0.18947   0.97958   0.00000  Uiso   1.00
C1447  C     0.13078   0.14428   0.97017   0.00000  Uiso   1.00
C1448  C     0.20275   0.18909   0.69644   0.00000  Uiso   1.00
C1449  C     0.30973   0.10084   0.78125   0.00000  Uiso   1.00
C1450  C     0.27183   0.08507   0.73941   0.00000  Uiso   1.00
C1451  C     0.00740   0.23838   0.87721   0.00000  Uiso   1.00
C1452  C     0.16701   0.24599   0.83320   0.00000  Uiso   1.00
C1453  C     0.04789   0.26337   0.90940   0.00000  Uiso   1.00
C1454  C     0.17416   0.29599   0.71641   0.00000  Uiso   1.00
C1455  C     0.14705   0.28033   0.66925   0.00000  Uiso   1.00
C1456  C     0.25329   0.05340   0.92563   0.00000  Uiso   1.00
C1457  C     0.28742   0.01903   0.94679   0.00000  Uiso   1.00
C1458  C     0.09130   0.07767   0.68526   0.00000  Uiso   1.00
C1459  C     0.06167   0.04792   0.71330   0.00000  Uiso   1.00
C1460  C     0.27850   0.23362   0.98715   0.00000  Uiso   1.00
C1461  C     0.32077   0.20448   0.67334   0.00000  Uiso   1.00
C1462  C     0.06800   0.16555   0.82133   0.00000  Uiso   1.00
C1463  C     0.26525   0.16815   0.84526   0.00000  Uiso   1.00
C1464  C     0.01284   0.16015   0.81583   0.00000  Uiso   1.00
C1465  C     0.32044   0.17334   0.85044   0.00000  Uiso   1.00
C1466  C     0.16474   0.02218   0.79197   0.00000  Uiso   1.00
C1467  C     0.18468   0.31171   0.87569   0.00000  Uiso   1.00
C1468  C     0.16054   0.31293   0.79059   0.00000  Uiso   1.00
Cu1469 Cu    0.16667   0.16667   0.88022   0.00000  Uiso   1.00
Cu1470 Cu    0.16667   0.16666   0.78645   0.00000  Uiso   1.00
H1471  H     0.15767   0.03895   0.75935   0.00000  Uiso   1.00
H1472  H     0.30205   0.24854   0.88224   0.00000  Uiso   1.00
H1473  H     0.01348   0.24534   0.84020   0.00000  Uiso   1.00
H1474  H     0.04480   0.25686   0.94684   0.00000  Uiso   1.00
H1475  H     0.08670   0.25536   0.90274   0.00000  Uiso   1.00
H1476  H     0.04285   0.29673   0.90259   0.00000  Uiso   1.00
H1477  H     0.20728   0.27653   0.72854   0.00000  Uiso   1.00
H1478  H     0.18875   0.32793   0.71093   0.00000  Uiso   1.00
H1479  H     0.11866   0.30286   0.98710   0.00000  Uiso   1.00
H1480  H     0.17552   0.27634   0.97842   0.00000  Uiso   1.00
H1481  H     0.12698   0.25026   0.67365   0.00000  Uiso   1.00
H1482  H     0.19453   0.29492   0.90809   0.00000  Uiso   1.00
H1483  H     0.25875   0.07980   0.95047   0.00000  Uiso   1.00
H1484  H     0.26613   0.06474   0.89231   0.00000  Uiso   1.00
H1485  H     0.28538   0.32623   0.92181   0.00000  Uiso   1.00
H1486  H     0.32785   0.03065   0.95379   0.00000  Uiso   1.00
H1487  H     0.27520   0.00811   0.98034   0.00000  Uiso   1.00
H1488  H     0.12956   0.06485   0.68304   0.00000  Uiso   1.00
H1489  H     0.06881   0.07881   0.98280   0.00000  Uiso   1.00
H1490  H     0.02015   0.05280   0.70476   0.00000  Uiso   1.00
H1491  H     0.06844   0.01575   0.70374   0.00000  Uiso   1.00
H1492  H     0.07344   0.05225   0.75162   0.00000  Uiso   1.00
H1493  H     0.10160   0.12788   0.94644   0.00000  Uiso   1.00
H1494  H     0.26492   0.25204   0.68158   0.00000  Uiso   1.00
H1495  H     0.29561   0.25710   0.96550   0.00000  Uiso   1.00
H1496  H     0.01856   0.22186   0.69606   0.00000  Uiso   1.00
H1497  H     0.30556   0.17958   0.69438   0.00000  Uiso   1.00
H1498  H     0.00375   0.19016   0.97742   0.00000  Uiso   1.00
H1499  H     0.23070   0.20617   0.72059   0.00000  Uiso   1.00
H1500  H     0.29192   0.09509   0.81370   0.00000  Uiso   1.00
H1501  H     0.01193   0.08325   0.78429   0.00000  Uiso   1.00
H1502  H     0.28572   0.09355   0.70582   0.00000  Uiso   1.00
H1503  H     0.26666   0.05110   0.74153   0.00000  Uiso   1.00
H1504  H     0.23418   0.09914   0.73930   0.00000  Uiso   1.00
N1505  N     0.16668   0.16668   0.95069   0.00000  Uiso   1.00
N1506  N     0.16665   0.16666   0.71597   0.00000  Uiso   1.00
O1507  O     0.16666   0.10655   0.87291   0.00000  Uiso   1.00
O1508  O     0.01189   0.19606   0.88836   0.00000  Uiso   1.00
O1509  O     0.13913   0.29368   0.74917   0.00000  Uiso   1.00
O1510  O     0.20083   0.04060   0.92004   0.00000  Uiso   1.00
O1511  O     0.09657   0.11719   0.70668   0.00000  Uiso   1.00
O1512  O     0.23840   0.21282   0.95728   0.00000  Uiso   1.00
O1513  O     0.16667   0.22678   0.79375   0.00000  Uiso   1.00
O1514  O     0.16666   0.10654   0.79372   0.00000  Uiso   1.00
O1515  O     0.16667   0.22679   0.87294   0.00000  Uiso   1.00
O1516  O     0.09161   0.16667   0.86379   0.00000  Uiso   1.00
O1517  O     0.24172   0.16666   0.80288   0.00000  Uiso   1.00
O1518  O     0.09161   0.16666   0.78460   0.00000  Uiso   1.00
O1519  O     0.24172   0.16667   0.88207   0.00000  Uiso   1.00
O1520  O     0.32129   0.14297   0.77415   0.00000  Uiso   1.00
C1521  C     0.50301   0.08760   0.83393   0.00000  Uiso   1.00
C1522  C     0.52087   0.02111   0.87698   0.00000  Uiso   1.00
C1523  C     0.50328   0.29079   0.83305   0.00000  Uiso   1.00
C1524  C     0.50791   0.04316   0.83472   0.00000  Uiso   1.00
C1525  C     0.46501   0.14235   0.68682   0.00000  Uiso   1.00
C1526  C     0.53671   0.18947   0.97958   0.00000  Uiso   1.00
C1527  C     0.46411   0.14428   0.97017   0.00000  Uiso   1.00
C1528  C     0.53609   0.18909   0.69644   0.00000  Uiso   1.00
C1529  C     0.64306   0.10084   0.78125   0.00000  Uiso   1.00
C1530  C     0.60517   0.08507   0.73941   0.00000  Uiso   1.00
C1531  C     0.34074   0.23838   0.87721   0.00000  Uiso   1.00
C1532  C     0.50034   0.24599   0.83320   0.00000  Uiso   1.00
C1533  C     0.38122   0.26337   0.90940   0.00000  Uiso   1.00
C1534  C     0.50749   0.29599   0.71641   0.00000  Uiso   1.00
C1535  C     0.48038   0.28033   0.66925   0.00000  Uiso   1.00
C1536  C     0.58663   0.05340   0.92563   0.00000  Uiso   1.00
C1537  C     0.62075   0.01903   0.94679   0.00000  Uiso   1.00
C1538  C     0.42464   0.07767   0.68526   0.00000  Uiso   1.00
C1539  C     0.39501   0.04792   0.71330   0.00000  Uiso   1.00
C1540  C     0.61184   0.23362   0.98715   0.00000  Uiso   1.00
C1541  C     0.65410   0.20448   0.67334   0.00000  Uiso   1.00
C1542  C     0.40133   0.16555   0.82133   0.00000  Uiso   1.00
C1543  C     0.59859   0.16815   0.84526   0.00000  Uiso   1.00
C1544  C     0.34618   0.16015   0.81583   0.00000  Uiso   1.00
C1545  C     0.65377   0.17334   0.85044   0.00000  Uiso   1.00
C1546  C     0.49807   0.02218   0.79197   0.00000  Uiso   1.00
C1547  C     0.51801   0.31171   0.87569   0.00000  Uiso   1.00
C1548  C     0.49387   0.31293   0.79059   0.00000  Uiso   1.00
Cu1549 Cu    0.50000   0.16667   0.88022   0.00000  Uiso   1.00
Cu1550 Cu    0.50000   0.16666   0.78645   0.00000  Uiso   1.00
H1551  H     0.49100   0.03895   0.75935   0.00000  Uiso   1.00
H1552  H     0.63538   0.24854   0.88224   0.00000  Uiso   1.00
H1553  H     0.34682   0.24534   0.84020   0.00000  Uiso   1.00
H1554  H     0.37813   0.25686   0.94684   0.00000  Uiso   1.00
H1555  H     0.42003   0.25536   0.90274   0.00000  Uiso   1.00
H1556  H     0.37619   0.29673   0.90259   0.00000  Uiso   1.00
H1557  H     0.54061   0.27653   0.72854   0.00000  Uiso   1.00
H1558  H     0.52208   0.32793   0.71093   0.00000  Uiso   1.00
H1559  H     0.45199   0.30286   0.98710   0.00000  Uiso   1.00
H1560  H     0.50886   0.27634   0.97842   0.00000  Uiso   1.00
H1561  H     0.46031   0.25026   0.67365   0.00000  Uiso   1.00
H1562  H     0.52787   0.29492   0.90809   0.00000  Uiso   1.00
H1563  H     0.59208   0.07980   0.95047   0.00000  Uiso   1.00
H1564  H     0.59947   0.06474   0.89231   0.00000  Uiso   1.00
H1565  H     0.61872   0.32623   0.92181   0.00000  Uiso   1.00
H1566  H     0.66118   0.03065   0.95379   0.00000  Uiso   1.00
H1567  H     0.60853   0.00811   0.98034   0.00000  Uiso   1.00
H1568  H     0.46289   0.06485   0.68304   0.00000  Uiso   1.00
H1569  H     0.40214   0.07881   0.98280   0.00000  Uiso   1.00
H1570  H     0.35348   0.05280   0.70476   0.00000  Uiso   1.00
H1571  H     0.40177   0.01575   0.70374   0.00000  Uiso   1.00
H1572  H     0.40677   0.05225   0.75162   0.00000  Uiso   1.00
H1573  H     0.43494   0.12788   0.94644   0.00000  Uiso   1.00
H1574  H     0.59826   0.25204   0.68158   0.00000  Uiso   1.00
H1575  H     0.62894   0.25710   0.96550   0.00000  Uiso   1.00
H1576  H     0.35189   0.22186   0.69606   0.00000  Uiso   1.00
H1577  H     0.63890   0.17958   0.69438   0.00000  Uiso   1.00
H1578  H     0.33709   0.19016   0.97742   0.00000  Uiso   1.00
H1579  H     0.56404   0.20617   0.72059   0.00000  Uiso   1.00
H1580  H     0.62525   0.09509   0.81370   0.00000  Uiso   1.00
H1581  H     0.34526   0.08325   0.78429   0.00000  Uiso   1.00
H1582  H     0.61905   0.09355   0.70582   0.00000  Uiso   1.00
H1583  H     0.59999   0.05110   0.74153   0.00000  Uiso   1.00
H1584  H     0.56751   0.09914   0.73930   0.00000  Uiso   1.00
N1585  N     0.50001   0.16668   0.95069   0.00000  Uiso   1.00
N1586  N     0.49999   0.16666   0.71597   0.00000  Uiso   1.00
O1587  O     0.50000   0.10655   0.87291   0.00000  Uiso   1.00
O1588  O     0.34522   0.19606   0.88836   0.00000  Uiso   1.00
O1589  O     0.47247   0.29368   0.74917   0.00000  Uiso   1.00
O1590  O     0.53417   0.04060   0.92004   0.00000  Uiso   1.00
O1591  O     0.42991   0.11719   0.70668   0.00000  Uiso   1.00
O1592  O     0.57173   0.21282   0.95728   0.00000  Uiso   1.00
O1593  O     0.50000   0.22678   0.79375   0.00000  Uiso   1.00
O1594  O     0.50000   0.10654   0.79372   0.00000  Uiso   1.00
O1595  O     0.50000   0.22679   0.87294   0.00000  Uiso   1.00
O1596  O     0.42495   0.16667   0.86379   0.00000  Uiso   1.00
O1597  O     0.57505   0.16666   0.80288   0.00000  Uiso   1.00
O1598  O     0.42494   0.16666   0.78460   0.00000  Uiso   1.00
O1599  O     0.57506   0.16667   0.88207   0.00000  Uiso   1.00
O1600  O     0.65462   0.14297   0.77415   0.00000  Uiso   1.00
C1601  C     0.83635   0.08760   0.83393   0.00000  Uiso   1.00
C1602  C     0.85421   0.02111   0.87698   0.00000  Uiso   1.00
C1603  C     0.83661   0.29079   0.83305   0.00000  Uiso   1.00
C1604  C     0.84124   0.04316   0.83472   0.00000  Uiso   1.00
C1605  C     0.79834   0.14235   0.68682   0.00000  Uiso   1.00
C1606  C     0.87004   0.18947   0.97958   0.00000  Uiso   1.00
C1607  C     0.79744   0.14428   0.97017   0.00000  Uiso   1.00
C1608  C     0.86942   0.18909   0.69644   0.00000  Uiso   1.00
C1609  C     0.97639   0.10084   0.78125   0.00000  Uiso   1.00
C1610  C     0.93850   0.08507   0.73941   0.00000  Uiso   1.00
C1611  C     0.67407   0.23838   0.87721   0.00000  Uiso   1.00
C1612  C     0.83368   0.24599   0.83320   0.00000  Uiso   1.00
C1613  C     0.71455   0.26337   0.90940   0.00000  Uiso   1.00
C1614  C     0.84082   0.29599   0.71641   0.00000  Uiso   1.00
C1615  C     0.81372   0.28033   0.66925   0.00000  Uiso   1.00
C1616  C     0.91996   0.05340   0.92563   0.00000  Uiso   1.00
C1617  C     0.95408   0.01903   0.94679   0.00000  Uiso   1.00
C1618  C     0.75797   0.07767   0.68526   0.00000  Uiso   1.00
C1619  C     0.72834   0.04792   0.71330   0.00000  Uiso   1.00
C1620  C     0.94517   0.23362   0.98715   0.00000  Uiso   1.00
C1621  C     0.98744   0.20448   0.67334   0.00000  Uiso   1.00
C1622  C     0.73467   0.16555   0.82133   0.00000  Uiso   1.00
C1623  C     0.93192   0.16815   0.84526   0.00000  Uiso   1.00
C1624  C     0.67951   0.16015   0.81583   0.00000  Uiso   1.00
C1625  C     0.98710   0.17334   0.85044   0.00000  Uiso   1.00
C1626  C     0.83140   0.02218   0.79197   0.00000  Uiso   1.00
C1627  C     0.85135   0.31171   0.87569   0.00000  Uiso   1.00
C1628  C     0.82721   0.31293   0.79059   0.00000  Uiso   1.00
Cu1629 Cu    0.83333   0.16667   0.88022   0.00000  Uiso   1.00
Cu1630 Cu    0.83333   0.16666   0.78645   0.00000  Uiso   1.00
H1631  H     0.82434   0.03895   0.75935   0.00000  Uiso   1.00
H1632  H     0.96871   0.24854   0.88224   0.00000  Uiso   1.00
H1633  H     0.68015   0.24534   0.84020   0.00000  Uiso   1.00
H1634  H     0.71147   0.25686   0.94684   0.00000  Uiso   1.00
H1635  H     0.75336   0.25536   0.90274   0.00000  Uiso   1.00
H1636  H     0.70952   0.29673   0.90259   0.00000  Uiso   1.00
H1637  H     0.87395   0.27653   0.72854   0.00000  Uiso   1.00
H1638  H     0.85542   0.32793   0.71093   0.00000  Uiso   1.00
H1639  H     0.78532   0.30286   0.98710   0.00000  Uiso   1.00
H1640  H     0.84219   0.27634   0.97842   0.00000  Uiso   1.00
H1641  H     0.79365   0.25026   0.67365   0.00000  Uiso   1.00
H1642  H     0.86120   0.29492   0.90809   0.00000  Uiso   1.00
H1643  H     0.92542   0.07980   0.95047   0.00000  Uiso   1.00
H1644  H     0.93280   0.06474   0.89231   0.00000  Uiso   1.00
H1645  H     0.95205   0.32623   0.92181   0.00000  Uiso   1.00
H1646  H     0.99452   0.03065   0.95379   0.00000  Uiso   1.00
H1647  H     0.94187   0.00811   0.98034   0.00000  Uiso   1.00
H1648  H     0.79622   0.06485   0.68304   0.00000  Uiso   1.00
H1649  H     0.73547   0.07881   0.98280   0.00000  Uiso   1.00
H1650  H     0.68681   0.05280   0.70476   0.00000  Uiso   1.00
H1651  H     0.73511   0.01575   0.70374   0.00000  Uiso   1.00
H1652  H     0.74011   0.05225   0.75162   0.00000  Uiso   1.00
H1653  H     0.76827   0.12788   0.94644   0.00000  Uiso   1.00
H1654  H     0.93159   0.25204   0.68158   0.00000  Uiso   1.00
H1655  H     0.96227   0.25710   0.96550   0.00000  Uiso   1.00
H1656  H     0.68523   0.22186   0.69606   0.00000  Uiso   1.00
H1657  H     0.97223   0.17958   0.69438   0.00000  Uiso   1.00
H1658  H     0.67042   0.19016   0.97742   0.00000  Uiso   1.00
H1659  H     0.89737   0.20617   0.72059   0.00000  Uiso   1.00
H1660  H     0.95859   0.09509   0.81370   0.00000  Uiso   1.00
H1661  H     0.67859   0.08325   0.78429   0.00000  Uiso   1.00
H1662  H     0.95239   0.09355   0.70582   0.00000  Uiso   1.00
H1663  H     0.93332   0.05110   0.74153   0.00000  Uiso   1.00
H1664  H     0.90085   0.09914   0.73930   0.00000  Uiso   1.00
N1665  N     0.83335   0.16668   0.95069   0.00000  Uiso   1.00
N1666  N     0.83332   0.16666   0.71597   0.00000  Uiso   1.00
O1667  O     0.83333   0.10655   0.87291   0.00000  Uiso   1.00
O1668  O     0.67855   0.19606   0.88836   0.00000  Uiso   1.00
O1669  O     0.80580   0.29368   0.74917   0.00000  Uiso   1.00
O1670  O     0.86750   0.04060   0.92004   0.00000  Uiso   1.00
O1671  O     0.76324   0.11719   0.70668   0.00000  Uiso   1.00
O1672  O     0.90507   0.21282   0.95728   0.00000  Uiso   1.00
O1673  O     0.83334   0.22678   0.79375   0.00000  Uiso   1.00
O1674  O     0.83333   0.10654   0.79372   0.00000  Uiso   1.00
O1675  O     0.83334   0.22679   0.87294   0.00000  Uiso   1.00
O1676  O     0.75828   0.16667   0.86379   0.00000  Uiso   1.00
O1677  O     0.90839   0.16666   0.80288   0.00000  Uiso   1.00
O1678  O     0.75828   0.16666   0.78460   0.00000  Uiso   1.00
O1679  O     0.90839   0.16667   0.88207   0.00000  Uiso   1.00
O1680  O     0.98795   0.14297   0.77415   0.00000  Uiso   1.00
C1681  C     0.16968   0.42093   0.83393   0.00000  Uiso   1.00
C1682  C     0.18754   0.35445   0.87698   0.00000  Uiso   1.00
C1683  C     0.16994   0.62412   0.83305   0.00000  Uiso   1.00
C1684  C     0.17458   0.37649   0.83472   0.00000  Uiso   1.00
C1685  C     0.13168   0.47568   0.68682   0.00000  Uiso   1.00
C1686  C     0.20338   0.52280   0.97958   0.00000  Uiso   1.00
C1687  C     0.13078   0.47762   0.97017   0.00000  Uiso   1.00
C1688  C     0.20275   0.52243   0.69644   0.00000  Uiso   1.00
C1689  C     0.30973   0.43417   0.78125   0.00000  Uiso   1.00
C1690  C     0.27183   0.41840   0.73941   0.00000  Uiso   1.00
C1691  C     0.00740   0.57171   0.87721   0.00000  Uiso   1.00
C1692  C     0.16701   0.57932   0.83320   0.00000  Uiso   1.00
C1693  C     0.04789   0.59670   0.90940   0.00000  Uiso   1.00
C1694  C     0.17416   0.62932   0.71641   0.00000  Uiso   1.00
C1695  C     0.14705   0.61366   0.66925   0.00000  Uiso   1.00
C1696  C     0.25329   0.38673   0.92563   0.00000  Uiso   1.00
C1697  C     0.28742   0.35236   0.94679   0.00000  Uiso   1.00
C1698  C     0.09130   0.41100   0.68526   0.00000  Uiso   1.00
C1699  C     0.06167   0.38126   0.71330   0.00000  Uiso   1.00
C1700  C     0.27850   0.56696   0.98715   0.00000  Uiso   1.00
C1701  C     0.32077   0.53781   0.67334   0.00000  Uiso   1.00
C1702  C     0.06800   0.49888   0.82133   0.00000  Uiso   1.00
C1703  C     0.26525   0.50148   0.84526   0.00000  Uiso   1.00
C1704  C     0.01284   0.49349   0.81583   0.00000  Uiso   1.00
C1705  C     0.32044   0.50668   0.85044   0.00000  Uiso   1.00
C1706  C     0.16474   0.35552   0.79197   0.00000  Uiso   1.00
C1707  C     0.18468   0.64504   0.87569   0.00000  Uiso   1.00
C1708  C     0.16054   0.64626   0.79059   0.00000  Uiso   1.00
Cu1709 Cu    0.16667   0.50001   0.88022   0.00000  Uiso   1.00
Cu1710 Cu    0.16667   0.49999   0.78645   0.00000  Uiso   1.00
H1711  H     0.15767   0.37228   0.75935   0.00000  Uiso   1.00
H1712  H     0.30205   0.58188   0.88224   0.00000  Uiso   1.00
H1713  H     0.01348   0.57867   0.84020   0.00000  Uiso   1.00
H1714  H     0.04480   0.59019   0.94684   0.00000  Uiso   1.00
H1715  H     0.08670   0.58870   0.90274   0.00000  Uiso   1.00
H1716  H     0.04285   0.63006   0.90259   0.00000  Uiso   1.00
H1717  H     0.20728   0.60986   0.72854   0.00000  Uiso   1.00
H1718  H     0.18875   0.66126   0.71093   0.00000  Uiso   1.00
H1719  H     0.11866   0.63620   0.98710   0.00000  Uiso   1.00
H1720  H     0.17552   0.60967   0.97842   0.00000  Uiso   1.00
H1721  H     0.12698   0.58360   0.67365   0.00000  Uiso   1.00
H1722  H     0.19453   0.62825   0.90809   0.00000  Uiso   1.00
H1723  H     0.25875   0.41313   0.95047   0.00000  Uiso   1.00
H1724  H     0.26613   0.39807   0.89231   0.00000  Uiso   1.00
H1725  H     0.28538   0.65957   0.92181   0.00000  Uiso   1.00
H1726  H     0.32785   0.36399   0.95379   0.00000  Uiso   1.00
H1727  H     0.27520   0.34145   0.98034   0.00000  Uiso   1.00
H1728  H     0.12956   0.39818   0.68304   0.00000  Uiso   1.00
H1729  H     0.06881   0.41215   0.98280   0.00000  Uiso   1.00
H1730  H     0.02015   0.38613   0.70476   0.00000  Uiso   1.00
H1731  H     0.06844   0.34908   0.70374   0.00000  Uiso   1.00
H1732  H     0.07344   0.38558   0.75162   0.00000  Uiso   1.00
H1733  H     0.10160   0.46121   0.94644   0.00000  Uiso   1.00
H1734  H     0.26492   0.58538   0.68158   0.00000  Uiso   1.00
H1735  H     0.29561   0.59043   0.96550   0.00000  Uiso   1.00
H1736  H     0.01856   0.55520   0.69606   0.00000  Uiso   1.00
H1737  H     0.30556   0.51291   0.69438   0.00000  Uiso   1.00
H1738  H     0.00375   0.52349   0.97742   0.00000  Uiso   1.00
H1739  H     0.23070   0.53950   0.72059   0.00000  Uiso   1.00
H1740  H     0.29192   0.42842   0.81370   0.00000  Uiso   1.00
H1741  H     0.01193   0.41659   0.78429   0.00000  Uiso   1.00
H1742  H     0.28572   0.42688   0.70582   0.00000  Uiso   1.00
H1743  H     0.26666   0.38443   0.74153   0.00000  Uiso   1.00
H1744  H     0.23418   0.43247   0.73930   0.00000  Uiso   1.00
N1745  N     0.16668   0.50001   0.95069   0.00000  Uiso   1.00
N1746  N     0.16665   0.49999   0.71597   0.00000  Uiso   1.00
O1747  O     0.16666   0.43989   0.87291   0.00000  Uiso   1.00
O1748  O     0.01189   0.52940   0.88836   0.00000  Uiso   1.00
O1749  O     0.13913   0.62701   0.74917   0.00000  Uiso   1.00
O1750  O     0.20083   0.37394   0.92004   0.00000  Uiso   1.00
O1751  O     0.09657   0.45053   0.70668   0.00000  Uiso   1.00
O1752  O     0.23840   0.54616   0.95728   0.00000  Uiso   1.00
O1753  O     0.16667   0.56011   0.79375   0.00000  Uiso   1.00
O1754  O     0.16666   0.43988   0.79372   0.00000  Uiso   1.00
O1755  O     0.16667   0.56012   0.87294   0.00000  Uiso   1.00
O1756  O     0.09161   0.50000   0.86379   0.00000  Uiso   1.00
O1757  O     0.24172   0.50000   0.80288   0.00000  Uiso   1.00
O1758  O     0.09161   0.49999   0.78460   0.00000  Uiso   1.00
O1759  O     0.24172   0.50001   0.88207   0.00000  Uiso   1.00
O1760  O     0.32129   0.47630   0.77415   0.00000  Uiso   1.00
C1761  C     0.50301   0.42093   0.83393   0.00000  Uiso   1.00
C1762  C     0.52087   0.35445   0.87698   0.00000  Uiso   1.00
C1763  C     0.50328   0.62412   0.83305   0.00000  Uiso   1.00
C1764  C     0.50791   0.37649   0.83472   0.00000  Uiso   1.00
C1765  C     0.46501   0.47568   0.68682   0.00000  Uiso   1.00
C1766  C     0.53671   0.52280   0.97958   0.00000  Uiso   1.00
C1767  C     0.46411   0.47762   0.97017   0.00000  Uiso   1.00
C1768  C     0.53609   0.52243   0.69644   0.00000  Uiso   1.00
C1769  C     0.64306   0.43417   0.78125   0.00000  Uiso   1.00
C1770  C     0.60517   0.41840   0.73941   0.00000  Uiso   1.00
C1771  C     0.34074   0.57171   0.87721   0.00000  Uiso   1.00
C1772  C     0.50034   0.57932   0.83320   0.00000  Uiso   1.00
C1773  C     0.38122   0.59670   0.90940   0.00000  Uiso   1.00
C1774  C     0.50749   0.62932   0.71641   0.00000  Uiso   1.00
C1775  C     0.48038   0.61366   0.66925   0.00000  Uiso   1.00
C1776  C     0.58663   0.38673   0.92563   0.00000  Uiso   1.00
C1777  C     0.62075   0.35236   0.94679   0.00000  Uiso   1.00
C1778  C     0.42464   0.41100   0.68526   0.00000  Uiso   1.00
C1779  C     0.39501   0.38126   0.71330   0.00000  Uiso   1.00
C1780  C     0.61184   0.56696   0.98715   0.00000  Uiso   1.00
C1781  C     0.65410   0.53781   0.67334   0.00000  Uiso   1.00
C1782  C     0.40133   0.49888   0.82133   0.00000  Uiso   1.00
C1783  C     0.59859   0.50148   0.84526   0.00000  Uiso   1.00
C1784  C     0.34618   0.49349   0.81583   0.00000  Uiso   1.00
C1785  C     0.65377   0.50668   0.85044   0.00000  Uiso   1.00
C1786  C     0.49807   0.35552   0.79197   0.00000  Uiso   1.00
C1787  C     0.51801   0.64504   0.87569   0.00000  Uiso   1.00
C1788  C     0.49387   0.64626   0.79059   0.00000  Uiso   1.00
Cu1789 Cu    0.50000   0.50001   0.88022   0.00000  Uiso   1.00
Cu1790 Cu    0.50000   0.49999   0.78645   0.00000  Uiso   1.00
H1791  H     0.49100   0.37228   0.75935   0.00000  Uiso   1.00
H1792  H     0.63538   0.58188   0.88224   0.00000  Uiso   1.00
H1793  H     0.34682   0.57867   0.84020   0.00000  Uiso   1.00
H1794  H     0.37813   0.59019   0.94684   0.00000  Uiso   1.00
H1795  H     0.42003   0.58870   0.90274   0.00000  Uiso   1.00
H1796  H     0.37619   0.63006   0.90259   0.00000  Uiso   1.00
H1797  H     0.54061   0.60986   0.72854   0.00000  Uiso   1.00
H1798  H     0.52208   0.66126   0.71093   0.00000  Uiso   1.00
H1799  H     0.45199   0.63620   0.98710   0.00000  Uiso   1.00
H1800  H     0.50886   0.60967   0.97842   0.00000  Uiso   1.00
H1801  H     0.46031   0.58360   0.67365   0.00000  Uiso   1.00
H1802  H     0.52787   0.62825   0.90809   0.00000  Uiso   1.00
H1803  H     0.59208   0.41313   0.95047   0.00000  Uiso   1.00
H1804  H     0.59947   0.39807   0.89231   0.00000  Uiso   1.00
H1805  H     0.61872   0.65957   0.92181   0.00000  Uiso   1.00
H1806  H     0.66118   0.36399   0.95379   0.00000  Uiso   1.00
H1807  H     0.60853   0.34145   0.98034   0.00000  Uiso   1.00
H1808  H     0.46289   0.39818   0.68304   0.00000  Uiso   1.00
H1809  H     0.40214   0.41215   0.98280   0.00000  Uiso   1.00
H1810  H     0.35348   0.38613   0.70476   0.00000  Uiso   1.00
H1811  H     0.40177   0.34908   0.70374   0.00000  Uiso   1.00
H1812  H     0.40677   0.38558   0.75162   0.00000  Uiso   1.00
H1813  H     0.43494   0.46121   0.94644   0.00000  Uiso   1.00
H1814  H     0.59826   0.58538   0.68158   0.00000  Uiso   1.00
H1815  H     0.62894   0.59043   0.96550   0.00000  Uiso   1.00
H1816  H     0.35189   0.55520   0.69606   0.00000  Uiso   1.00
H1817  H     0.63890   0.51291   0.69438   0.00000  Uiso   1.00
H1818  H     0.33709   0.52349   0.97742   0.00000  Uiso   1.00
H1819  H     0.56404   0.53950   0.72059   0.00000  Uiso   1.00
H1820  H     0.62525   0.42842   0.81370   0.00000  Uiso   1.00
H1821  H     0.34526   0.41659   0.78429   0.00000  Uiso   1.00
H1822  H     0.61905   0.42688   0.70582   0.00000  Uiso   1.00
H1823  H     0.59999   0.38443   0.74153   0.00000  Uiso   1.00
H1824  H     0.56751   0.43247   0.73930   0.00000  Uiso   1.00
N1825  N     0.50001   0.50001   0.95069   0.00000  Uiso   1.00
N1826  N     0.49999   0.49999   0.71597   0.00000  Uiso   1.00
O1827  O     0.50000   0.43989   0.87291   0.00000  Uiso   1.00
O1828  O     0.34522   0.52940   0.88836   0.00000  Uiso   1.00
O1829  O     0.47247   0.62701   0.74917   0.00000  Uiso   1.00
O1830  O     0.53417   0.37394   0.92004   0.00000  Uiso   1.00
O1831  O     0.42991   0.45053   0.70668   0.00000  Uiso   1.00
O1832  O     0.57173   0.54616   0.95728   0.00000  Uiso   1.00
O1833  O     0.50000   0.56011   0.79375   0.00000  Uiso   1.00
O1834  O     0.50000   0.43988   0.79372   0.00000  Uiso   1.00
O1835  O     0.50000   0.56012   0.87294   0.00000  Uiso   1.00
O1836  O     0.42495   0.50000   0.86379   0.00000  Uiso   1.00
O1837  O     0.57505   0.50000   0.80288   0.00000  Uiso   1.00
O1838  O     0.42494   0.49999   0.78460   0.00000  Uiso   1.00
O1839  O     0.57506   0.50001   0.88207   0.00000  Uiso   1.00
O1840  O     0.65462   0.47630   0.77415   0.00000  Uiso   1.00
C1841  C     0.83635   0.42093   0.83393   0.00000  Uiso   1.00
C1842  C     0.85421   0.35445   0.87698   0.00000  Uiso   1.00
C1843  C     0.83661   0.62412   0.83305   0.00000  Uiso   1.00
C1844  C     0.84124   0.37649   0.83472   0.00000  Uiso   1.00
C1845  C     0.79834   0.47568   0.68682   0.00000  Uiso   1.00
C1846  C     0.87004   0.52280   0.97958   0.00000  Uiso   1.00
C1847  C     0.79744   0.47762   0.97017   0.00000  Uiso   1.00
C1848  C     0.86942   0.52243   0.69644   0.00000  Uiso   1.00
C1849  C     0.97639   0.43417   0.78125   0.00000  Uiso   1.00
C1850  C     0.93850   0.41840   0.73941   0.00000  Uiso   1.00
C1851  C     0.67407   0.57171   0.87721   0.00000  Uiso   1.00
C1852  C     0.83368   0.57932   0.83320   0.00000  Uiso   1.00
C1853  C     0.71455   0.59670   0.90940   0.00000  Uiso   1.00
C1854  C     0.84082   0.62932   0.71641   0.00000  Uiso   1.00
C1855  C     0.81372   0.61366   0.66925   0.00000  Uiso   1.00
C1856  C     0.91996   0.38673   0.92563   0.00000  Uiso   1.00
C1857  C     0.95408   0.35236   0.94679   0.00000  Uiso   1.00
C1858  C     0.75797   0.41100   0.68526   0.00000  Uiso   1.00
C1859  C     0.72834   0.38126   0.71330   0.00000  Uiso   1.00
C1860  C     0.94517   0.56696   0.98715   0.00000  Uiso   1.00
C1861  C     0.98744   0.53781   0.67334   0.00000  Uiso   1.00
C1862  C     0.73467   0.49888   0.82133   0.00000  Uiso   1.00
C1863  C     0.93192   0.50148   0.84526   0.00000  Uiso   1.00
C1864  C     0.67951   0.49349   0.81583   0.00000  Uiso   1.00
C1865  C     0.98710   0.50668   0.85044   0.00000  Uiso   1.00
C1866  C     0.83140   0.35552   0.79197   0.00000  Uiso   1.00
C1867  C     0.85135   0.64504   0.87569   0.00000  Uiso   1.00
C1868  C     0.82721   0.64626   0.79059   0.00000  Uiso   1.00
Cu1869 Cu    0.83333   0.50001   0.88022   0.00000  Uiso   1.00
Cu1870 Cu    0.83333   0.49999   0.78645   0.00000  Uiso   1.00
H1871  H     0.82434   0.37228   0.75935   0.00000  Uiso   1.00
H1872  H     0.96871   0.58188   0.88224   0.00000  Uiso   1.00
H1873  H     0.68015   0.57867   0.84020   0.00000  Uiso   1.00
H1874  H     0.71147   0.59019   0.94684   0.00000  Uiso   1.00
H1875  H     0.75336   0.58870   0.90274   0.00000  Uiso   1.00
H1876  H     0.70952   0.63006   0.90259   0.00000  Uiso   1.00
H1877  H     0.87395   0.60986   0.72854   0.00000  Uiso   1.00
H1878  H     0.85542   0.66126   0.71093   0.00000  Uiso   1.00
H1879  H     0.78532   0.63620   0.98710   0.00000  Uiso   1.00
H1880  H     0.84219   0.60967   0.97842   0.00000  Uiso   1.00
H1881  H     0.79365   0.58360   0.67365   0.00000  Uiso   1.00
H1882  H     0.86120   0.62825   0.90809   0.00000  Uiso   1.00
H1883  H     0.92542   0.41313   0.95047   0.00000  Uiso   1.00
H1884  H     0.93280   0.39807   0.89231   0.00000  Uiso   1.00
H1885  H     0.95205   0.65957   0.92181   0.00000  Uiso   1.00
H1886  H     0.99452   0.36399   0.95379   0.00000  Uiso   1.00
H1887  H     0.94187   0.34145   0.98034   0.00000  Uiso   1.00
H1888  H     0.79622   0.39818   0.68304   0.00000  Uiso   1.00
H1889  H     0.73547   0.41215   0.98280   0.00000  Uiso   1.00
H1890  H     0.68681   0.38613   0.70476   0.00000  Uiso   1.00
H1891  H     0.73511   0.34908   0.70374   0.00000  Uiso   1.00
H1892  H     0.74011   0.38558   0.75162   0.00000  Uiso   1.00
H1893  H     0.76827   0.46121   0.94644   0.00000  Uiso   1.00
H1894  H     0.93159   0.58538   0.68158   0.00000  Uiso   1.00
H1895  H     0.96227   0.59043   0.96550   0.00000  Uiso   1.00
H1896  H     0.68523   0.55520   0.69606   0.00000  Uiso   1.00
H1897  H     0.97223   0.51291   0.69438   0.00000  Uiso   1.00
H1898  H     0.67042   0.52349   0.97742   0.00000  Uiso   1.00
H1899  H     0.89737   0.53950   0.72059   0.00000  Uiso   1.00
H1900  H     0.95859   0.42842   0.81370   0.00000  Uiso   1.00
H1901  H     0.67859   0.41659   0.78429   0.00000  Uiso   1.00
H1902  H     0.95239   0.42688   0.70582   0.00000  Uiso   1.00
H1903  H     0.93332   0.38443   0.74153   0.00000  Uiso   1.00
H1904  H     0.90085   0.43247   0.73930   0.00000  Uiso   1.00
N1905  N     0.83335   0.50001   0.95069   0.00000  Uiso   1.00
N1906  N     0.83332   0.49999   0.71597   0.00000  Uiso   1.00
O1907  O     0.83333   0.43989   0.87291   0.00000  Uiso   1.00
O1908  O     0.67855   0.52940   0.88836   0.00000  Uiso   1.00
O1909  O     0.80580   0.62701   0.74917   0.00000  Uiso   1.00
O1910  O     0.86750   0.37394   0.92004   0.00000  Uiso   1.00
O1911  O     0.76324   0.45053   0.70668   0.00000  Uiso   1.00
O1912  O     0.90507   0.54616   0.95728   0.00000  Uiso   1.00
O1913  O     0.83334   0.56011   0.79375   0.00000  Uiso   1.00
O1914  O     0.83333   0.43988   0.79372   0.00000  Uiso   1.00
O1915  O     0.83334   0.56012   0.87294   0.00000  Uiso   1.00
O1916  O     0.75828   0.50000   0.86379   0.00000  Uiso   1.00
O1917  O     0.90839   0.50000   0.80288   0.00000  Uiso   1.00
O1918  O     0.75828   0.49999   0.78460   0.00000  Uiso   1.00
O1919  O     0.90839   0.50001   0.88207   0.00000  Uiso   1.00
O1920  O     0.98795   0.47630   0.77415   0.00000  Uiso   1.00
C1921  C     0.16968   0.75426   0.83393   0.00000  Uiso   1.00
C1922  C     0.18754   0.68778   0.87698   0.00000  Uiso   1.00
C1923  C     0.16994   0.95745   0.83305   0.00000  Uiso   1.00
C1924  C     0.17458   0.70983   0.83472   0.00000  Uiso   1.00
C1925  C     0.13168   0.80902   0.68682   0.00000  Uiso   1.00
C1926  C     0.20338   0.85614   0.97958   0.00000  Uiso   1.00
C1927  C     0.13078   0.81095   0.97017   0.00000  Uiso   1.00
C1928  C     0.20275   0.85576   0.69644   0.00000  Uiso   1.00
C1929  C     0.30973   0.76751   0.78125   0.00000  Uiso   1.00
C1930  C     0.27183   0.75173   0.73941   0.00000  Uiso   1.00
C1931  C     0.00740   0.90505   0.87721   0.00000  Uiso   1.00
C1932  C     0.16701   0.91266   0.83320   0.00000  Uiso   1.00
C1933  C     0.04789   0.93003   0.90940   0.00000  Uiso   1.00
C1934  C     0.17416   0.96266   0.71641   0.00000  Uiso   1.00
C1935  C     0.14705   0.94700   0.66925   0.00000  Uiso   1.00
C1936  C     0.25329   0.72006   0.92563   0.00000  Uiso   1.00
C1937  C     0.28742   0.68570   0.94679   0.00000  Uiso   1.00
C1938  C     0.09130   0.74433   0.68526   0.00000  Uiso   1.00
C1939  C     0.06167   0.71459   0.71330   0.00000  Uiso   1.00
C1940  C     0.27850   0.90029   0.98715   0.00000  Uiso   1.00
C1941  C     0.32077   0.87115   0.67334   0.00000  Uiso   1.00
C1942  C     0.06800   0.83221   0.82133   0.00000  Uiso   1.00
C1943  C     0.26525   0.83482   0.84526   0.00000  Uiso   1.00
C1944  C     0.01284   0.82682   0.81583   0.00000  Uiso   1.00
C1945  C     0.32044   0.84001   0.85044   0.00000  Uiso   1.00
C1946  C     0.16474   0.68885   0.79197   0.00000  Uiso   1.00
C1947  C     0.18468   0.97837   0.87569   0.00000  Uiso   1.00
C1948  C     0.16054   0.97960   0.79059   0.00000  Uiso   1.00
Cu1949 Cu    0.16667   0.83334   0.88022   0.00000  Uiso   1.00
Cu1950 Cu    0.16667   0.83333   0.78645   0.00000  Uiso   1.00
H1951  H     0.15767   0.70562   0.75935   0.00000  Uiso   1.00
H1952  H     0.30205   0.91521   0.88224   0.00000  Uiso   1.00
H1953  H     0.01348   0.91201   0.84020   0.00000  Uiso   1.00
H1954  H     0.04480   0.92352   0.94684   0.00000  Uiso   1.00
H1955  H     0.08670   0.92203   0.90274   0.00000  Uiso   1.00
H1956  H     0.04285   0.96340   0.90259   0.00000  Uiso   1.00
H1957  H     0.20728   0.94320   0.72854   0.00000  Uiso   1.00
H1958  H     0.18875   0.99460   0.71093   0.00000  Uiso   1.00
H1959  H     0.11866   0.96953   0.98710   0.00000  Uiso   1.00
H1960  H     0.17552   0.94301   0.97842   0.00000  Uiso   1.00
H1961  H     0.12698   0.91693   0.67365   0.00000  Uiso   1.00
H1962  H     0.19453   0.96159   0.90809   0.00000  Uiso   1.00
H1963  H     0.25875   0.74646   0.95047   0.00000  Uiso   1.00
H1964  H     0.26613   0.73140   0.89231   0.00000  Uiso   1.00
H1965  H     0.28538   0.99290   0.92181   0.00000  Uiso   1.00
H1966  H     0.32785   0.69732   0.95379   0.00000  Uiso   1.00
H1967  H     0.27520   0.67478   0.98034   0.00000  Uiso   1.00
H1968  H     0.12956   0.73151   0.68304   0.00000  Uiso   1.00
H1969  H     0.06881   0.74548   0.98280   0.00000  Uiso   1.00
H1970  H     0.02015   0.71946   0.70476   0.00000  Uiso   1.00
H1971  H     0.06844   0.68242   0.70374   0.00000  Uiso   1.00
H1972  H     0.07344   0.71892   0.75162   0.00000  Uiso   1.00
H1973  H     0.10160   0.79455   0.94644   0.00000  Uiso   1.00
H1974  H     0.26492   0.91871   0.68158   0.00000  Uiso   1.00
H1975  H     0.29561   0.92376   0.96550   0.00000  Uiso   1.00
H1976  H     0.01856   0.88853   0.69606   0.00000  Uiso   1.00
H1977  H     0.30556   0.84624   0.69438   0.00000  Uiso   1.00
H1978  H     0.00375   0.85682   0.97742   0.00000  Uiso   1.00
H1979  H     0.23070   0.87283   0.72059   0.00000  Uiso   1.00
H1980  H     0.29192   0.76176   0.81370   0.00000  Uiso   1.00
H1981  H     0.01193   0.74992   0.78429   0.00000  Uiso   1.00
H1982  H     0.28572   0.76021   0.70582   0.00000  Uiso   1.00
H1983  H     0.26666   0.71777   0.74153   0.00000  Uiso   1.00
H1984  H     0.23418   0.76581   0.73930   0.00000  Uiso   1.00
N1985  N     0.16668   0.83334   0.95069   0.00000  Uiso   1.00
N1986  N     0.16665   0.83332   0.71597   0.00000  Uiso   1.00
O1987  O     0.16666   0.77322   0.87291   0.00000  Uiso   1.00
O1988  O     0.01189   0.86273   0.88836   0.00000  Uiso   1.00
O1989  O     0.13913   0.96035   0.74917   0.00000  Uiso   1.00
O1990  O     0.20083   0.70727   0.92004   0.00000  Uiso   1.00
O1991  O     0.09657   0.78386   0.70668   0.00000  Uiso   1.00
O1992  O     0.23840   0.87949   0.95728   0.00000  Uiso   1.00
O1993  O     0.16667   0.89345   0.79375   0.00000  Uiso   1.00
O1994  O     0.16666   0.77321   0.79372   0.00000  Uiso   1.00
O1995  O     0.16667   0.89346   0.87294   0.00000  Uiso   1.00
O1996  O     0.09161   0.83334   0.86379   0.00000  Uiso   1.00
O1997  O     0.24172   0.83333   0.80288   0.00000  Uiso   1.00
O1998  O     0.09161   0.83333   0.78460   0.00000  Uiso   1.00
O1999  O     0.24172   0.83334   0.88207   0.00000  Uiso   1.00
O2000  O     0.32129   0.80963   0.77415   0.00000  Uiso   1.00
C2001  C     0.50301   0.75426   0.83393   0.00000  Uiso   1.00
C2002  C     0.52087   0.68778   0.87698   0.00000  Uiso   1.00
C2003  C     0.50328   0.95745   0.83305   0.00000  Uiso   1.00
C2004  C     0.50791   0.70983   0.83472   0.00000  Uiso   1.00
C2005  C     0.46501   0.80902   0.68682   0.00000  Uiso   1.00
C2006  C     0.53671   0.85614   0.97958   0.00000  Uiso   1.00
C2007  C     0.46411   0.81095   0.97017   0.00000  Uiso   1.00
C2008  C     0.53609   0.85576   0.69644   0.00000  Uiso   1.00
C2009  C     0.64306   0.76751   0.78125   0.00000  Uiso   1.00
C2010  C     0.60517   0.75173   0.73941   0.00000  Uiso   1.00
C2011  C     0.34074   0.90505   0.87721   0.00000  Uiso   1.00
C2012  C     0.50034   0.91266   0.83320   0.00000  Uiso   1.00
C2013  C     0.38122   0.93003   0.90940   0.00000  Uiso   1.00
C2014  C     0.50749   0.96266   0.71641   0.00000  Uiso   1.00
C2015  C     0.48038   0.94700   0.66925   0.00000  Uiso   1.00
C2016  C     0.58663   0.72006   0.92563   0.00000  Uiso   1.00
C2017  C     0.62075   0.68570   0.94679   0.00000  Uiso   1.00
C2018  C     0.42464   0.74433   0.68526   0.00000  Uiso   1.00
C2019  C     0.39501   0.71459   0.71330   0.00000  Uiso   1.00
C2020  C     0.61184   0.90029   0.98715   0.00000  Uiso   1.00
C2021  C     0.65410   0.87115   0.67334   0.00000  Uiso   1.00
C2022  C     0.40133   0.83221   0.82133   0.00000  Uiso   1.00
C2023  C     0.59859   0.83482   0.84526   0.00000  Uiso   1.00
C2024  C     0.34618   0.82682   0.81583   0.00000  Uiso   1.00
C2025  C     0.65377   0.84001   0.85044   0.00000  Uiso   1.00
C2026  C     0.49807   0.68885   0.79197   0.00000  Uiso   1.00
C2027  C     0.51801   0.97837   0.87569   0.00000  Uiso   1.00
C2028  C     0.49387   0.97960   0.79059   0.00000  Uiso   1.00
Cu2029 Cu    0.50000   0.83334   0.88022   0.00000  Uiso   1.00
Cu2030 Cu    0.50000   0.83333   0.78645   0.00000  Uiso   1.00
H2031  H     0.49100   0.70562   0.75935   0.00000  Uiso   1.00
H2032  H     0.63538   0.91521   0.88224   0.00000  Uiso   1.00
H2033  H     0.34682   0.91201   0.84020   0.00000  Uiso   1.00
H2034  H     0.37813   0.92352   0.94684   0.00000  Uiso   1.00
H2035  H     0.42003   0.92203   0.90274   0.00000  Uiso   1.00
H2036  H     0.37619   0.96340   0.90259   0.00000  Uiso   1.00
H2037  H     0.54061   0.94320   0.72854   0.00000  Uiso   1.00
H2038  H     0.52208   0.99460   0.71093   0.00000  Uiso   1.00
H2039  H     0.45199   0.96953   0.98710   0.00000  Uiso   1.00
H2040  H     0.50886   0.94301   0.97842   0.00000  Uiso   1.00
H2041  H     0.46031   0.91693   0.67365   0.00000  Uiso   1.00
H2042  H     0.52787   0.96159   0.90809   0.00000  Uiso   1.00
H2043  H     0.59208   0.74646   0.95047   0.00000  Uiso   1.00
H2044  H     0.59947   0.73140   0.89231   0.00000  Uiso   1.00
H2045  H     0.61872   0.99290   0.92181   0.00000  Uiso   1.00
H2046  H     0.66118   0.69732   0.95379   0.00000  Uiso   1.00
H2047  H     0.60853   0.67478   0.98034   0.00000  Uiso   1.00
H2048  H     0.46289   0.73151   0.68304   0.00000  Uiso   1.00
H2049  H     0.40214   0.74548   0.98280   0.00000  Uiso   1.00
H2050  H     0.35348   0.71946   0.70476   0.00000  Uiso   1.00
H2051  H     0.40177   0.68242   0.70374   0.00000  Uiso   1.00
H2052  H     0.40677   0.71892   0.75162   0.00000  Uiso   1.00
H2053  H     0.43494   0.79455   0.94644   0.00000  Uiso   1.00
H2054  H     0.59826   0.91871   0.68158   0.00000  Uiso   1.00
H2055  H     0.62894   0.92376   0.96550   0.00000  Uiso   1.00
H2056  H     0.35189   0.88853   0.69606   0.00000  Uiso   1.00
H2057  H     0.63890   0.84624   0.69438   0.00000  Uiso   1.00
H2058  H     0.33709   0.85682   0.97742   0.00000  Uiso   1.00
H2059  H     0.56404   0.87283   0.72059   0.00000  Uiso   1.00
H2060  H     0.62525   0.76176   0.81370   0.00000  Uiso   1.00
H2061  H     0.34526   0.74992   0.78429   0.00000  Uiso   1.00
H2062  H     0.61905   0.76021   0.70582   0.00000  Uiso   1.00
H2063  H     0.59999   0.71777   0.74153   0.00000  Uiso   1.00
H2064  H     0.56751   0.76581   0.73930   0.00000  Uiso   1.00
N2065  N     0.50001   0.83334   0.95069   0.00000  Uiso   1.00
N2066  N     0.49999   0.83332   0.71597   0.00000  Uiso   1.00
O2067  O     0.50000   0.77322   0.87291   0.00000  Uiso   1.00
O2068  O     0.34522   0.86273   0.88836   0.00000  Uiso   1.00
O2069  O     0.47247   0.96035   0.74917   0.00000  Uiso   1.00
O2070  O     0.53417   0.70727   0.92004   0.00000  Uiso   1.00
O2071  O     0.42991   0.78386   0.70668   0.00000  Uiso   1.00
O2072  O     0.57173   0.87949   0.95728   0.00000  Uiso   1.00
O2073  O     0.50000   0.89345   0.79375   0.00000  Uiso   1.00
O2074  O     0.50000   0.77321   0.79372   0.00000  Uiso   1.00
O2075  O     0.50000   0.89346   0.87294   0.00000  Uiso   1.00
O2076  O     0.42495   0.83334   0.86379   0.00000  Uiso   1.00
O2077  O     0.57505   0.83333   0.80288   0.00000  Uiso   1.00
O2078  O     0.42494   0.83333   0.78460   0.00000  Uiso   1.00
O2079  O     0.57506   0.83334   0.88207   0.00000  Uiso   1.00
O2080  O     0.65462   0.80963   0.77415   0.00000  Uiso   1.00
C2081  C     0.83635   0.75426   0.83393   0.00000  Uiso   1.00
C2082  C     0.85421   0.68778   0.87698   0.00000  Uiso   1.00
C2083  C     0.83661   0.95745   0.83305   0.00000  Uiso   1.00
C2084  C     0.84124   0.70983   0.83472   0.00000  Uiso   1.00
C2085  C     0.79834   0.80902   0.68682   0.00000  Uiso   1.00
C2086  C     0.87004   0.85614   0.97958   0.00000  Uiso   1.00
C2087  C     0.79744   0.81095   0.97017   0.00000  Uiso   1.00
C2088  C     0.86942   0.85576   0.69644   0.00000  Uiso   1.00
C2089  C     0.97639   0.76751   0.78125   0.00000  Uiso   1.00
C2090  C     0.93850   0.75173   0.73941   0.00000  Uiso   1.00
C2091  C     0.67407   0.90505   0.87721   0.00000  Uiso   1.00
C2092  C     0.83368   0.91266   0.83320   0.00000  Uiso   1.00
C2093  C     0.71455   0.93003   0.90940   0.00000  Uiso   1.00
C2094  C     0.84082   0.96266   0.71641   0.00000  Uiso   1.00
C2095  C     0.81372   0.94700   0.66925   0.00000  Uiso   1.00
C2096  C     0.91996   0.72006   0.92563   0.00000  Uiso   1.00
C2097  C     0.95408   0.68570   0.94679   0.00000  Uiso   1.00
C2098  C     0.75797   0.74433   0.68526   0.00000  Uiso   1.00
C2099  C     0.72834   0.71459   0.71330   0.00000  Uiso   1.00
C2100  C     0.94517   0.90029   0.98715   0.00000  Uiso   1.00
C2101  C     0.98744   0.87115   0.67334   0.00000  Uiso   1.00
C2102  C     0.73467   0.83221   0.82133   0.00000  Uiso   1.00
C2103  C     0.93192   0.83482   0.84526   0.00000  Uiso   1.00
C2104  C     0.67951   0.82682   0.81583   0.00000  Uiso   1.00
C2105  C     0.98710   0.84001   0.85044   0.00000  Uiso   1.00
C2106  C     0.83140   0.68885   0.79197   0.00000  Uiso   1.00
C2107  C     0.85135   0.97837   0.87569   0.00000  Uiso   1.00
C2108  C     0.82721   0.97960   0.79059   0.00000  Uiso   1.00
Cu2109 Cu    0.83333   0.83334   0.88022   0.00000  Uiso   1.00
Cu2110 Cu    0.83333   0.83333   0.78645   0.00000  Uiso   1.00
H2111  H     0.82434   0.70562   0.75935   0.00000  Uiso   1.00
H2112  H     0.96871   0.91521   0.88224   0.00000  Uiso   1.00
H2113  H     0.68015   0.91201   0.84020   0.00000  Uiso   1.00
H2114  H     0.71147   0.92352   0.94684   0.00000  Uiso   1.00
H2115  H     0.75336   0.92203   0.90274   0.00000  Uiso   1.00
H2116  H     0.70952   0.96340   0.90259   0.00000  Uiso   1.00
H2117  H     0.87395   0.94320   0.72854   0.00000  Uiso   1.00
H2118  H     0.85542   0.99460   0.71093   0.00000  Uiso   1.00
H2119  H     0.78532   0.96953   0.98710   0.00000  Uiso   1.00
H2120  H     0.84219   0.94301   0.97842   0.00000  Uiso   1.00
H2121  H     0.79365   0.91693   0.67365   0.00000  Uiso   1.00
H2122  H     0.86120   0.96159   0.90809   0.00000  Uiso   1.00
H2123  H     0.92542   0.74646   0.95047   0.00000  Uiso   1.00
H2124  H     0.93280   0.73140   0.89231   0.00000  Uiso   1.00
H2125  H     0.95205   0.99290   0.92181   0.00000  Uiso   1.00
H2126  H     0.99452   0.69732   0.95379   0.00000  Uiso   1.00
H2127  H     0.94187   0.67478   0.98034   0.00000  Uiso   1.00
H2128  H     0.79622   0.73151   0.68304   0.00000  Uiso   1.00
H2129  H     0.73547   0.74548   0.98280   0.00000  Uiso   1.00
H2130  H     0.68681   0.71946   0.70476   0.00000  Uiso   1.00
H2131  H     0.73511   0.68242   0.70374   0.00000  Uiso   1.00
H2132  H     0.74011   0.71892   0.75162   0.00000  Uiso   1.00
H2133  H     0.76827   0.79455   0.94644   0.00000  Uiso   1.00
H2134  H     0.93159   0.91871   0.68158   0.00000  Uiso   1.00
H2135  H     0.96227   0.92376   0.96550   0.00000  Uiso   1.00
H2136  H     0.68523   0.88853   0.69606   0.00000  Uiso   1.00
H2137  H     0.97223   0.84624   0.69438   0.00000  Uiso   1.00
H2138  H     0.67042   0.85682   0.97742   0.00000  Uiso   1.00
H2139  H     0.89737   0.87283   0.72059   0.00000  Uiso   1.00
H2140  H     0.95859   0.76176   0.81370   0.00000  Uiso   1.00
H2141  H     0.67859   0.74992   0.78429   0.00000  Uiso   1.00
H2142  H     0.95239   0.76021   0.70582   0.00000  Uiso   1.00
H2143  H     0.93332   0.71777   0.74153   0.00000  Uiso   1.00
H2144  H     0.90085   0.76581   0.73930   0.00000  Uiso   1.00
N2145  N     0.83335   0.83334   0.95069   0.00000  Uiso   1.00
N2146  N     0.83332   0.83332   0.71597   0.00000  Uiso   1.00
O2147  O     0.83333   0.77322   0.87291   0.00000  Uiso   1.00
O2148  O     0.67855   0.86273   0.88836   0.00000  Uiso   1.00
O2149  O     0.80580   0.96035   0.74917   0.00000  Uiso   1.00
O2150  O     0.86750   0.70727   0.92004   0.00000  Uiso   1.00
O2151  O     0.76324   0.78386   0.70668   0.00000  Uiso   1.00
O2152  O     0.90507   0.87949   0.95728   0.00000  Uiso   1.00
O2153  O     0.83334   0.89345   0.79375   0.00000  Uiso   1.00
O2154  O     0.83333   0.77321   0.79372   0.00000  Uiso   1.00
O2155  O     0.83334   0.89346   0.87294   0.00000  Uiso   1.00
O2156  O     0.75828   0.83334   0.86379   0.00000  Uiso   1.00
O2157  O     0.90839   0.83333   0.80288   0.00000  Uiso   1.00
O2158  O     0.75828   0.83333   0.78460   0.00000  Uiso   1.00
O2159  O     0.90839   0.83334   0.88207   0.00000  Uiso   1.00
O2160  O     0.98795   0.80963   0.77415   0.00000  Uiso   1.00
loop_
_geom_bond_atom_site_label_1
_geom_bond_atom_site_label_2
_geom_bond_distance
_geom_bond_site_symmetry_2
_ccdc_geom_bond_type
C1     O74     1.298   .     A
C1     C4      1.455   .     S
C1     O67     1.293   .     A
C2     C4      1.410   .     A
C2     O70     1.384   .     S
C2     C507    1.390   1_545 S
C3     C28     1.406   .     A
C3     C12     1.456   .     S
C3     C27     1.400   .     A
C4     C26     1.393   .     A
C5     N66     1.380   .     A
C5     O71     1.394   .     S
C5     C1447   1.431   1_554 S
C6     O72     1.398   .     S
C6     N65     1.376   .     A
C6     C728    1.442   .     S
C7     N65     1.356   .     A
C7     H53     1.078   .     S
C7     C725    1.431   .     S
C8     N66     1.361   .     A
C8     H59     1.076   .     S
C8     C1446   1.442   1_554 S
C9     C10     1.524   .     S
C9     O80     1.413   .     S
C9     H60     1.114   .     S
C9     H141    1.107   .     S
C10    H63     1.111   .     S
C10    H62     1.109   .     S
C10    H64     1.107   .     S
C11    H33     1.117   .     S
C11    O68     1.416   .     S
C11    C13     1.520   .     S
C11    H192    1.112   1_455 S
C12    O73     1.294   .     A
C12    O75     1.298   .     A
C13    H35     1.108   .     S
C13    H36     1.110   .     S
C13    H34     1.107   .     S
C14    H38     1.113   .     S
C14    O69     1.410   .     S
C14    H37     1.110   .     S
C14    C15     1.516   .     S
C15    H41     1.110   .     S
C15    H1479   1.110   1_554 S
C15    H1480   1.104   1_554 S
C16    C17     1.527   .     S
C16    H44     1.116   .     S
C16    O70     1.417   .     S
C16    H43     1.110   .     S
C17    H46     1.109   .     S
C17    H47     1.111   .     S
C17    H525    1.109   1_545 S
C18    C19     1.521   .     S
C18    O71     1.421   .     S
C18    H48     1.115   .     S
C18    H1489   1.109   1_554 S
C19    H50     1.103   .     S
C19    H52     1.106   .     S
C19    H51     1.110   .     S
C20    H55     1.106   .     S
C20    O72     1.415   .     S
C20    C741    1.530   .     S
C20    H774    1.107   .     S
C21    H57     1.106   .     S
C21    C1460   1.530   1_554 S
C21    H136    1.110   .     S
C21    H1578   1.109   1_554 S
C22    O76     1.285   .     A
C22    O78     1.299   .     A
C22    C24     1.444   .     S
C23    O77     1.282   .     A
C23    C25     1.445   .     S
C23    O79     1.300   .     A
C24    C185    1.360   1_455 S
C24    O240    1.387   1_455 S
C25    C104    1.360   .     S
C25    O148    1.387   .     S
C26    H31     1.076   .     S
C26    C508    1.386   1_545 S
C27    H42     1.079   .     S
C27    C242    1.390   .     S
C28    O69     1.382   .     S
C28    C266    1.386   .     S
Cu29   O76     1.966   .     S
Cu29   O67     1.967   .     S
Cu29   Cu30    2.689   .     S
Cu29   O79     1.972   .     S
Cu29   N65     2.021   .     S
Cu29   O75     1.965   .     S
Cu30   O74     1.965   .     S
Cu30   O77     1.966   .     S
Cu30   O73     1.967   .     S
Cu30   N66     2.021   .     S
Cu30   O78     1.972   .     S
H32    C91     1.112   .     S
H39    C735    1.110   .     S
H40    C735    1.104   .     S
H45    C257    1.109   .     S
H49    C738    1.109   .     S
H54    C1460   1.107   1_554 S
H56    C181    1.110   1_455 S
H58    C901    1.109   1_455 S
H61    C169    1.107   1_455 S
O68    C185    1.387   1_455 S
O80    C104    1.387   .     S
C81    O154    1.298   .     A
C81    C84     1.455   .     S
C81    O147    1.293   .     A
C82    C84     1.410   .     A
C82    O150    1.384   .     S
C82    C587    1.390   1_545 S
C83    C108    1.406   .     A
C83    C92     1.456   .     S
C83    C107    1.400   .     A
C84    C106    1.393   .     A
C85    N146    1.380   .     A
C85    O151    1.394   .     S
C85    C1527   1.431   1_554 S
C86    O152    1.398   .     S
C86    N145    1.376   .     A
C86    C808    1.442   .     S
C87    N145    1.356   .     A
C87    H133    1.078   .     S
C87    C805    1.431   .     S
C88    N146    1.361   .     A
C88    H139    1.076   .     S
C88    C1526   1.442   1_554 S
C89    C90     1.524   .     S
C89    O160    1.413   .     S
C89    H140    1.114   .     S
C89    H221    1.107   .     S
C90    H143    1.111   .     S
C90    H142    1.109   .     S
C90    H144    1.107   .     S
C91    H113    1.117   .     S
C91    O148    1.416   .     S
C91    C93     1.520   .     S
C92    O153    1.294   .     A
C92    O155    1.298   .     A
C93    H115    1.108   .     S
C93    H116    1.110   .     S
C93    H114    1.107   .     S
C94    H118    1.113   .     S
C94    O149    1.410   .     S
C94    H117    1.110   .     S
C94    C95     1.516   .     S
C95    H121    1.110   .     S
C95    H1559   1.110   1_554 S
C95    H1560   1.104   1_554 S
C96    C97     1.527   .     S
C96    H124    1.116   .     S
C96    O150    1.417   .     S
C96    H123    1.110   .     S
C97    H126    1.109   .     S
C97    H127    1.111   .     S
C97    H605    1.109   1_545 S
C98    C99     1.521   .     S
C98    O151    1.421   .     S
C98    H128    1.115   .     S
C98    H1569   1.109   1_554 S
C99    H130    1.103   .     S
C99    H132    1.106   .     S
C99    H131    1.110   .     S
C100   H135    1.106   .     S
C100   O152    1.415   .     S
C100   C821    1.530   .     S
C100   H854    1.107   .     S
C101   H137    1.106   .     S
C101   C1540   1.530   1_554 S
C101   H216    1.110   .     S
C101   H1658   1.109   1_554 S
C102   O156    1.285   .     A
C102   O158    1.299   .     A
C102   C104    1.444   .     S
C103   O157    1.282   .     A
C103   C105    1.445   .     S
C103   O159    1.300   .     A
C105   C184    1.360   .     S
C105   O228    1.387   .     S
C106   H111    1.076   .     S
C106   C588    1.386   1_545 S
C107   H122    1.079   .     S
C107   C322    1.390   .     S
C108   O149    1.382   .     S
C108   C346    1.386   .     S
Cu109  O156    1.966   .     S
Cu109  O147    1.967   .     S
Cu109  Cu110   2.689   .     S
Cu109  O159    1.972   .     S
Cu109  N145    2.021   .     S
Cu109  O155    1.965   .     S
Cu110  O154    1.965   .     S
Cu110  O157    1.966   .     S
Cu110  O153    1.967   .     S
Cu110  N146    2.021   .     S
Cu110  O158    1.972   .     S
H112   C171    1.112   .     S
H119   C815    1.110   .     S
H120   C815    1.104   .     S
H125   C337    1.109   .     S
H129   C818    1.109   .     S
H134   C1540   1.107   1_554 S
H138   C741    1.109   .     S
O160   C184    1.387   .     S
C161   O234    1.298   .     A
C161   C164    1.455   .     S
C161   O227    1.293   .     A
C162   C164    1.410   .     A
C162   O230    1.384   .     S
C162   C667    1.390   1_545 S
C163   C188    1.406   .     A
C163   C172    1.456   .     S
C163   C187    1.400   .     A
C164   C186    1.393   .     A
C165   N226    1.380   .     A
C165   O231    1.394   .     S
C165   C1607   1.431   1_554 S
C166   O232    1.398   .     S
C166   N225    1.376   .     A
C166   C888    1.442   .     S
C167   N225    1.356   .     A
C167   H213    1.078   .     S
C167   C885    1.431   .     S
C168   N226    1.361   .     A
C168   H219    1.076   .     S
C168   C1606   1.442   1_554 S
C169   C170    1.524   .     S
C169   O240    1.413   .     S
C169   H220    1.114   .     S
C169   H61     1.107   1_655 S
C170   H223    1.111   .     S
C170   H222    1.109   .     S
C170   H224    1.107   .     S
C171   H193    1.117   .     S
C171   O228    1.416   .     S
C171   C173    1.520   .     S
C172   O233    1.294   .     A
C172   O235    1.298   .     A
C173   H195    1.108   .     S
C173   H196    1.110   .     S
C173   H194    1.107   .     S
C174   H198    1.113   .     S
C174   O229    1.410   .     S
C174   H197    1.110   .     S
C174   C175    1.516   .     S
C175   H201    1.110   .     S
C175   H1639   1.110   1_554 S
C175   H1640   1.104   1_554 S
C176   C177    1.527   .     S
C176   H204    1.116   .     S
C176   O230    1.417   .     S
C176   H203    1.110   .     S
C177   H206    1.109   .     S
C177   H207    1.111   .     S
C177   H685    1.109   1_545 S
C178   C179    1.521   .     S
C178   O231    1.421   .     S
C178   H208    1.115   .     S
C178   H1649   1.109   1_554 S
C179   H210    1.103   .     S
C179   H212    1.106   .     S
C179   H211    1.110   .     S
C180   H215    1.106   .     S
C180   O232    1.415   .     S
C180   C901    1.530   .     S
C180   H934    1.107   .     S
C181   H217    1.106   .     S
C181   C1620   1.530   1_554 S
C181   H56     1.110   1_655 S
C181   H1498   1.109   1_654 S
C182   O236    1.285   .     A
C182   O238    1.299   .     A
C182   C184    1.444   .     S
C183   O237    1.282   .     A
C183   C185    1.445   .     S
C183   O239    1.300   .     A
C185   C24     1.360   1_655 S
C185   O68     1.387   1_655 S
C186   H191    1.076   .     S
C186   C668    1.386   1_545 S
C187   H202    1.079   .     S
C187   C402    1.390   .     S
C188   O229    1.382   .     S
C188   C426    1.386   .     S
Cu189  O236    1.966   .     S
Cu189  O227    1.967   .     S
Cu189  Cu190   2.689   .     S
Cu189  O239    1.972   .     S
Cu189  N225    2.021   .     S
Cu189  O235    1.965   .     S
Cu190  O234    1.965   .     S
Cu190  O237    1.966   .     S
Cu190  O233    1.967   .     S
Cu190  N226    2.021   .     S
Cu190  O238    1.972   .     S
H192   C11     1.112   1_655 S
H199   C895    1.110   .     S
H200   C895    1.104   .     S
H205   C417    1.109   .     S
H209   C898    1.109   .     S
H214   C1620   1.107   1_554 S
H218   C821    1.109   .     S
O240   C24     1.387   1_655 S
C241   O314    1.298   .     A
C241   C244    1.455   .     S
C241   O307    1.293   .     A
C242   C244    1.410   .     A
C242   O310    1.384   .     S
C243   C268    1.406   .     A
C243   C252    1.456   .     S
C243   C267    1.400   .     A
C244   C266    1.393   .     A
C245   N306    1.380   .     A
C245   O311    1.394   .     S
C245   C1687   1.431   1_554 S
C246   O312    1.398   .     S
C246   N305    1.376   .     A
C246   C968    1.442   .     S
C247   N305    1.356   .     A
C247   H293    1.078   .     S
C247   C965    1.431   .     S
C248   N306    1.361   .     A
C248   H299    1.076   .     S
C248   C1686   1.442   1_554 S
C249   C250    1.524   .     S
C249   O320    1.413   .     S
C249   H300    1.114   .     S
C249   H381    1.107   .     S
C250   H303    1.111   .     S
C250   H302    1.109   .     S
C250   H304    1.107   .     S
C251   H273    1.117   .     S
C251   O308    1.416   .     S
C251   C253    1.520   .     S
C251   H432    1.112   1_455 S
C252   O313    1.294   .     A
C252   O315    1.298   .     A
C253   H275    1.108   .     S
C253   H276    1.110   .     S
C253   H274    1.107   .     S
C254   H278    1.113   .     S
C254   O309    1.410   .     S
C254   H277    1.110   .     S
C254   C255    1.516   .     S
C255   H281    1.110   .     S
C255   H1719   1.110   1_554 S
C255   H1720   1.104   1_554 S
C256   C257    1.527   .     S
C256   H284    1.116   .     S
C256   O310    1.417   .     S
C256   H283    1.110   .     S
C257   H286    1.109   .     S
C257   H287    1.111   .     S
C258   C259    1.521   .     S
C258   O311    1.421   .     S
C258   H288    1.115   .     S
C258   H1729   1.109   1_554 S
C259   H290    1.103   .     S
C259   H292    1.106   .     S
C259   H291    1.110   .     S
C260   H295    1.106   .     S
C260   O312    1.415   .     S
C260   C981    1.530   .     S
C260   H1014   1.107   .     S
C261   H297    1.106   .     S
C261   C1700   1.530   1_554 S
C261   H376    1.110   .     S
C261   H1818   1.109   1_554 S
C262   O316    1.285   .     A
C262   O318    1.299   .     A
C262   C264    1.444   .     S
C263   O317    1.282   .     A
C263   C265    1.445   .     S
C263   O319    1.300   .     A
C264   C425    1.360   1_455 S
C264   O480    1.387   1_455 S
C265   C344    1.360   .     S
C265   O388    1.387   .     S
C266   H271    1.076   .     S
C267   H282    1.079   .     S
C267   C482    1.390   .     S
C268   O309    1.382   .     S
C268   C506    1.386   .     S
Cu269  O316    1.966   .     S
Cu269  O307    1.967   .     S
Cu269  Cu270   2.689   .     S
Cu269  O319    1.972   .     S
Cu269  N305    2.021   .     S
Cu269  O315    1.965   .     S
Cu270  O314    1.965   .     S
Cu270  O317    1.966   .     S
Cu270  O313    1.967   .     S
Cu270  N306    2.021   .     S
Cu270  O318    1.972   .     S
H272   C331    1.112   .     S
H279   C975    1.110   .     S
H280   C975    1.104   .     S
H285   C497    1.109   .     S
H289   C978    1.109   .     S
H294   C1700   1.107   1_554 S
H296   C421    1.110   1_455 S
H298   C1141   1.109   1_455 S
H301   C409    1.107   1_455 S
O308   C425    1.387   1_455 S
O320   C344    1.387   .     S
C321   O394    1.298   .     A
C321   C324    1.455   .     S
C321   O387    1.293   .     A
C322   C324    1.410   .     A
C322   O390    1.384   .     S
C323   C348    1.406   .     A
C323   C332    1.456   .     S
C323   C347    1.400   .     A
C324   C346    1.393   .     A
C325   N386    1.380   .     A
C325   O391    1.394   .     S
C325   C1767   1.431   1_554 S
C326   O392    1.398   .     S
C326   N385    1.376   .     A
C326   C1048   1.442   .     S
C327   N385    1.356   .     A
C327   H373    1.078   .     S
C327   C1045   1.431   .     S
C328   N386    1.361   .     A
C328   H379    1.076   .     S
C328   C1766   1.442   1_554 S
C329   C330    1.524   .     S
C329   O400    1.413   .     S
C329   H380    1.114   .     S
C329   H461    1.107   .     S
C330   H383    1.111   .     S
C330   H382    1.109   .     S
C330   H384    1.107   .     S
C331   H353    1.117   .     S
C331   O388    1.416   .     S
C331   C333    1.520   .     S
C332   O393    1.294   .     A
C332   O395    1.298   .     A
C333   H355    1.108   .     S
C333   H356    1.110   .     S
C333   H354    1.107   .     S
C334   H358    1.113   .     S
C334   O389    1.410   .     S
C334   H357    1.110   .     S
C334   C335    1.516   .     S
C335   H361    1.110   .     S
C335   H1799   1.110   1_554 S
C335   H1800   1.104   1_554 S
C336   C337    1.527   .     S
C336   H364    1.116   .     S
C336   O390    1.417   .     S
C336   H363    1.110   .     S
C337   H366    1.109   .     S
C337   H367    1.111   .     S
C338   C339    1.521   .     S
C338   O391    1.421   .     S
C338   H368    1.115   .     S
C338   H1809   1.109   1_554 S
C339   H370    1.103   .     S
C339   H372    1.106   .     S
C339   H371    1.110   .     S
C340   H375    1.106   .     S
C340   O392    1.415   .     S
C340   C1061   1.530   .     S
C340   H1094   1.107   .     S
C341   H377    1.106   .     S
C341   C1780   1.530   1_554 S
C341   H456    1.110   .     S
C341   H1898   1.109   1_554 S
C342   O396    1.285   .     A
C342   O398    1.299   .     A
C342   C344    1.444   .     S
C343   O397    1.282   .     A
C343   C345    1.445   .     S
C343   O399    1.300   .     A
C345   C424    1.360   .     S
C345   O468    1.387   .     S
C346   H351    1.076   .     S
C347   H362    1.079   .     S
C347   C562    1.390   .     S
C348   O389    1.382   .     S
C348   C586    1.386   .     S
Cu349  O396    1.966   .     S
Cu349  O387    1.967   .     S
Cu349  Cu350   2.689   .     S
Cu349  O399    1.972   .     S
Cu349  N385    2.021   .     S
Cu349  O395    1.965   .     S
Cu350  O394    1.965   .     S
Cu350  O397    1.966   .     S
Cu350  O393    1.967   .     S
Cu350  N386    2.021   .     S
Cu350  O398    1.972   .     S
H352   C411    1.112   .     S
H359   C1055   1.110   .     S
H360   C1055   1.104   .     S
H365   C577    1.109   .     S
H369   C1058   1.109   .     S
H374   C1780   1.107   1_554 S
H378   C981    1.109   .     S
O400   C424    1.387   .     S
C401   O474    1.298   .     A
C401   C404    1.455   .     S
C401   O467    1.293   .     A
C402   C404    1.410   .     A
C402   O470    1.384   .     S
C403   C428    1.406   .     A
C403   C412    1.456   .     S
C403   C427    1.400   .     A
C404   C426    1.393   .     A
C405   N466    1.380   .     A
C405   O471    1.394   .     S
C405   C1847   1.431   1_554 S
C406   O472    1.398   .     S
C406   N465    1.376   .     A
C406   C1128   1.442   .     S
C407   N465    1.356   .     A
C407   H453    1.078   .     S
C407   C1125   1.431   .     S
C408   N466    1.361   .     A
C408   H459    1.076   .     S
C408   C1846   1.442   1_554 S
C409   C410    1.524   .     S
C409   O480    1.413   .     S
C409   H460    1.114   .     S
C409   H301    1.107   1_655 S
C410   H463    1.111   .     S
C410   H462    1.109   .     S
C410   H464    1.107   .     S
C411   H433    1.117   .     S
C411   O468    1.416   .     S
C411   C413    1.520   .     S
C412   O473    1.294   .     A
C412   O475    1.298   .     A
C413   H435    1.108   .     S
C413   H436    1.110   .     S
C413   H434    1.107   .     S
C414   H438    1.113   .     S
C414   O469    1.410   .     S
C414   H437    1.110   .     S
C414   C415    1.516   .     S
C415   H441    1.110   .     S
C415   H1879   1.110   1_554 S
C415   H1880   1.104   1_554 S
C416   C417    1.527   .     S
C416   H444    1.116   .     S
C416   O470    1.417   .     S
C416   H443    1.110   .     S
C417   H446    1.109   .     S
C417   H447    1.111   .     S
C418   C419    1.521   .     S
C418   O471    1.421   .     S
C418   H448    1.115   .     S
C418   H1889   1.109   1_554 S
C419   H450    1.103   .     S
C419   H452    1.106   .     S
C419   H451    1.110   .     S
C420   H455    1.106   .     S
C420   O472    1.415   .     S
C420   C1141   1.530   .     S
C420   H1174   1.107   .     S
C421   H457    1.106   .     S
C421   C1860   1.530   1_554 S
C421   H296    1.110   1_655 S
C421   H1738   1.109   1_654 S
C422   O476    1.285   .     A
C422   O478    1.299   .     A
C422   C424    1.444   .     S
C423   O477    1.282   .     A
C423   C425    1.445   .     S
C423   O479    1.300   .     A
C425   C264    1.360   1_655 S
C425   O308    1.387   1_655 S
C426   H431    1.076   .     S
C427   H442    1.079   .     S
C427   C642    1.390   .     S
C428   O469    1.382   .     S
C428   C666    1.386   .     S
Cu429  O476    1.966   .     S
Cu429  O467    1.967   .     S
Cu429  Cu430   2.689   .     S
Cu429  O479    1.972   .     S
Cu429  N465    2.021   .     S
Cu429  O475    1.965   .     S
Cu430  O474    1.965   .     S
Cu430  O477    1.966   .     S
Cu430  O473    1.967   .     S
Cu430  N466    2.021   .     S
Cu430  O478    1.972   .     S
H432   C251    1.112   1_655 S
H439   C1135   1.110   .     S
H440   C1135   1.104   .     S
H445   C657    1.109   .     S
H449   C1138   1.109   .     S
H454   C1860   1.107   1_554 S
H458   C1061   1.109   .     S
O480   C264    1.387   1_655 S
C481   O554    1.298   .     A
C481   C484    1.455   .     S
C481   O547    1.293   .     A
C482   C484    1.410   .     A
C482   O550    1.384   .     S
C483   C508    1.406   .     A
C483   C492    1.456   .     S
C483   C507    1.400   .     A
C484   C506    1.393   .     A
C485   N546    1.380   .     A
C485   O551    1.394   .     S
C485   C1927   1.431   1_554 S
C486   O552    1.398   .     S
C486   N545    1.376   .     A
C486   C1208   1.442   .     S
C487   N545    1.356   .     A
C487   H533    1.078   .     S
C487   C1205   1.431   .     S
C488   N546    1.361   .     A
C488   H539    1.076   .     S
C488   C1926   1.442   1_554 S
C489   C490    1.524   .     S
C489   O560    1.413   .     S
C489   H540    1.114   .     S
C489   H621    1.107   .     S
C490   H543    1.111   .     S
C490   H542    1.109   .     S
C490   H544    1.107   .     S
C491   H513    1.117   .     S
C491   O548    1.416   .     S
C491   C493    1.520   .     S
C491   H672    1.112   1_455 S
C492   O553    1.294   .     A
C492   O555    1.298   .     A
C493   H515    1.108   .     S
C493   H516    1.110   .     S
C493   H514    1.107   .     S
C494   H518    1.113   .     S
C494   O549    1.410   .     S
C494   H517    1.110   .     S
C494   C495    1.516   .     S
C495   H521    1.110   .     S
C495   H1959   1.110   1_554 S
C495   H1960   1.104   1_554 S
C496   C497    1.527   .     S
C496   H524    1.116   .     S
C496   O550    1.417   .     S
C496   H523    1.110   .     S
C497   H526    1.109   .     S
C497   H527    1.111   .     S
C498   C499    1.521   .     S
C498   O551    1.421   .     S
C498   H528    1.115   .     S
C498   H1969   1.109   1_554 S
C499   H530    1.103   .     S
C499   H532    1.106   .     S
C499   H531    1.110   .     S
C500   H535    1.106   .     S
C500   O552    1.415   .     S
C500   C1221   1.530   .     S
C500   H1254   1.107   .     S
C501   H537    1.106   .     S
C501   C1940   1.530   1_554 S
C501   H616    1.110   .     S
C501   H2058   1.109   1_554 S
C502   O556    1.285   .     A
C502   O558    1.299   .     A
C502   C504    1.444   .     S
C503   O557    1.282   .     A
C503   C505    1.445   .     S
C503   O559    1.300   .     A
C504   C665    1.360   1_455 S
C504   O720    1.387   1_455 S
C505   C584    1.360   .     S
C505   O628    1.387   .     S
C506   H511    1.076   .     S
C507   H522    1.079   .     S
C507   C2      1.390   1_565 S
C508   O549    1.382   .     S
C508   C26     1.386   1_565 S
Cu509  O556    1.966   .     S
Cu509  O547    1.967   .     S
Cu509  Cu510   2.689   .     S
Cu509  O559    1.972   .     S
Cu509  N545    2.021   .     S
Cu509  O555    1.965   .     S
Cu510  O554    1.965   .     S
Cu510  O557    1.966   .     S
Cu510  O553    1.967   .     S
Cu510  N546    2.021   .     S
Cu510  O558    1.972   .     S
H512   C571    1.112   .     S
H519   C1215   1.110   .     S
H520   C1215   1.104   .     S
H525   C17     1.109   1_565 S
H529   C1218   1.109   .     S
H534   C1940   1.107   1_554 S
H536   C661    1.110   1_455 S
H538   C1381   1.109   1_455 S
H541   C649    1.107   1_455 S
O548   C665    1.387   1_455 S
O560   C584    1.387   .     S
C561   O634    1.298   .     A
C561   C564    1.455   .     S
C561   O627    1.293   .     A
C562   C564    1.410   .     A
C562   O630    1.384   .     S
C563   C588    1.406   .     A
C563   C572    1.456   .     S
C563   C587    1.400   .     A
C564   C586    1.393   .     A
C565   N626    1.380   .     A
C565   O631    1.394   .     S
C565   C2007   1.431   1_554 S
C566   O632    1.398   .     S
C566   N625    1.376   .     A
C566   C1288   1.442   .     S
C567   N625    1.356   .     A
C567   H613    1.078   .     S
C567   C1285   1.431   .     S
C568   N626    1.361   .     A
C568   H619    1.076   .     S
C568   C2006   1.442   1_554 S
C569   C570    1.524   .     S
C569   O640    1.413   .     S
C569   H620    1.114   .     S
C569   H701    1.107   .     S
C570   H623    1.111   .     S
C570   H622    1.109   .     S
C570   H624    1.107   .     S
C571   H593    1.117   .     S
C571   O628    1.416   .     S
C571   C573    1.520   .     S
C572   O633    1.294   .     A
C572   O635    1.298   .     A
C573   H595    1.108   .     S
C573   H596    1.110   .     S
C573   H594    1.107   .     S
C574   H598    1.113   .     S
C574   O629    1.410   .     S
C574   H597    1.110   .     S
C574   C575    1.516   .     S
C575   H601    1.110   .     S
C575   H2039   1.110   1_554 S
C575   H2040   1.104   1_554 S
C576   C577    1.527   .     S
C576   H604    1.116   .     S
C576   O630    1.417   .     S
C576   H603    1.110   .     S
C577   H606    1.109   .     S
C577   H607    1.111   .     S
C578   C579    1.521   .     S
C578   O631    1.421   .     S
C578   H608    1.115   .     S
C578   H2049   1.109   1_554 S
C579   H610    1.103   .     S
C579   H612    1.106   .     S
C579   H611    1.110   .     S
C580   H615    1.106   .     S
C580   O632    1.415   .     S
C580   C1301   1.530   .     S
C580   H1334   1.107   .     S
C581   H617    1.106   .     S
C581   C2020   1.530   1_554 S
C581   H696    1.110   .     S
C581   H2138   1.109   1_554 S
C582   O636    1.285   .     A
C582   O638    1.299   .     A
C582   C584    1.444   .     S
C583   O637    1.282   .     A
C583   C585    1.445   .     S
C583   O639    1.300   .     A
C585   C664    1.360   .     S
C585   O708    1.387   .     S
C586   H591    1.076   .     S
C587   H602    1.079   .     S
C587   C82     1.390   1_565 S
C588   O629    1.382   .     S
C588   C106    1.386   1_565 S
Cu589  O636    1.966   .     S
Cu589  O627    1.967   .     S
Cu589  Cu590   2.689   .     S
Cu589  O639    1.972   .     S
Cu589  N625    2.021   .     S
Cu589  O635    1.965   .     S
Cu590  O634    1.965   .     S
Cu590  O637    1.966   .     S
Cu590  O633    1.967   .     S
Cu590  N626    2.021   .     S
Cu590  O638    1.972   .     S
H592   C651    1.112   .     S
H599   C1295   1.110   .     S
H600   C1295   1.104   .     S
H605   C97     1.109   1_565 S
H609   C1298   1.109   .     S
H614   C2020   1.107   1_554 S
H618   C1221   1.109   .     S
O640   C664    1.387   .     S
C641   O714    1.298   .     A
C641   C644    1.455   .     S
C641   O707    1.293   .     A
C642   C644    1.410   .     A
C642   O710    1.384   .     S
C643   C668    1.406   .     A
C643   C652    1.456   .     S
C643   C667    1.400   .     A
C644   C666    1.393   .     A
C645   N706    1.380   .     A
C645   O711    1.394   .     S
C645   C2087   1.431   1_554 S
C646   O712    1.398   .     S
C646   N705    1.376   .     A
C646   C1368   1.442   .     S
C647   N705    1.356   .     A
C647   H693    1.078   .     S
C647   C1365   1.431   .     S
C648   N706    1.361   .     A
C648   H699    1.076   .     S
C648   C2086   1.442   1_554 S
C649   C650    1.524   .     S
C649   O720    1.413   .     S
C649   H700    1.114   .     S
C649   H541    1.107   1_655 S
C650   H703    1.111   .     S
C650   H702    1.109   .     S
C650   H704    1.107   .     S
C651   H673    1.117   .     S
C651   O708    1.416   .     S
C651   C653    1.520   .     S
C652   O713    1.294   .     A
C652   O715    1.298   .     A
C653   H675    1.108   .     S
C653   H676    1.110   .     S
C653   H674    1.107   .     S
C654   H678    1.113   .     S
C654   O709    1.410   .     S
C654   H677    1.110   .     S
C654   C655    1.516   .     S
C655   H681    1.110   .     S
C655   H2119   1.110   1_554 S
C655   H2120   1.104   1_554 S
C656   C657    1.527   .     S
C656   H684    1.116   .     S
C656   O710    1.417   .     S
C656   H683    1.110   .     S
C657   H686    1.109   .     S
C657   H687    1.111   .     S
C658   C659    1.521   .     S
C658   O711    1.421   .     S
C658   H688    1.115   .     S
C658   H2129   1.109   1_554 S
C659   H690    1.103   .     S
C659   H692    1.106   .     S
C659   H691    1.110   .     S
C660   H695    1.106   .     S
C660   O712    1.415   .     S
C660   C1381   1.530   .     S
C660   H1414   1.107   .     S
C661   H697    1.106   .     S
C661   C2100   1.530   1_554 S
C661   H536    1.110   1_655 S
C661   H1978   1.109   1_654 S
C662   O716    1.285   .     A
C662   O718    1.299   .     A
C662   C664    1.444   .     S
C663   O717    1.282   .     A
C663   C665    1.445   .     S
C663   O719    1.300   .     A
C665   C504    1.360   1_655 S
C665   O548    1.387   1_655 S
C666   H671    1.076   .     S
C667   H682    1.079   .     S
C667   C162    1.390   1_565 S
C668   O709    1.382   .     S
C668   C186    1.386   1_565 S
Cu669  O716    1.966   .     S
Cu669  O707    1.967   .     S
Cu669  Cu670   2.689   .     S
Cu669  O719    1.972   .     S
Cu669  N705    2.021   .     S
Cu669  O715    1.965   .     S
Cu670  O714    1.965   .     S
Cu670  O717    1.966   .     S
Cu670  O713    1.967   .     S
Cu670  N706    2.021   .     S
Cu670  O718    1.972   .     S
H672   C491    1.112   1_655 S
H679   C1375   1.110   .     S
H680   C1375   1.104   .     S
H685   C177    1.109   1_565 S
H689   C1378   1.109   .     S
H694   C2100   1.107   1_554 S
H698   C1301   1.109   .     S
O720   C504    1.387   1_655 S
C721   O794    1.298   .     A
C721   C724    1.455   .     S
C721   O787    1.293   .     A
C722   C724    1.410   .     A
C722   O790    1.384   .     S
C722   C1227   1.390   1_545 S
C723   C748    1.406   .     A
C723   C732    1.456   .     S
C723   C747    1.400   .     A
C724   C746    1.393   .     A
C725   N786    1.380   .     A
C725   O791    1.394   .     S
C726   O792    1.398   .     S
C726   N785    1.376   .     A
C726   C1448   1.442   .     S
C727   N785    1.356   .     A
C727   H773    1.078   .     S
C727   C1445   1.431   .     S
C728   N786    1.361   .     A
C728   H779    1.076   .     S
C729   C730    1.524   .     S
C729   O800    1.413   .     S
C729   H780    1.114   .     S
C729   H861    1.107   .     S
C730   H783    1.111   .     S
C730   H782    1.109   .     S
C730   H784    1.107   .     S
C731   H753    1.117   .     S
C731   O788    1.416   .     S
C731   C733    1.520   .     S
C731   H912    1.112   1_455 S
C732   O793    1.294   .     A
C732   O795    1.298   .     A
C733   H755    1.108   .     S
C733   H756    1.110   .     S
C733   H754    1.107   .     S
C734   H758    1.113   .     S
C734   O789    1.410   .     S
C734   H757    1.110   .     S
C734   C735    1.516   .     S
C735   H761    1.110   .     S
C736   C737    1.527   .     S
C736   H764    1.116   .     S
C736   O790    1.417   .     S
C736   H763    1.110   .     S
C737   H766    1.109   .     S
C737   H767    1.111   .     S
C737   H1245   1.109   1_545 S
C738   C739    1.521   .     S
C738   O791    1.421   .     S
C738   H768    1.115   .     S
C739   H770    1.103   .     S
C739   H772    1.106   .     S
C739   H771    1.110   .     S
C740   H775    1.106   .     S
C740   O792    1.415   .     S
C740   C1461   1.530   .     S
C740   H1494   1.107   .     S
C741   H777    1.106   .     S
C741   H856    1.110   .     S
C742   O796    1.285   .     A
C742   O798    1.299   .     A
C742   C744    1.444   .     S
C743   O797    1.282   .     A
C743   C745    1.445   .     S
C743   O799    1.300   .     A
C744   C905    1.360   1_455 S
C744   O960    1.387   1_455 S
C745   C824    1.360   .     S
C745   O868    1.387   .     S
C746   H751    1.076   .     S
C746   C1228   1.386   1_545 S
C747   H762    1.079   .     S
C747   C962    1.390   .     S
C748   O789    1.382   .     S
C748   C986    1.386   .     S
Cu749  O796    1.966   .     S
Cu749  O787    1.967   .     S
Cu749  Cu750   2.689   .     S
Cu749  O799    1.972   .     S
Cu749  N785    2.021   .     S
Cu749  O795    1.965   .     S
Cu750  O794    1.965   .     S
Cu750  O797    1.966   .     S
Cu750  O793    1.967   .     S
Cu750  N786    2.021   .     S
Cu750  O798    1.972   .     S
H752   C811    1.112   .     S
H759   C1455   1.110   .     S
H760   C1455   1.104   .     S
H765   C977    1.109   .     S
H769   C1458   1.109   .     S
H776   C901    1.110   1_455 S
H778   C1621   1.109   1_455 S
H781   C889    1.107   1_455 S
O788   C905    1.387   1_455 S
O800   C824    1.387   .     S
C801   O874    1.298   .     A
C801   C804    1.455   .     S
C801   O867    1.293   .     A
C802   C804    1.410   .     A
C802   O870    1.384   .     S
C802   C1307   1.390   1_545 S
C803   C828    1.406   .     A
C803   C812    1.456   .     S
C803   C827    1.400   .     A
C804   C826    1.393   .     A
C805   N866    1.380   .     A
C805   O871    1.394   .     S
C806   O872    1.398   .     S
C806   N865    1.376   .     A
C806   C1528   1.442   .     S
C807   N865    1.356   .     A
C807   H853    1.078   .     S
C807   C1525   1.431   .     S
C808   N866    1.361   .     A
C808   H859    1.076   .     S
C809   C810    1.524   .     S
C809   O880    1.413   .     S
C809   H860    1.114   .     S
C809   H941    1.107   .     S
C810   H863    1.111   .     S
C810   H862    1.109   .     S
C810   H864    1.107   .     S
C811   H833    1.117   .     S
C811   O868    1.416   .     S
C811   C813    1.520   .     S
C812   O873    1.294   .     A
C812   O875    1.298   .     A
C813   H835    1.108   .     S
C813   H836    1.110   .     S
C813   H834    1.107   .     S
C814   H838    1.113   .     S
C814   O869    1.410   .     S
C814   H837    1.110   .     S
C814   C815    1.516   .     S
C815   H841    1.110   .     S
C816   C817    1.527   .     S
C816   H844    1.116   .     S
C816   O870    1.417   .     S
C816   H843    1.110   .     S
C817   H846    1.109   .     S
C817   H847    1.111   .     S
C817   H1325   1.109   1_545 S
C818   C819    1.521   .     S
C818   O871    1.421   .     S
C818   H848    1.115   .     S
C819   H850    1.103   .     S
C819   H852    1.106   .     S
C819   H851    1.110   .     S
C820   H855    1.106   .     S
C820   O872    1.415   .     S
C820   C1541   1.530   .     S
C820   H1574   1.107   .     S
C821   H857    1.106   .     S
C821   H936    1.110   .     S
C822   O876    1.285   .     A
C822   O878    1.299   .     A
C822   C824    1.444   .     S
C823   O877    1.282   .     A
C823   C825    1.445   .     S
C823   O879    1.300   .     A
C825   C904    1.360   .     S
C825   O948    1.387   .     S
C826   H831    1.076   .     S
C826   C1308   1.386   1_545 S
C827   H842    1.079   .     S
C827   C1042   1.390   .     S
C828   O869    1.382   .     S
C828   C1066   1.386   .     S
Cu829  O876    1.966   .     S
Cu829  O867    1.967   .     S
Cu829  Cu830   2.689   .     S
Cu829  O879    1.972   .     S
Cu829  N865    2.021   .     S
Cu829  O875    1.965   .     S
Cu830  O874    1.965   .     S
Cu830  O877    1.966   .     S
Cu830  O873    1.967   .     S
Cu830  N866    2.021   .     S
Cu830  O878    1.972   .     S
H832   C891    1.112   .     S
H839   C1535   1.110   .     S
H840   C1535   1.104   .     S
H845   C1057   1.109   .     S
H849   C1538   1.109   .     S
H858   C1461   1.109   .     S
O880   C904    1.387   .     S
C881   O954    1.298   .     A
C881   C884    1.455   .     S
C881   O947    1.293   .     A
C882   C884    1.410   .     A
C882   O950    1.384   .     S
C882   C1387   1.390   1_545 S
C883   C908    1.406   .     A
C883   C892    1.456   .     S
C883   C907    1.400   .     A
C884   C906    1.393   .     A
C885   N946    1.380   .     A
C885   O951    1.394   .     S
C886   O952    1.398   .     S
C886   N945    1.376   .     A
C886   C1608   1.442   .     S
C887   N945    1.356   .     A
C887   H933    1.078   .     S
C887   C1605   1.431   .     S
C888   N946    1.361   .     A
C888   H939    1.076   .     S
C889   C890    1.524   .     S
C889   O960    1.413   .     S
C889   H940    1.114   .     S
C889   H781    1.107   1_655 S
C890   H943    1.111   .     S
C890   H942    1.109   .     S
C890   H944    1.107   .     S
C891   H913    1.117   .     S
C891   O948    1.416   .     S
C891   C893    1.520   .     S
C892   O953    1.294   .     A
C892   O955    1.298   .     A
C893   H915    1.108   .     S
C893   H916    1.110   .     S
C893   H914    1.107   .     S
C894   H918    1.113   .     S
C894   O949    1.410   .     S
C894   H917    1.110   .     S
C894   C895    1.516   .     S
C895   H921    1.110   .     S
C896   C897    1.527   .     S
C896   H924    1.116   .     S
C896   O950    1.417   .     S
C896   H923    1.110   .     S
C897   H926    1.109   .     S
C897   H927    1.111   .     S
C897   H1405   1.109   1_545 S
C898   C899    1.521   .     S
C898   O951    1.421   .     S
C898   H928    1.115   .     S
C899   H930    1.103   .     S
C899   H932    1.106   .     S
C899   H931    1.110   .     S
C900   H935    1.106   .     S
C900   O952    1.415   .     S
C900   C1621   1.530   .     S
C900   H1654   1.107   .     S
C901   H937    1.106   .     S
C901   H776    1.110   1_655 S
C901   H58     1.109   1_655 S
C902   O956    1.285   .     A
C902   O958    1.299   .     A
C902   C904    1.444   .     S
C903   O957    1.282   .     A
C903   C905    1.445   .     S
C903   O959    1.300   .     A
C905   C744    1.360   1_655 S
C905   O788    1.387   1_655 S
C906   H911    1.076   .     S
C906   C1388   1.386   1_545 S
C907   H922    1.079   .     S
C907   C1122   1.390   .     S
C908   O949    1.382   .     S
C908   C1146   1.386   .     S
Cu909  O956    1.966   .     S
Cu909  O947    1.967   .     S
Cu909  Cu910   2.689   .     S
Cu909  O959    1.972   .     S
Cu909  N945    2.021   .     S
Cu909  O955    1.965   .     S
Cu910  O954    1.965   .     S
Cu910  O957    1.966   .     S
Cu910  O953    1.967   .     S
Cu910  N946    2.021   .     S
Cu910  O958    1.972   .     S
H912   C731    1.112   1_655 S
H919   C1615   1.110   .     S
H920   C1615   1.104   .     S
H925   C1137   1.109   .     S
H929   C1618   1.109   .     S
H938   C1541   1.109   .     S
O960   C744    1.387   1_655 S
C961   O1034   1.298   .     A
C961   C964    1.455   .     S
C961   O1027   1.293   .     A
C962   C964    1.410   .     A
C962   O1030   1.384   .     S
C963   C988    1.406   .     A
C963   C972    1.456   .     S
C963   C987    1.400   .     A
C964   C986    1.393   .     A
C965   N1026   1.380   .     A
C965   O1031   1.394   .     S
C966   O1032   1.398   .     S
C966   N1025   1.376   .     A
C966   C1688   1.442   .     S
C967   N1025   1.356   .     A
C967   H1013   1.078   .     S
C967   C1685   1.431   .     S
C968   N1026   1.361   .     A
C968   H1019   1.076   .     S
C969   C970    1.524   .     S
C969   O1040   1.413   .     S
C969   H1020   1.114   .     S
C969   H1101   1.107   .     S
C970   H1023   1.111   .     S
C970   H1022   1.109   .     S
C970   H1024   1.107   .     S
C971   H993    1.117   .     S
C971   O1028   1.416   .     S
C971   C973    1.520   .     S
C971   H1152   1.112   1_455 S
C972   O1033   1.294   .     A
C972   O1035   1.298   .     A
C973   H995    1.108   .     S
C973   H996    1.110   .     S
C973   H994    1.107   .     S
C974   H998    1.113   .     S
C974   O1029   1.410   .     S
C974   H997    1.110   .     S
C974   C975    1.516   .     S
C975   H1001   1.110   .     S
C976   C977    1.527   .     S
C976   H1004   1.116   .     S
C976   O1030   1.417   .     S
C976   H1003   1.110   .     S
C977   H1006   1.109   .     S
C977   H1007   1.111   .     S
C978   C979    1.521   .     S
C978   O1031   1.421   .     S
C978   H1008   1.115   .     S
C979   H1010   1.103   .     S
C979   H1012   1.106   .     S
C979   H1011   1.110   .     S
C980   H1015   1.106   .     S
C980   O1032   1.415   .     S
C980   C1701   1.530   .     S
C980   H1734   1.107   .     S
C981   H1017   1.106   .     S
C981   H1096   1.110   .     S
C982   O1036   1.285   .     A
C982   O1038   1.299   .     A
C982   C984    1.444   .     S
C983   O1037   1.282   .     A
C983   C985    1.445   .     S
C983   O1039   1.300   .     A
C984   C1145   1.360   1_455 S
C984   O1200   1.387   1_455 S
C985   C1064   1.360   .     S
C985   O1108   1.387   .     S
C986   H991    1.076   .     S
C987   H1002   1.079   .     S
C987   C1202   1.390   .     S
C988   O1029   1.382   .     S
C988   C1226   1.386   .     S
Cu989  O1036   1.966   .     S
Cu989  O1027   1.967   .     S
Cu989  Cu990   2.689   .     S
Cu989  O1039   1.972   .     S
Cu989  N1025   2.021   .     S
Cu989  O1035   1.965   .     S
Cu990  O1034   1.965   .     S
Cu990  O1037   1.966   .     S
Cu990  O1033   1.967   .     S
Cu990  N1026   2.021   .     S
Cu990  O1038   1.972   .     S
H992   C1051   1.112   .     S
H999   C1695   1.110   .     S
H1000  C1695   1.104   .     S
H1005  C1217   1.109   .     S
H1009  C1698   1.109   .     S
H1016  C1141   1.110   1_455 S
H1018  C1861   1.109   1_455 S
H1021  C1129   1.107   1_455 S
O1028  C1145   1.387   1_455 S
O1040  C1064   1.387   .     S
C1041  O1114   1.298   .     A
C1041  C1044   1.455   .     S
C1041  O1107   1.293   .     A
C1042  C1044   1.410   .     A
C1042  O1110   1.384   .     S
C1043  C1068   1.406   .     A
C1043  C1052   1.456   .     S
C1043  C1067   1.400   .     A
C1044  C1066   1.393   .     A
C1045  N1106   1.380   .     A
C1045  O1111   1.394   .     S
C1046  O1112   1.398   .     S
C1046  N1105   1.376   .     A
C1046  C1768   1.442   .     S
C1047  N1105   1.356   .     A
C1047  H1093   1.078   .     S
C1047  C1765   1.431   .     S
C1048  N1106   1.361   .     A
C1048  H1099   1.076   .     S
C1049  C1050   1.524   .     S
C1049  O1120   1.413   .     S
C1049  H1100   1.114   .     S
C1049  H1181   1.107   .     S
C1050  H1103   1.111   .     S
C1050  H1102   1.109   .     S
C1050  H1104   1.107   .     S
C1051  H1073   1.117   .     S
C1051  O1108   1.416   .     S
C1051  C1053   1.520   .     S
C1052  O1113   1.294   .     A
C1052  O1115   1.298   .     A
C1053  H1075   1.108   .     S
C1053  H1076   1.110   .     S
C1053  H1074   1.107   .     S
C1054  H1078   1.113   .     S
C1054  O1109   1.410   .     S
C1054  H1077   1.110   .     S
C1054  C1055   1.516   .     S
C1055  H1081   1.110   .     S
C1056  C1057   1.527   .     S
C1056  H1084   1.116   .     S
C1056  O1110   1.417   .     S
C1056  H1083   1.110   .     S
C1057  H1086   1.109   .     S
C1057  H1087   1.111   .     S
C1058  C1059   1.521   .     S
C1058  O1111   1.421   .     S
C1058  H1088   1.115   .     S
C1059  H1090   1.103   .     S
C1059  H1092   1.106   .     S
C1059  H1091   1.110   .     S
C1060  H1095   1.106   .     S
C1060  O1112   1.415   .     S
C1060  C1781   1.530   .     S
C1060  H1814   1.107   .     S
C1061  H1097   1.106   .     S
C1061  H1176   1.110   .     S
C1062  O1116   1.285   .     A
C1062  O1118   1.299   .     A
C1062  C1064   1.444   .     S
C1063  O1117   1.282   .     A
C1063  C1065   1.445   .     S
C1063  O1119   1.300   .     A
C1065  C1144   1.360   .     S
C1065  O1188   1.387   .     S
C1066  H1071   1.076   .     S
C1067  H1082   1.079   .     S
C1067  C1282   1.390   .     S
C1068  O1109   1.382   .     S
C1068  C1306   1.386   .     S
Cu1069 O1116   1.966   .     S
Cu1069 O1107   1.967   .     S
Cu1069 Cu1070  2.689   .     S
Cu1069 O1119   1.972   .     S
Cu1069 N1105   2.021   .     S
Cu1069 O1115   1.965   .     S
Cu1070 O1114   1.965   .     S
Cu1070 O1117   1.966   .     S
Cu1070 O1113   1.967   .     S
Cu1070 N1106   2.021   .     S
Cu1070 O1118   1.972   .     S
H1072  C1131   1.112   .     S
H1079  C1775   1.110   .     S
H1080  C1775   1.104   .     S
H1085  C1297   1.109   .     S
H1089  C1778   1.109   .     S
H1098  C1701   1.109   .     S
O1120  C1144   1.387   .     S
C1121  O1194   1.298   .     A
C1121  C1124   1.455   .     S
C1121  O1187   1.293   .     A
C1122  C1124   1.410   .     A
C1122  O1190   1.384   .     S
C1123  C1148   1.406   .     A
C1123  C1132   1.456   .     S
C1123  C1147   1.400   .     A
C1124  C1146   1.393   .     A
C1125  N1186   1.380   .     A
C1125  O1191   1.394   .     S
C1126  O1192   1.398   .     S
C1126  N1185   1.376   .     A
C1126  C1848   1.442   .     S
C1127  N1185   1.356   .     A
C1127  H1173   1.078   .     S
C1127  C1845   1.431   .     S
C1128  N1186   1.361   .     A
C1128  H1179   1.076   .     S
C1129  C1130   1.524   .     S
C1129  O1200   1.413   .     S
C1129  H1180   1.114   .     S
C1129  H1021   1.107   1_655 S
C1130  H1183   1.111   .     S
C1130  H1182   1.109   .     S
C1130  H1184   1.107   .     S
C1131  H1153   1.117   .     S
C1131  O1188   1.416   .     S
C1131  C1133   1.520   .     S
C1132  O1193   1.294   .     A
C1132  O1195   1.298   .     A
C1133  H1155   1.108   .     S
C1133  H1156   1.110   .     S
C1133  H1154   1.107   .     S
C1134  H1158   1.113   .     S
C1134  O1189   1.410   .     S
C1134  H1157   1.110   .     S
C1134  C1135   1.516   .     S
C1135  H1161   1.110   .     S
C1136  C1137   1.527   .     S
C1136  H1164   1.116   .     S
C1136  O1190   1.417   .     S
C1136  H1163   1.110   .     S
C1137  H1166   1.109   .     S
C1137  H1167   1.111   .     S
C1138  C1139   1.521   .     S
C1138  O1191   1.421   .     S
C1138  H1168   1.115   .     S
C1139  H1170   1.103   .     S
C1139  H1172   1.106   .     S
C1139  H1171   1.110   .     S
C1140  H1175   1.106   .     S
C1140  O1192   1.415   .     S
C1140  C1861   1.530   .     S
C1140  H1894   1.107   .     S
C1141  H1177   1.106   .     S
C1141  H1016   1.110   1_655 S
C1141  H298    1.109   1_655 S
C1142  O1196   1.285   .     A
C1142  O1198   1.299   .     A
C1142  C1144   1.444   .     S
C1143  O1197   1.282   .     A
C1143  C1145   1.445   .     S
C1143  O1199   1.300   .     A
C1145  C984    1.360   1_655 S
C1145  O1028   1.387   1_655 S
C1146  H1151   1.076   .     S
C1147  H1162   1.079   .     S
C1147  C1362   1.390   .     S
C1148  O1189   1.382   .     S
C1148  C1386   1.386   .     S
Cu1149 O1196   1.966   .     S
Cu1149 O1187   1.967   .     S
Cu1149 Cu1150  2.689   .     S
Cu1149 O1199   1.972   .     S
Cu1149 N1185   2.021   .     S
Cu1149 O1195   1.965   .     S
Cu1150 O1194   1.965   .     S
Cu1150 O1197   1.966   .     S
Cu1150 O1193   1.967   .     S
Cu1150 N1186   2.021   .     S
Cu1150 O1198   1.972   .     S
H1152  C971    1.112   1_655 S
H1159  C1855   1.110   .     S
H1160  C1855   1.104   .     S
H1165  C1377   1.109   .     S
H1169  C1858   1.109   .     S
H1178  C1781   1.109   .     S
O1200  C984    1.387   1_655 S
C1201  O1274   1.298   .     A
C1201  C1204   1.455   .     S
C1201  O1267   1.293   .     A
C1202  C1204   1.410   .     A
C1202  O1270   1.384   .     S
C1203  C1228   1.406   .     A
C1203  C1212   1.456   .     S
C1203  C1227   1.400   .     A
C1204  C1226   1.393   .     A
C1205  N1266   1.380   .     A
C1205  O1271   1.394   .     S
C1206  O1272   1.398   .     S
C1206  N1265   1.376   .     A
C1206  C1928   1.442   .     S
C1207  N1265   1.356   .     A
C1207  H1253   1.078   .     S
C1207  C1925   1.431   .     S
C1208  N1266   1.361   .     A
C1208  H1259   1.076   .     S
C1209  C1210   1.524   .     S
C1209  O1280   1.413   .     S
C1209  H1260   1.114   .     S
C1209  H1341   1.107   .     S
C1210  H1263   1.111   .     S
C1210  H1262   1.109   .     S
C1210  H1264   1.107   .     S
C1211  H1233   1.117   .     S
C1211  O1268   1.416   .     S
C1211  C1213   1.520   .     S
C1211  H1392   1.112   1_455 S
C1212  O1273   1.294   .     A
C1212  O1275   1.298   .     A
C1213  H1235   1.108   .     S
C1213  H1236   1.110   .     S
C1213  H1234   1.107   .     S
C1214  H1238   1.113   .     S
C1214  O1269   1.410   .     S
C1214  H1237   1.110   .     S
C1214  C1215   1.516   .     S
C1215  H1241   1.110   .     S
C1216  C1217   1.527   .     S
C1216  H1244   1.116   .     S
C1216  O1270   1.417   .     S
C1216  H1243   1.110   .     S
C1217  H1246   1.109   .     S
C1217  H1247   1.111   .     S
C1218  C1219   1.521   .     S
C1218  O1271   1.421   .     S
C1218  H1248   1.115   .     S
C1219  H1250   1.103   .     S
C1219  H1252   1.106   .     S
C1219  H1251   1.110   .     S
C1220  H1255   1.106   .     S
C1220  O1272   1.415   .     S
C1220  C1941   1.530   .     S
C1220  H1974   1.107   .     S
C1221  H1257   1.106   .     S
C1221  H1336   1.110   .     S
C1222  O1276   1.285   .     A
C1222  O1278   1.299   .     A
C1222  C1224   1.444   .     S
C1223  O1277   1.282   .     A
C1223  C1225   1.445   .     S
C1223  O1279   1.300   .     A
C1224  C1385   1.360   1_455 S
C1224  O1440   1.387   1_455 S
C1225  C1304   1.360   .     S
C1225  O1348   1.387   .     S
C1226  H1231   1.076   .     S
C1227  H1242   1.079   .     S
C1227  C722    1.390   1_565 S
C1228  O1269   1.382   .     S
C1228  C746    1.386   1_565 S
Cu1229 O1276   1.966   .     S
Cu1229 O1267   1.967   .     S
Cu1229 Cu1230  2.689   .     S
Cu1229 O1279   1.972   .     S
Cu1229 N1265   2.021   .     S
Cu1229 O1275   1.965   .     S
Cu1230 O1274   1.965   .     S
Cu1230 O1277   1.966   .     S
Cu1230 O1273   1.967   .     S
Cu1230 N1266   2.021   .     S
Cu1230 O1278   1.972   .     S
H1232  C1291   1.112   .     S
H1239  C1935   1.110   .     S
H1240  C1935   1.104   .     S
H1245  C737    1.109   1_565 S
H1249  C1938   1.109   .     S
H1256  C1381   1.110   1_455 S
H1258  C2101   1.109   1_455 S
H1261  C1369   1.107   1_455 S
O1268  C1385   1.387   1_455 S
O1280  C1304   1.387   .     S
C1281  O1354   1.298   .     A
C1281  C1284   1.455   .     S
C1281  O1347   1.293   .     A
C1282  C1284   1.410   .     A
C1282  O1350   1.384   .     S
C1283  C1308   1.406   .     A
C1283  C1292   1.456   .     S
C1283  C1307   1.400   .     A
C1284  C1306   1.393   .     A
C1285  N1346   1.380   .     A
C1285  O1351   1.394   .     S
C1286  O1352   1.398   .     S
C1286  N1345   1.376   .     A
C1286  C2008   1.442   .     S
C1287  N1345   1.356   .     A
C1287  H1333   1.078   .     S
C1287  C2005   1.431   .     S
C1288  N1346   1.361   .     A
C1288  H1339   1.076   .     S
C1289  C1290   1.524   .     S
C1289  O1360   1.413   .     S
C1289  H1340   1.114   .     S
C1289  H1421   1.107   .     S
C1290  H1343   1.111   .     S
C1290  H1342   1.109   .     S
C1290  H1344   1.107   .     S
C1291  H1313   1.117   .     S
C1291  O1348   1.416   .     S
C1291  C1293   1.520   .     S
C1292  O1353   1.294   .     A
C1292  O1355   1.298   .     A
C1293  H1315   1.108   .     S
C1293  H1316   1.110   .     S
C1293  H1314   1.107   .     S
C1294  H1318   1.113   .     S
C1294  O1349   1.410   .     S
C1294  H1317   1.110   .     S
C1294  C1295   1.516   .     S
C1295  H1321   1.110   .     S
C1296  C1297   1.527   .     S
C1296  H1324   1.116   .     S
C1296  O1350   1.417   .     S
C1296  H1323   1.110   .     S
C1297  H1326   1.109   .     S
C1297  H1327   1.111   .     S
C1298  C1299   1.521   .     S
C1298  O1351   1.421   .     S
C1298  H1328   1.115   .     S
C1299  H1330   1.103   .     S
C1299  H1332   1.106   .     S
C1299  H1331   1.110   .     S
C1300  H1335   1.106   .     S
C1300  O1352   1.415   .     S
C1300  C2021   1.530   .     S
C1300  H2054   1.107   .     S
C1301  H1337   1.106   .     S
C1301  H1416   1.110   .     S
C1302  O1356   1.285   .     A
C1302  O1358   1.299   .     A
C1302  C1304   1.444   .     S
C1303  O1357   1.282   .     A
C1303  C1305   1.445   .     S
C1303  O1359   1.300   .     A
C1305  C1384   1.360   .     S
C1305  O1428   1.387   .     S
C1306  H1311   1.076   .     S
C1307  H1322   1.079   .     S
C1307  C802    1.390   1_565 S
C1308  O1349   1.382   .     S
C1308  C826    1.386   1_565 S
Cu1309 O1356   1.966   .     S
Cu1309 O1347   1.967   .     S
Cu1309 Cu1310  2.689   .     S
Cu1309 O1359   1.972   .     S
Cu1309 N1345   2.021   .     S
Cu1309 O1355   1.965   .     S
Cu1310 O1354   1.965   .     S
Cu1310 O1357   1.966   .     S
Cu1310 O1353   1.967   .     S
Cu1310 N1346   2.021   .     S
Cu1310 O1358   1.972   .     S
H1312  C1371   1.112   .     S
H1319  C2015   1.110   .     S
H1320  C2015   1.104   .     S
H1325  C817    1.109   1_565 S
H1329  C2018   1.109   .     S
H1338  C1941   1.109   .     S
O1360  C1384   1.387   .     S
C1361  O1434   1.298   .     A
C1361  C1364   1.455   .     S
C1361  O1427   1.293   .     A
C1362  C1364   1.410   .     A
C1362  O1430   1.384   .     S
C1363  C1388   1.406   .     A
C1363  C1372   1.456   .     S
C1363  C1387   1.400   .     A
C1364  C1386   1.393   .     A
C1365  N1426   1.380   .     A
C1365  O1431   1.394   .     S
C1366  O1432   1.398   .     S
C1366  N1425   1.376   .     A
C1366  C2088   1.442   .     S
C1367  N1425   1.356   .     A
C1367  H1413   1.078   .     S
C1367  C2085   1.431   .     S
C1368  N1426   1.361   .     A
C1368  H1419   1.076   .     S
C1369  C1370   1.524   .     S
C1369  O1440   1.413   .     S
C1369  H1420   1.114   .     S
C1369  H1261   1.107   1_655 S
C1370  H1423   1.111   .     S
C1370  H1422   1.109   .     S
C1370  H1424   1.107   .     S
C1371  H1393   1.117   .     S
C1371  O1428   1.416   .     S
C1371  C1373   1.520   .     S
C1372  O1433   1.294   .     A
C1372  O1435   1.298   .     A
C1373  H1395   1.108   .     S
C1373  H1396   1.110   .     S
C1373  H1394   1.107   .     S
C1374  H1398   1.113   .     S
C1374  O1429   1.410   .     S
C1374  H1397   1.110   .     S
C1374  C1375   1.516   .     S
C1375  H1401   1.110   .     S
C1376  C1377   1.527   .     S
C1376  H1404   1.116   .     S
C1376  O1430   1.417   .     S
C1376  H1403   1.110   .     S
C1377  H1406   1.109   .     S
C1377  H1407   1.111   .     S
C1378  C1379   1.521   .     S
C1378  O1431   1.421   .     S
C1378  H1408   1.115   .     S
C1379  H1410   1.103   .     S
C1379  H1412   1.106   .     S
C1379  H1411   1.110   .     S
C1380  H1415   1.106   .     S
C1380  O1432   1.415   .     S
C1380  C2101   1.530   .     S
C1380  H2134   1.107   .     S
C1381  H1417   1.106   .     S
C1381  H1256   1.110   1_655 S
C1381  H538    1.109   1_655 S
C1382  O1436   1.285   .     A
C1382  O1438   1.299   .     A
C1382  C1384   1.444   .     S
C1383  O1437   1.282   .     A
C1383  C1385   1.445   .     S
C1383  O1439   1.300   .     A
C1385  C1224   1.360   1_655 S
C1385  O1268   1.387   1_655 S
C1386  H1391   1.076   .     S
C1387  H1402   1.079   .     S
C1387  C882    1.390   1_565 S
C1388  O1429   1.382   .     S
C1388  C906    1.386   1_565 S
Cu1389 O1436   1.966   .     S
Cu1389 O1427   1.967   .     S
Cu1389 Cu1390  2.689   .     S
Cu1389 O1439   1.972   .     S
Cu1389 N1425   2.021   .     S
Cu1389 O1435   1.965   .     S
Cu1390 O1434   1.965   .     S
Cu1390 O1437   1.966   .     S
Cu1390 O1433   1.967   .     S
Cu1390 N1426   2.021   .     S
Cu1390 O1438   1.972   .     S
H1392  C1211   1.112   1_655 S
H1399  C2095   1.110   .     S
H1400  C2095   1.104   .     S
H1405  C897    1.109   1_565 S
H1409  C2098   1.109   .     S
H1418  C2021   1.109   .     S
O1440  C1224   1.387   1_655 S
C1441  O1514   1.298   .     A
C1441  C1444   1.455   .     S
C1441  O1507   1.293   .     A
C1442  C1444   1.410   .     A
C1442  O1510   1.384   .     S
C1442  C1947   1.390   1_545 S
C1443  C1468   1.406   .     A
C1443  C1452   1.456   .     S
C1443  C1467   1.400   .     A
C1444  C1466   1.393   .     A
C1445  N1506   1.380   .     A
C1445  O1511   1.394   .     S
C1446  O1512   1.398   .     S
C1446  N1505   1.376   .     A
C1446  C8      1.442   1_556 S
C1447  N1505   1.356   .     A
C1447  H1493   1.078   .     S
C1447  C5      1.431   1_556 S
C1448  N1506   1.361   .     A
C1448  H1499   1.076   .     S
C1449  C1450   1.524   .     S
C1449  O1520   1.413   .     S
C1449  H1500   1.114   .     S
C1449  H1581   1.107   .     S
C1450  H1503   1.111   .     S
C1450  H1502   1.109   .     S
C1450  H1504   1.107   .     S
C1451  H1473   1.117   .     S
C1451  O1508   1.416   .     S
C1451  C1453   1.520   .     S
C1451  H1632   1.112   1_455 S
C1452  O1513   1.294   .     A
C1452  O1515   1.298   .     A
C1453  H1475   1.108   .     S
C1453  H1476   1.110   .     S
C1453  H1474   1.107   .     S
C1454  H1478   1.113   .     S
C1454  O1509   1.410   .     S
C1454  H1477   1.110   .     S
C1454  C1455   1.516   .     S
C1455  H1481   1.110   .     S
C1456  C1457   1.527   .     S
C1456  H1484   1.116   .     S
C1456  O1510   1.417   .     S
C1456  H1483   1.110   .     S
C1457  H1486   1.109   .     S
C1457  H1487   1.111   .     S
C1457  H1965   1.109   1_545 S
C1458  C1459   1.521   .     S
C1458  O1511   1.421   .     S
C1458  H1488   1.115   .     S
C1459  H1490   1.103   .     S
C1459  H1492   1.106   .     S
C1459  H1491   1.110   .     S
C1460  H1495   1.106   .     S
C1460  O1512   1.415   .     S
C1460  C21     1.530   1_556 S
C1460  H54     1.107   1_556 S
C1461  H1497   1.106   .     S
C1461  H1576   1.110   .     S
C1462  O1516   1.285   .     A
C1462  O1518   1.299   .     A
C1462  C1464   1.444   .     S
C1463  O1517   1.282   .     A
C1463  C1465   1.445   .     S
C1463  O1519   1.300   .     A
C1464  C1625   1.360   1_455 S
C1464  O1680   1.387   1_455 S
C1465  C1544   1.360   .     S
C1465  O1588   1.387   .     S
C1466  H1471   1.076   .     S
C1466  C1948   1.386   1_545 S
C1467  H1482   1.079   .     S
C1467  C1682   1.390   .     S
C1468  O1509   1.382   .     S
C1468  C1706   1.386   .     S
Cu1469 O1516   1.966   .     S
Cu1469 O1507   1.967   .     S
Cu1469 Cu1470  2.689   .     S
Cu1469 O1519   1.972   .     S
Cu1469 N1505   2.021   .     S
Cu1469 O1515   1.965   .     S
Cu1470 O1514   1.965   .     S
Cu1470 O1517   1.966   .     S
Cu1470 O1513   1.967   .     S
Cu1470 N1506   2.021   .     S
Cu1470 O1518   1.972   .     S
H1472  C1531   1.112   .     S
H1479  C15     1.110   1_556 S
H1480  C15     1.104   1_556 S
H1485  C1697   1.109   .     S
H1489  C18     1.109   1_556 S
H1496  C1621   1.110   1_455 S
H1498  C181    1.109   1_456 S
H1501  C1609   1.107   1_455 S
O1508  C1625   1.387   1_455 S
O1520  C1544   1.387   .     S
C1521  O1594   1.298   .     A
C1521  C1524   1.455   .     S
C1521  O1587   1.293   .     A
C1522  C1524   1.410   .     A
C1522  O1590   1.384   .     S
C1522  C2027   1.390   1_545 S
C1523  C1548   1.406   .     A
C1523  C1532   1.456   .     S
C1523  C1547   1.400   .     A
C1524  C1546   1.393   .     A
C1525  N1586   1.380   .     A
C1525  O1591   1.394   .     S
C1526  O1592   1.398   .     S
C1526  N1585   1.376   .     A
C1526  C88     1.442   1_556 S
C1527  N1585   1.356   .     A
C1527  H1573   1.078   .     S
C1527  C85     1.431   1_556 S
C1528  N1586   1.361   .     A
C1528  H1579   1.076   .     S
C1529  C1530   1.524   .     S
C1529  O1600   1.413   .     S
C1529  H1580   1.114   .     S
C1529  H1661   1.107   .     S
C1530  H1583   1.111   .     S
C1530  H1582   1.109   .     S
C1530  H1584   1.107   .     S
C1531  H1553   1.117   .     S
C1531  O1588   1.416   .     S
C1531  C1533   1.520   .     S
C1532  O1593   1.294   .     A
C1532  O1595   1.298   .     A
C1533  H1555   1.108   .     S
C1533  H1556   1.110   .     S
C1533  H1554   1.107   .     S
C1534  H1558   1.113   .     S
C1534  O1589   1.410   .     S
C1534  H1557   1.110   .     S
C1534  C1535   1.516   .     S
C1535  H1561   1.110   .     S
C1536  C1537   1.527   .     S
C1536  H1564   1.116   .     S
C1536  O1590   1.417   .     S
C1536  H1563   1.110   .     S
C1537  H1566   1.109   .     S
C1537  H1567   1.111   .     S
C1537  H2045   1.109   1_545 S
C1538  C1539   1.521   .     S
C1538  O1591   1.421   .     S
C1538  H1568   1.115   .     S
C1539  H1570   1.103   .     S
C1539  H1572   1.106   .     S
C1539  H1571   1.110   .     S
C1540  H1575   1.106   .     S
C1540  O1592   1.415   .     S
C1540  C101    1.530   1_556 S
C1540  H134    1.107   1_556 S
C1541  H1577   1.106   .     S
C1541  H1656   1.110   .     S
C1542  O1596   1.285   .     A
C1542  O1598   1.299   .     A
C1542  C1544   1.444   .     S
C1543  O1597   1.282   .     A
C1543  C1545   1.445   .     S
C1543  O1599   1.300   .     A
C1545  C1624   1.360   .     S
C1545  O1668   1.387   .     S
C1546  H1551   1.076   .     S
C1546  C2028   1.386   1_545 S
C1547  H1562   1.079   .     S
C1547  C1762   1.390   .     S
C1548  O1589   1.382   .     S
C1548  C1786   1.386   .     S
Cu1549 O1596   1.966   .     S
Cu1549 O1587   1.967   .     S
Cu1549 Cu1550  2.689   .     S
Cu1549 O1599   1.972   .     S
Cu1549 N1585   2.021   .     S
Cu1549 O1595   1.965   .     S
Cu1550 O1594   1.965   .     S
Cu1550 O1597   1.966   .     S
Cu1550 O1593   1.967   .     S
Cu1550 N1586   2.021   .     S
Cu1550 O1598   1.972   .     S
H1552  C1611   1.112   .     S
H1559  C95     1.110   1_556 S
H1560  C95     1.104   1_556 S
H1565  C1777   1.109   .     S
H1569  C98     1.109   1_556 S
H1578  C21     1.109   1_556 S
O1600  C1624   1.387   .     S
C1601  O1674   1.298   .     A
C1601  C1604   1.455   .     S
C1601  O1667   1.293   .     A
C1602  C1604   1.410   .     A
C1602  O1670   1.384   .     S
C1602  C2107   1.390   1_545 S
C1603  C1628   1.406   .     A
C1603  C1612   1.456   .     S
C1603  C1627   1.400   .     A
C1604  C1626   1.393   .     A
C1605  N1666   1.380   .     A
C1605  O1671   1.394   .     S
C1606  O1672   1.398   .     S
C1606  N1665   1.376   .     A
C1606  C168    1.442   1_556 S
C1607  N1665   1.356   .     A
C1607  H1653   1.078   .     S
C1607  C165    1.431   1_556 S
C1608  N1666   1.361   .     A
C1608  H1659   1.076   .     S
C1609  C1610   1.524   .     S
C1609  O1680   1.413   .     S
C1609  H1660   1.114   .     S
C1609  H1501   1.107   1_655 S
C1610  H1663   1.111   .     S
C1610  H1662   1.109   .     S
C1610  H1664   1.107   .     S
C1611  H1633   1.117   .     S
C1611  O1668   1.416   .     S
C1611  C1613   1.520   .     S
C1612  O1673   1.294   .     A
C1612  O1675   1.298   .     A
C1613  H1635   1.108   .     S
C1613  H1636   1.110   .     S
C1613  H1634   1.107   .     S
C1614  H1638   1.113   .     S
C1614  O1669   1.410   .     S
C1614  H1637   1.110   .     S
C1614  C1615   1.516   .     S
C1615  H1641   1.110   .     S
C1616  C1617   1.527   .     S
C1616  H1644   1.116   .     S
C1616  O1670   1.417   .     S
C1616  H1643   1.110   .     S
C1617  H1646   1.109   .     S
C1617  H1647   1.111   .     S
C1617  H2125   1.109   1_545 S
C1618  C1619   1.521   .     S
C1618  O1671   1.421   .     S
C1618  H1648   1.115   .     S
C1619  H1650   1.103   .     S
C1619  H1652   1.106   .     S
C1619  H1651   1.110   .     S
C1620  H1655   1.106   .     S
C1620  O1672   1.415   .     S
C1620  C181    1.530   1_556 S
C1620  H214    1.107   1_556 S
C1621  H1657   1.106   .     S
C1621  H1496   1.110   1_655 S
C1621  H778    1.109   1_655 S
C1622  O1676   1.285   .     A
C1622  O1678   1.299   .     A
C1622  C1624   1.444   .     S
C1623  O1677   1.282   .     A
C1623  C1625   1.445   .     S
C1623  O1679   1.300   .     A
C1625  C1464   1.360   1_655 S
C1625  O1508   1.387   1_655 S
C1626  H1631   1.076   .     S
C1626  C2108   1.386   1_545 S
C1627  H1642   1.079   .     S
C1627  C1842   1.390   .     S
C1628  O1669   1.382   .     S
C1628  C1866   1.386   .     S
Cu1629 O1676   1.966   .     S
Cu1629 O1667   1.967   .     S
Cu1629 Cu1630  2.689   .     S
Cu1629 O1679   1.972   .     S
Cu1629 N1665   2.021   .     S
Cu1629 O1675   1.965   .     S
Cu1630 O1674   1.965   .     S
Cu1630 O1677   1.966   .     S
Cu1630 O1673   1.967   .     S
Cu1630 N1666   2.021   .     S
Cu1630 O1678   1.972   .     S
H1632  C1451   1.112   1_655 S
H1639  C175    1.110   1_556 S
H1640  C175    1.104   1_556 S
H1645  C1857   1.109   .     S
H1649  C178    1.109   1_556 S
H1658  C101    1.109   1_556 S
O1680  C1464   1.387   1_655 S
C1681  O1754   1.298   .     A
C1681  C1684   1.455   .     S
C1681  O1747   1.293   .     A
C1682  C1684   1.410   .     A
C1682  O1750   1.384   .     S
C1683  C1708   1.406   .     A
C1683  C1692   1.456   .     S
C1683  C1707   1.400   .     A
C1684  C1706   1.393   .     A
C1685  N1746   1.380   .     A
C1685  O1751   1.394   .     S
C1686  O1752   1.398   .     S
C1686  N1745   1.376   .     A
C1686  C248    1.442   1_556 S
C1687  N1745   1.356   .     A
C1687  H1733   1.078   .     S
C1687  C245    1.431   1_556 S
C1688  N1746   1.361   .     A
C1688  H1739   1.076   .     S
C1689  C1690   1.524   .     S
C1689  O1760   1.413   .     S
C1689  H1740   1.114   .     S
C1689  H1821   1.107   .     S
C1690  H1743   1.111   .     S
C1690  H1742   1.109   .     S
C1690  H1744   1.107   .     S
C1691  H1713   1.117   .     S
C1691  O1748   1.416   .     S
C1691  C1693   1.520   .     S
C1691  H1872   1.112   1_455 S
C1692  O1753   1.294   .     A
C1692  O1755   1.298   .     A
C1693  H1715   1.108   .     S
C1693  H1716   1.110   .     S
C1693  H1714   1.107   .     S
C1694  H1718   1.113   .     S
C1694  O1749   1.410   .     S
C1694  H1717   1.110   .     S
C1694  C1695   1.516   .     S
C1695  H1721   1.110   .     S
C1696  C1697   1.527   .     S
C1696  H1724   1.116   .     S
C1696  O1750   1.417   .     S
C1696  H1723   1.110   .     S
C1697  H1726   1.109   .     S
C1697  H1727   1.111   .     S
C1698  C1699   1.521   .     S
C1698  O1751   1.421   .     S
C1698  H1728   1.115   .     S
C1699  H1730   1.103   .     S
C1699  H1732   1.106   .     S
C1699  H1731   1.110   .     S
C1700  H1735   1.106   .     S
C1700  O1752   1.415   .     S
C1700  C261    1.530   1_556 S
C1700  H294    1.107   1_556 S
C1701  H1737   1.106   .     S
C1701  H1816   1.110   .     S
C1702  O1756   1.285   .     A
C1702  O1758   1.299   .     A
C1702  C1704   1.444   .     S
C1703  O1757   1.282   .     A
C1703  C1705   1.445   .     S
C1703  O1759   1.300   .     A
C1704  C1865   1.360   1_455 S
C1704  O1920   1.387   1_455 S
C1705  C1784   1.360   .     S
C1705  O1828   1.387   .     S
C1706  H1711   1.076   .     S
C1707  H1722   1.079   .     S
C1707  C1922   1.390   .     S
C1708  O1749   1.382   .     S
C1708  C1946   1.386   .     S
Cu1709 O1756   1.966   .     S
Cu1709 O1747   1.967   .     S
Cu1709 Cu1710  2.689   .     S
Cu1709 O1759   1.972   .     S
Cu1709 N1745   2.021   .     S
Cu1709 O1755   1.965   .     S
Cu1710 O1754   1.965   .     S
Cu1710 O1757   1.966   .     S
Cu1710 O1753   1.967   .     S
Cu1710 N1746   2.021   .     S
Cu1710 O1758   1.972   .     S
H1712  C1771   1.112   .     S
H1719  C255    1.110   1_556 S
H1720  C255    1.104   1_556 S
H1725  C1937   1.109   .     S
H1729  C258    1.109   1_556 S
H1736  C1861   1.110   1_455 S
H1738  C421    1.109   1_456 S
H1741  C1849   1.107   1_455 S
O1748  C1865   1.387   1_455 S
O1760  C1784   1.387   .     S
C1761  O1834   1.298   .     A
C1761  C1764   1.455   .     S
C1761  O1827   1.293   .     A
C1762  C1764   1.410   .     A
C1762  O1830   1.384   .     S
C1763  C1788   1.406   .     A
C1763  C1772   1.456   .     S
C1763  C1787   1.400   .     A
C1764  C1786   1.393   .     A
C1765  N1826   1.380   .     A
C1765  O1831   1.394   .     S
C1766  O1832   1.398   .     S
C1766  N1825   1.376   .     A
C1766  C328    1.442   1_556 S
C1767  N1825   1.356   .     A
C1767  H1813   1.078   .     S
C1767  C325    1.431   1_556 S
C1768  N1826   1.361   .     A
C1768  H1819   1.076   .     S
C1769  C1770   1.524   .     S
C1769  O1840   1.413   .     S
C1769  H1820   1.114   .     S
C1769  H1901   1.107   .     S
C1770  H1823   1.111   .     S
C1770  H1822   1.109   .     S
C1770  H1824   1.107   .     S
C1771  H1793   1.117   .     S
C1771  O1828   1.416   .     S
C1771  C1773   1.520   .     S
C1772  O1833   1.294   .     A
C1772  O1835   1.298   .     A
C1773  H1795   1.108   .     S
C1773  H1796   1.110   .     S
C1773  H1794   1.107   .     S
C1774  H1798   1.113   .     S
C1774  O1829   1.410   .     S
C1774  H1797   1.110   .     S
C1774  C1775   1.516   .     S
C1775  H1801   1.110   .     S
C1776  C1777   1.527   .     S
C1776  H1804   1.116   .     S
C1776  O1830   1.417   .     S
C1776  H1803   1.110   .     S
C1777  H1806   1.109   .     S
C1777  H1807   1.111   .     S
C1778  C1779   1.521   .     S
C1778  O1831   1.421   .     S
C1778  H1808   1.115   .     S
C1779  H1810   1.103   .     S
C1779  H1812   1.106   .     S
C1779  H1811   1.110   .     S
C1780  H1815   1.106   .     S
C1780  O1832   1.415   .     S
C1780  C341    1.530   1_556 S
C1780  H374    1.107   1_556 S
C1781  H1817   1.106   .     S
C1781  H1896   1.110   .     S
C1782  O1836   1.285   .     A
C1782  O1838   1.299   .     A
C1782  C1784   1.444   .     S
C1783  O1837   1.282   .     A
C1783  C1785   1.445   .     S
C1783  O1839   1.300   .     A
C1785  C1864   1.360   .     S
C1785  O1908   1.387   .     S
C1786  H1791   1.076   .     S
C1787  H1802   1.079   .     S
C1787  C2002   1.390   .     S
C1788  O1829   1.382   .     S
C1788  C2026   1.386   .     S
Cu1789 O1836   1.966   .     S
Cu1789 O1827   1.967   .     S
Cu1789 Cu1790  2.689   .     S
Cu1789 O1839   1.972   .     S
Cu1789 N1825   2.021   .     S
Cu1789 O1835   1.965   .     S
Cu1790 O1834   1.965   .     S
Cu1790 O1837   1.966   .     S
Cu1790 O1833   1.967   .     S
Cu1790 N1826   2.021   .     S
Cu1790 O1838   1.972   .     S
H1792  C1851   1.112   .     S
H1799  C335    1.110   1_556 S
H1800  C335    1.104   1_556 S
H1805  C2017   1.109   .     S
H1809  C338    1.109   1_556 S
H1818  C261    1.109   1_556 S
O1840  C1864   1.387   .     S
C1841  O1914   1.298   .     A
C1841  C1844   1.455   .     S
C1841  O1907   1.293   .     A
C1842  C1844   1.410   .     A
C1842  O1910   1.384   .     S
C1843  C1868   1.406   .     A
C1843  C1852   1.456   .     S
C1843  C1867   1.400   .     A
C1844  C1866   1.393   .     A
C1845  N1906   1.380   .     A
C1845  O1911   1.394   .     S
C1846  O1912   1.398   .     S
C1846  N1905   1.376   .     A
C1846  C408    1.442   1_556 S
C1847  N1905   1.356   .     A
C1847  H1893   1.078   .     S
C1847  C405    1.431   1_556 S
C1848  N1906   1.361   .     A
C1848  H1899   1.076   .     S
C1849  C1850   1.524   .     S
C1849  O1920   1.413   .     S
C1849  H1900   1.114   .     S
C1849  H1741   1.107   1_655 S
C1850  H1903   1.111   .     S
C1850  H1902   1.109   .     S
C1850  H1904   1.107   .     S
C1851  H1873   1.117   .     S
C1851  O1908   1.416   .     S
C1851  C1853   1.520   .     S
C1852  O1913   1.294   .     A
C1852  O1915   1.298   .     A
C1853  H1875   1.108   .     S
C1853  H1876   1.110   .     S
C1853  H1874   1.107   .     S
C1854  H1878   1.113   .     S
C1854  O1909   1.410   .     S
C1854  H1877   1.110   .     S
C1854  C1855   1.516   .     S
C1855  H1881   1.110   .     S
C1856  C1857   1.527   .     S
C1856  H1884   1.116   .     S
C1856  O1910   1.417   .     S
C1856  H1883   1.110   .     S
C1857  H1886   1.109   .     S
C1857  H1887   1.111   .     S
C1858  C1859   1.521   .     S
C1858  O1911   1.421   .     S
C1858  H1888   1.115   .     S
C1859  H1890   1.103   .     S
C1859  H1892   1.106   .     S
C1859  H1891   1.110   .     S
C1860  H1895   1.106   .     S
C1860  O1912   1.415   .     S
C1860  C421    1.530   1_556 S
C1860  H454    1.107   1_556 S
C1861  H1897   1.106   .     S
C1861  H1736   1.110   1_655 S
C1861  H1018   1.109   1_655 S
C1862  O1916   1.285   .     A
C1862  O1918   1.299   .     A
C1862  C1864   1.444   .     S
C1863  O1917   1.282   .     A
C1863  C1865   1.445   .     S
C1863  O1919   1.300   .     A
C1865  C1704   1.360   1_655 S
C1865  O1748   1.387   1_655 S
C1866  H1871   1.076   .     S
C1867  H1882   1.079   .     S
C1867  C2082   1.390   .     S
C1868  O1909   1.382   .     S
C1868  C2106   1.386   .     S
Cu1869 O1916   1.966   .     S
Cu1869 O1907   1.967   .     S
Cu1869 Cu1870  2.689   .     S
Cu1869 O1919   1.972   .     S
Cu1869 N1905   2.021   .     S
Cu1869 O1915   1.965   .     S
Cu1870 O1914   1.965   .     S
Cu1870 O1917   1.966   .     S
Cu1870 O1913   1.967   .     S
Cu1870 N1906   2.021   .     S
Cu1870 O1918   1.972   .     S
H1872  C1691   1.112   1_655 S
H1879  C415    1.110   1_556 S
H1880  C415    1.104   1_556 S
H1885  C2097   1.109   .     S
H1889  C418    1.109   1_556 S
H1898  C341    1.109   1_556 S
O1920  C1704   1.387   1_655 S
C1921  O1994   1.298   .     A
C1921  C1924   1.455   .     S
C1921  O1987   1.293   .     A
C1922  C1924   1.410   .     A
C1922  O1990   1.384   .     S
C1923  C1948   1.406   .     A
C1923  C1932   1.456   .     S
C1923  C1947   1.400   .     A
C1924  C1946   1.393   .     A
C1925  N1986   1.380   .     A
C1925  O1991   1.394   .     S
C1926  O1992   1.398   .     S
C1926  N1985   1.376   .     A
C1926  C488    1.442   1_556 S
C1927  N1985   1.356   .     A
C1927  H1973   1.078   .     S
C1927  C485    1.431   1_556 S
C1928  N1986   1.361   .     A
C1928  H1979   1.076   .     S
C1929  C1930   1.524   .     S
C1929  O2000   1.413   .     S
C1929  H1980   1.114   .     S
C1929  H2061   1.107   .     S
C1930  H1983   1.111   .     S
C1930  H1982   1.109   .     S
C1930  H1984   1.107   .     S
C1931  H1953   1.117   .     S
C1931  O1988   1.416   .     S
C1931  C1933   1.520   .     S
C1931  H2112   1.112   1_455 S
C1932  O1993   1.294   .     A
C1932  O1995   1.298   .     A
C1933  H1955   1.108   .     S
C1933  H1956   1.110   .     S
C1933  H1954   1.107   .     S
C1934  H1958   1.113   .     S
C1934  O1989   1.410   .     S
C1934  H1957   1.110   .     S
C1934  C1935   1.516   .     S
C1935  H1961   1.110   .     S
C1936  C1937   1.527   .     S
C1936  H1964   1.116   .     S
C1936  O1990   1.417   .     S
C1936  H1963   1.110   .     S
C1937  H1966   1.109   .     S
C1937  H1967   1.111   .     S
C1938  C1939   1.521   .     S
C1938  O1991   1.421   .     S
C1938  H1968   1.115   .     S
C1939  H1970   1.103   .     S
C1939  H1972   1.106   .     S
C1939  H1971   1.110   .     S
C1940  H1975   1.106   .     S
C1940  O1992   1.415   .     S
C1940  C501    1.530   1_556 S
C1940  H534    1.107   1_556 S
C1941  H1977   1.106   .     S
C1941  H2056   1.110   .     S
C1942  O1996   1.285   .     A
C1942  O1998   1.299   .     A
C1942  C1944   1.444   .     S
C1943  O1997   1.282   .     A
C1943  C1945   1.445   .     S
C1943  O1999   1.300   .     A
C1944  C2105   1.360   1_455 S
C1944  O2160   1.387   1_455 S
C1945  C2024   1.360   .     S
C1945  O2068   1.387   .     S
C1946  H1951   1.076   .     S
C1947  H1962   1.079   .     S
C1947  C1442   1.390   1_565 S
C1948  O1989   1.382   .     S
C1948  C1466   1.386   1_565 S
Cu1949 O1996   1.966   .     S
Cu1949 O1987   1.967   .     S
Cu1949 Cu1950  2.689   .     S
Cu1949 O1999   1.972   .     S
Cu1949 N1985   2.021   .     S
Cu1949 O1995   1.965   .     S
Cu1950 O1994   1.965   .     S
Cu1950 O1997   1.966   .     S
Cu1950 O1993   1.967   .     S
Cu1950 N1986   2.021   .     S
Cu1950 O1998   1.972   .     S
H1952  C2011   1.112   .     S
H1959  C495    1.110   1_556 S
H1960  C495    1.104   1_556 S
H1965  C1457   1.109   1_565 S
H1969  C498    1.109   1_556 S
H1976  C2101   1.110   1_455 S
H1978  C661    1.109   1_456 S
H1981  C2089   1.107   1_455 S
O1988  C2105   1.387   1_455 S
O2000  C2024   1.387   .     S
C2001  O2074   1.298   .     A
C2001  C2004   1.455   .     S
C2001  O2067   1.293   .     A
C2002  C2004   1.410   .     A
C2002  O2070   1.384   .     S
C2003  C2028   1.406   .     A
C2003  C2012   1.456   .     S
C2003  C2027   1.400   .     A
C2004  C2026   1.393   .     A
C2005  N2066   1.380   .     A
C2005  O2071   1.394   .     S
C2006  O2072   1.398   .     S
C2006  N2065   1.376   .     A
C2006  C568    1.442   1_556 S
C2007  N2065   1.356   .     A
C2007  H2053   1.078   .     S
C2007  C565    1.431   1_556 S
C2008  N2066   1.361   .     A
C2008  H2059   1.076   .     S
C2009  C2010   1.524   .     S
C2009  O2080   1.413   .     S
C2009  H2060   1.114   .     S
C2009  H2141   1.107   .     S
C2010  H2063   1.111   .     S
C2010  H2062   1.109   .     S
C2010  H2064   1.107   .     S
C2011  H2033   1.117   .     S
C2011  O2068   1.416   .     S
C2011  C2013   1.520   .     S
C2012  O2073   1.294   .     A
C2012  O2075   1.298   .     A
C2013  H2035   1.108   .     S
C2013  H2036   1.110   .     S
C2013  H2034   1.107   .     S
C2014  H2038   1.113   .     S
C2014  O2069   1.410   .     S
C2014  H2037   1.110   .     S
C2014  C2015   1.516   .     S
C2015  H2041   1.110   .     S
C2016  C2017   1.527   .     S
C2016  H2044   1.116   .     S
C2016  O2070   1.417   .     S
C2016  H2043   1.110   .     S
C2017  H2046   1.109   .     S
C2017  H2047   1.111   .     S
C2018  C2019   1.521   .     S
C2018  O2071   1.421   .     S
C2018  H2048   1.115   .     S
C2019  H2050   1.103   .     S
C2019  H2052   1.106   .     S
C2019  H2051   1.110   .     S
C2020  H2055   1.106   .     S
C2020  O2072   1.415   .     S
C2020  C581    1.530   1_556 S
C2020  H614    1.107   1_556 S
C2021  H2057   1.106   .     S
C2021  H2136   1.110   .     S
C2022  O2076   1.285   .     A
C2022  O2078   1.299   .     A
C2022  C2024   1.444   .     S
C2023  O2077   1.282   .     A
C2023  C2025   1.445   .     S
C2023  O2079   1.300   .     A
C2025  C2104   1.360   .     S
C2025  O2148   1.387   .     S
C2026  H2031   1.076   .     S
C2027  H2042   1.079   .     S
C2027  C1522   1.390   1_565 S
C2028  O2069   1.382   .     S
C2028  C1546   1.386   1_565 S
Cu2029 O2076   1.966   .     S
Cu2029 O2067   1.967   .     S
Cu2029 Cu2030  2.689   .     S
Cu2029 O2079   1.972   .     S
Cu2029 N2065   2.021   .     S
Cu2029 O2075   1.965   .     S
Cu2030 O2074   1.965   .     S
Cu2030 O2077   1.966   .     S
Cu2030 O2073   1.967   .     S
Cu2030 N2066   2.021   .     S
Cu2030 O2078   1.972   .     S
H2032  C2091   1.112   .     S
H2039  C575    1.110   1_556 S
H2040  C575    1.104   1_556 S
H2045  C1537   1.109   1_565 S
H2049  C578    1.109   1_556 S
H2058  C501    1.109   1_556 S
O2080  C2104   1.387   .     S
C2081  O2154   1.298   .     A
C2081  C2084   1.455   .     S
C2081  O2147   1.293   .     A
C2082  C2084   1.410   .     A
C2082  O2150   1.384   .     S
C2083  C2108   1.406   .     A
C2083  C2092   1.456   .     S
C2083  C2107   1.400   .     A
C2084  C2106   1.393   .     A
C2085  N2146   1.380   .     A
C2085  O2151   1.394   .     S
C2086  O2152   1.398   .     S
C2086  N2145   1.376   .     A
C2086  C648    1.442   1_556 S
C2087  N2145   1.356   .     A
C2087  H2133   1.078   .     S
C2087  C645    1.431   1_556 S
C2088  N2146   1.361   .     A
C2088  H2139   1.076   .     S
C2089  C2090   1.524   .     S
C2089  O2160   1.413   .     S
C2089  H2140   1.114   .     S
C2089  H1981   1.107   1_655 S
C2090  H2143   1.111   .     S
C2090  H2142   1.109   .     S
C2090  H2144   1.107   .     S
C2091  H2113   1.117   .     S
C2091  O2148   1.416   .     S
C2091  C2093   1.520   .     S
C2092  O2153   1.294   .     A
C2092  O2155   1.298   .     A
C2093  H2115   1.108   .     S
C2093  H2116   1.110   .     S
C2093  H2114   1.107   .     S
C2094  H2118   1.113   .     S
C2094  O2149   1.410   .     S
C2094  H2117   1.110   .     S
C2094  C2095   1.516   .     S
C2095  H2121   1.110   .     S
C2096  C2097   1.527   .     S
C2096  H2124   1.116   .     S
C2096  O2150   1.417   .     S
C2096  H2123   1.110   .     S
C2097  H2126   1.109   .     S
C2097  H2127   1.111   .     S
C2098  C2099   1.521   .     S
C2098  O2151   1.421   .     S
C2098  H2128   1.115   .     S
C2099  H2130   1.103   .     S
C2099  H2132   1.106   .     S
C2099  H2131   1.110   .     S
C2100  H2135   1.106   .     S
C2100  O2152   1.415   .     S
C2100  C661    1.530   1_556 S
C2100  H694    1.107   1_556 S
C2101  H2137   1.106   .     S
C2101  H1976   1.110   1_655 S
C2101  H1258   1.109   1_655 S
C2102  O2156   1.285   .     A
C2102  O2158   1.299   .     A
C2102  C2104   1.444   .     S
C2103  O2157   1.282   .     A
C2103  C2105   1.445   .     S
C2103  O2159   1.300   .     A
C2105  C1944   1.360   1_655 S
C2105  O1988   1.387   1_655 S
C2106  H2111   1.076   .     S
C2107  H2122   1.079   .     S
C2107  C1602   1.390   1_565 S
C2108  O2149   1.382   .     S
C2108  C1626   1.386   1_565 S
Cu2109 O2156   1.966   .     S
Cu2109 O2147   1.967   .     S
Cu2109 Cu2110  2.689   .     S
Cu2109 O2159   1.972   .     S
Cu2109 N2145   2.021   .     S
Cu2109 O2155   1.965   .     S
Cu2110 O2154   1.965   .     S
Cu2110 O2157   1.966   .     S
Cu2110 O2153   1.967   .     S
Cu2110 N2146   2.021   .     S
Cu2110 O2158   1.972   .     S
H2112  C1931   1.112   1_655 S
H2119  C655    1.110   1_556 S
H2120  C655    1.104   1_556 S
H2125  C1617   1.109   1_565 S
H2129  C658    1.109   1_556 S
H2138  C581    1.109   1_556 S
O2160  C1944   1.387   1_655 S
