data_str_m2_o1_o16_pcu_sym.149
_audit_creation_date              2020-01-03
_audit_creation_method            'Materials Studio'
_symmetry_space_group_name_H-M    'P1'
_symmetry_Int_Tables_number       1
_symmetry_cell_setting            triclinic
loop_
_symmetry_equiv_pos_as_xyz
  x,y,z
_cell_length_a                    28.5516
_cell_length_b                    32.4192
_cell_length_c                    26.9054
_cell_angle_alpha                 90.1370
_cell_angle_beta                  72.5239
_cell_angle_gamma                 89.9021
loop_
_atom_site_label
_atom_site_type_symbol
_atom_site_fract_x
_atom_site_fract_y
_atom_site_fract_z
_atom_site_U_iso_or_equiv
_atom_site_adp_type
_atom_site_occupancy
C1     C     0.16659   0.24591   0.25022   0.00000  Uiso   1.00
C2     C     0.14430   0.17088   0.48989   0.00000  Uiso   1.00
C3     C     0.15607   0.18144   0.43642   0.00000  Uiso   1.00
C4     C     0.18034   0.17697   0.01604   0.00000  Uiso   1.00
C5     C     0.22547   0.19652   0.48980   0.00000  Uiso   1.00
C6     C     0.23354   0.21118   0.43935   0.00000  Uiso   1.00
C7     C     0.19891   0.20453   0.41348   0.00000  Uiso   1.00
C8     C     0.17306   0.16408   0.06749   0.00000  Uiso   1.00
C9     C     0.25256   0.19051   0.06667   0.00000  Uiso   1.00
C10    C     0.12420   0.16917   0.40755   0.00000  Uiso   1.00
C11    C     0.19513   0.31101   0.27751   0.00000  Uiso   1.00
C12    C     0.14039   0.16847   0.35012   0.00000  Uiso   1.00
C13    C     0.19427   0.02063   0.28071   0.00000  Uiso   1.00
C14    C     0.16544   0.04269   0.25500   0.00000  Uiso   1.00
C15    C     0.13607   0.02159   0.22993   0.00000  Uiso   1.00
C16    C     0.13608   0.31231   0.22875   0.00000  Uiso   1.00
C17    C     0.16616   0.29042   0.25178   0.00000  Uiso   1.00
C18    C     0.30019   0.19439   0.27953   0.00000  Uiso   1.00
C19    C     0.01636   0.19421   0.27979   0.00000  Uiso   1.00
C20    C     0.03331   0.13919   0.22004   0.00000  Uiso   1.00
C21    C     0.31700   0.13915   0.22014   0.00000  Uiso   1.00
C22    C     0.16610   0.08741   0.25227   0.00000  Uiso   1.00
C23    C     0.19289   0.16717   0.14999   0.00000  Uiso   1.00
C24    C     0.26154   0.20229   0.01492   0.00000  Uiso   1.00
C25    C     0.20763   0.17245   0.09345   0.00000  Uiso   1.00
C26    C     0.07762   0.15342   0.43382   0.00000  Uiso   1.00
C27    C     0.06372   0.14749   0.48730   0.00000  Uiso   1.00
C28    C     0.09679   0.15513   0.01504   0.00000  Uiso   1.00
Cu29   Cu    0.11978   0.16666   0.25000   0.00000  Uiso   1.00
Cu30   Cu    0.21355   0.16667   0.25000   0.00000  Uiso   1.00
H31    H     0.27974   0.19714   0.08630   0.00000  Uiso   1.00
H32    H     0.11369   0.03811   0.21037   0.00000  Uiso   1.00
H33    H     0.11345   0.29647   0.20887   0.00000  Uiso   1.00
H34    H     0.27503   0.21688   0.30278   0.00000  Uiso   1.00
H35    H     0.02827   0.21628   0.30368   0.00000  Uiso   1.00
H36    H     0.05882   0.11720   0.19600   0.00000  Uiso   1.00
H37    H     0.30510   0.11713   0.19620   0.00000  Uiso   1.00
H38    H     0.26670   0.22802   0.41980   0.00000  Uiso   1.00
H39    H     0.29610   0.21705   0.49500   0.00000  Uiso   1.00
H40    H     0.14033   0.14792   0.08886   0.00000  Uiso   1.00
H41    H     0.05221   0.14464   0.41281   0.00000  Uiso   1.00
H42    H     0.08349   0.14923   0.05627   0.00000  Uiso   1.00
H43    H     0.02753   0.13559   0.00719   0.00000  Uiso   1.00
H44    H     0.20554   0.21875   0.37580   0.00000  Uiso   1.00
H45    H     0.21689   0.29338   0.29681   0.00000  Uiso   1.00
N46    N     0.04931   0.16666   0.24998   0.00000  Uiso   1.00
N47    N     0.28402   0.16669   0.24999   0.00000  Uiso   1.00
O48    O     0.12708   0.22678   0.25000   0.00000  Uiso   1.00
O49    O     0.20627   0.22679   0.25000   0.00000  Uiso   1.00
O50    O     0.10775   0.16665   0.32549   0.00000  Uiso   1.00
O51    O     0.18694   0.16666   0.32549   0.00000  Uiso   1.00
O52    O     0.12706   0.10654   0.24999   0.00000  Uiso   1.00
O53    O     0.20625   0.10655   0.24999   0.00000  Uiso   1.00
O54    O     0.14640   0.16667   0.17451   0.00000  Uiso   1.00
O55    O     0.22559   0.16668   0.17451   0.00000  Uiso   1.00
C56    C     0.22108   0.04122   0.31348   0.00000  Uiso   1.00
H57    H     0.21168   0.07233   0.32793   0.00000  Uiso   1.00
O58    O     0.25360   0.02324   0.32569   0.00000  Uiso   1.00
C59    C     0.49992   0.24591   0.25022   0.00000  Uiso   1.00
C60    C     0.47763   0.17088   0.48989   0.00000  Uiso   1.00
C61    C     0.48940   0.18144   0.43642   0.00000  Uiso   1.00
C62    C     0.51367   0.17697   0.01604   0.00000  Uiso   1.00
C63    C     0.55880   0.19652   0.48980   0.00000  Uiso   1.00
C64    C     0.56687   0.21118   0.43935   0.00000  Uiso   1.00
C65    C     0.53224   0.20453   0.41348   0.00000  Uiso   1.00
C66    C     0.50640   0.16408   0.06749   0.00000  Uiso   1.00
C67    C     0.58589   0.19051   0.06667   0.00000  Uiso   1.00
C68    C     0.45753   0.16917   0.40755   0.00000  Uiso   1.00
C69    C     0.52846   0.31101   0.27751   0.00000  Uiso   1.00
C70    C     0.47372   0.16847   0.35012   0.00000  Uiso   1.00
C71    C     0.52760   0.02063   0.28071   0.00000  Uiso   1.00
C72    C     0.49877   0.04269   0.25500   0.00000  Uiso   1.00
C73    C     0.46940   0.02159   0.22993   0.00000  Uiso   1.00
C74    C     0.46941   0.31231   0.22875   0.00000  Uiso   1.00
C75    C     0.49950   0.29042   0.25178   0.00000  Uiso   1.00
C76    C     0.63352   0.19439   0.27953   0.00000  Uiso   1.00
C77    C     0.34970   0.19421   0.27979   0.00000  Uiso   1.00
C78    C     0.36664   0.13919   0.22004   0.00000  Uiso   1.00
C79    C     0.65033   0.13915   0.22014   0.00000  Uiso   1.00
C80    C     0.49944   0.08741   0.25227   0.00000  Uiso   1.00
C81    C     0.52622   0.16717   0.14999   0.00000  Uiso   1.00
C82    C     0.59488   0.20229   0.01492   0.00000  Uiso   1.00
C83    C     0.54096   0.17245   0.09345   0.00000  Uiso   1.00
C84    C     0.41096   0.15342   0.43382   0.00000  Uiso   1.00
C85    C     0.39705   0.14749   0.48730   0.00000  Uiso   1.00
C86    C     0.43012   0.15513   0.01504   0.00000  Uiso   1.00
Cu87   Cu    0.45311   0.16666   0.25000   0.00000  Uiso   1.00
Cu88   Cu    0.54689   0.16667   0.25000   0.00000  Uiso   1.00
H89    H     0.61307   0.19714   0.08630   0.00000  Uiso   1.00
H90    H     0.44703   0.03811   0.21037   0.00000  Uiso   1.00
H91    H     0.44678   0.29647   0.20887   0.00000  Uiso   1.00
H92    H     0.60836   0.21688   0.30278   0.00000  Uiso   1.00
H93    H     0.36160   0.21628   0.30368   0.00000  Uiso   1.00
H94    H     0.39216   0.11720   0.19600   0.00000  Uiso   1.00
H95    H     0.63843   0.11713   0.19620   0.00000  Uiso   1.00
H96    H     0.60003   0.22802   0.41980   0.00000  Uiso   1.00
H97    H     0.62943   0.21705   0.49500   0.00000  Uiso   1.00
H98    H     0.47366   0.14792   0.08886   0.00000  Uiso   1.00
H99    H     0.38554   0.14464   0.41281   0.00000  Uiso   1.00
H100   H     0.41683   0.14923   0.05627   0.00000  Uiso   1.00
H101   H     0.36087   0.13559   0.00719   0.00000  Uiso   1.00
H102   H     0.53888   0.21875   0.37580   0.00000  Uiso   1.00
H103   H     0.55022   0.29338   0.29681   0.00000  Uiso   1.00
N104   N     0.38265   0.16666   0.24998   0.00000  Uiso   1.00
N105   N     0.61735   0.16669   0.24999   0.00000  Uiso   1.00
O106   O     0.46042   0.22678   0.25000   0.00000  Uiso   1.00
O107   O     0.53961   0.22679   0.25000   0.00000  Uiso   1.00
O108   O     0.44108   0.16665   0.32549   0.00000  Uiso   1.00
O109   O     0.52027   0.16666   0.32549   0.00000  Uiso   1.00
O110   O     0.46039   0.10654   0.24999   0.00000  Uiso   1.00
O111   O     0.53958   0.10655   0.24999   0.00000  Uiso   1.00
O112   O     0.47973   0.16667   0.17451   0.00000  Uiso   1.00
O113   O     0.55892   0.16668   0.17451   0.00000  Uiso   1.00
C114   C     0.55442   0.04122   0.31348   0.00000  Uiso   1.00
H115   H     0.54501   0.07233   0.32793   0.00000  Uiso   1.00
O116   O     0.58693   0.02324   0.32569   0.00000  Uiso   1.00
C117   C     0.83325   0.24591   0.25022   0.00000  Uiso   1.00
C118   C     0.81096   0.17088   0.48989   0.00000  Uiso   1.00
C119   C     0.82274   0.18144   0.43642   0.00000  Uiso   1.00
C120   C     0.84701   0.17697   0.01604   0.00000  Uiso   1.00
C121   C     0.89214   0.19652   0.48980   0.00000  Uiso   1.00
C122   C     0.90020   0.21118   0.43935   0.00000  Uiso   1.00
C123   C     0.86558   0.20453   0.41348   0.00000  Uiso   1.00
C124   C     0.83973   0.16408   0.06749   0.00000  Uiso   1.00
C125   C     0.91923   0.19051   0.06667   0.00000  Uiso   1.00
C126   C     0.79087   0.16917   0.40755   0.00000  Uiso   1.00
C127   C     0.86180   0.31101   0.27751   0.00000  Uiso   1.00
C128   C     0.80705   0.16847   0.35012   0.00000  Uiso   1.00
C129   C     0.86094   0.02063   0.28071   0.00000  Uiso   1.00
C130   C     0.83211   0.04269   0.25500   0.00000  Uiso   1.00
C131   C     0.80274   0.02159   0.22993   0.00000  Uiso   1.00
C132   C     0.80274   0.31231   0.22875   0.00000  Uiso   1.00
C133   C     0.83283   0.29042   0.25178   0.00000  Uiso   1.00
C134   C     0.96685   0.19439   0.27953   0.00000  Uiso   1.00
C135   C     0.68303   0.19421   0.27979   0.00000  Uiso   1.00
C136   C     0.69997   0.13919   0.22004   0.00000  Uiso   1.00
C137   C     0.98366   0.13915   0.22014   0.00000  Uiso   1.00
C138   C     0.83277   0.08741   0.25227   0.00000  Uiso   1.00
C139   C     0.85955   0.16717   0.14999   0.00000  Uiso   1.00
C140   C     0.92821   0.20229   0.01492   0.00000  Uiso   1.00
C141   C     0.87430   0.17245   0.09345   0.00000  Uiso   1.00
C142   C     0.74429   0.15342   0.43382   0.00000  Uiso   1.00
C143   C     0.73038   0.14749   0.48730   0.00000  Uiso   1.00
C144   C     0.76345   0.15513   0.01504   0.00000  Uiso   1.00
Cu145  Cu    0.78645   0.16666   0.25000   0.00000  Uiso   1.00
Cu146  Cu    0.88022   0.16667   0.25000   0.00000  Uiso   1.00
H147   H     0.94640   0.19714   0.08630   0.00000  Uiso   1.00
H148   H     0.78036   0.03811   0.21037   0.00000  Uiso   1.00
H149   H     0.78012   0.29647   0.20887   0.00000  Uiso   1.00
H150   H     0.94169   0.21688   0.30278   0.00000  Uiso   1.00
H151   H     0.69493   0.21628   0.30368   0.00000  Uiso   1.00
H152   H     0.72549   0.11720   0.19600   0.00000  Uiso   1.00
H153   H     0.97177   0.11713   0.19620   0.00000  Uiso   1.00
H154   H     0.93337   0.22802   0.41980   0.00000  Uiso   1.00
H155   H     0.96277   0.21705   0.49500   0.00000  Uiso   1.00
H156   H     0.80700   0.14792   0.08886   0.00000  Uiso   1.00
H157   H     0.71887   0.14464   0.41281   0.00000  Uiso   1.00
H158   H     0.75016   0.14923   0.05627   0.00000  Uiso   1.00
H159   H     0.69420   0.13559   0.00719   0.00000  Uiso   1.00
H160   H     0.87221   0.21875   0.37580   0.00000  Uiso   1.00
H161   H     0.88355   0.29338   0.29681   0.00000  Uiso   1.00
N162   N     0.71598   0.16666   0.24998   0.00000  Uiso   1.00
N163   N     0.95069   0.16669   0.24999   0.00000  Uiso   1.00
O164   O     0.79375   0.22678   0.25000   0.00000  Uiso   1.00
O165   O     0.87294   0.22679   0.25000   0.00000  Uiso   1.00
O166   O     0.77441   0.16665   0.32549   0.00000  Uiso   1.00
O167   O     0.85360   0.16666   0.32549   0.00000  Uiso   1.00
O168   O     0.79373   0.10654   0.24999   0.00000  Uiso   1.00
O169   O     0.87292   0.10655   0.24999   0.00000  Uiso   1.00
O170   O     0.81306   0.16667   0.17451   0.00000  Uiso   1.00
O171   O     0.89225   0.16668   0.17451   0.00000  Uiso   1.00
C172   C     0.88775   0.04122   0.31348   0.00000  Uiso   1.00
H173   H     0.87835   0.07233   0.32793   0.00000  Uiso   1.00
O174   O     0.92027   0.02324   0.32569   0.00000  Uiso   1.00
C175   C     0.16659   0.57924   0.25022   0.00000  Uiso   1.00
C176   C     0.14430   0.50422   0.48989   0.00000  Uiso   1.00
C177   C     0.15607   0.51477   0.43642   0.00000  Uiso   1.00
C178   C     0.18034   0.51030   0.01604   0.00000  Uiso   1.00
C179   C     0.22547   0.52985   0.48980   0.00000  Uiso   1.00
C180   C     0.23354   0.54451   0.43935   0.00000  Uiso   1.00
C181   C     0.19891   0.53786   0.41348   0.00000  Uiso   1.00
C182   C     0.17306   0.49741   0.06749   0.00000  Uiso   1.00
C183   C     0.25256   0.52384   0.06667   0.00000  Uiso   1.00
C184   C     0.12420   0.50250   0.40755   0.00000  Uiso   1.00
C185   C     0.19513   0.64435   0.27751   0.00000  Uiso   1.00
C186   C     0.14039   0.50180   0.35012   0.00000  Uiso   1.00
C187   C     0.19427   0.35396   0.28071   0.00000  Uiso   1.00
C188   C     0.16544   0.37602   0.25500   0.00000  Uiso   1.00
C189   C     0.13607   0.35492   0.22993   0.00000  Uiso   1.00
C190   C     0.13608   0.64564   0.22875   0.00000  Uiso   1.00
C191   C     0.16616   0.62375   0.25178   0.00000  Uiso   1.00
C192   C     0.30019   0.52772   0.27953   0.00000  Uiso   1.00
C193   C     0.01636   0.52755   0.27979   0.00000  Uiso   1.00
C194   C     0.03331   0.47252   0.22004   0.00000  Uiso   1.00
C195   C     0.31700   0.47248   0.22014   0.00000  Uiso   1.00
C196   C     0.16610   0.42074   0.25227   0.00000  Uiso   1.00
C197   C     0.19289   0.50051   0.14999   0.00000  Uiso   1.00
C198   C     0.26154   0.53563   0.01492   0.00000  Uiso   1.00
C199   C     0.20763   0.50578   0.09345   0.00000  Uiso   1.00
C200   C     0.07762   0.48675   0.43382   0.00000  Uiso   1.00
C201   C     0.06372   0.48082   0.48730   0.00000  Uiso   1.00
C202   C     0.09679   0.48847   0.01504   0.00000  Uiso   1.00
Cu203  Cu    0.11978   0.49999   0.25000   0.00000  Uiso   1.00
Cu204  Cu    0.21355   0.50001   0.25000   0.00000  Uiso   1.00
H205   H     0.27974   0.53047   0.08630   0.00000  Uiso   1.00
H206   H     0.11369   0.37145   0.21037   0.00000  Uiso   1.00
H207   H     0.11345   0.62980   0.20887   0.00000  Uiso   1.00
H208   H     0.27503   0.55022   0.30278   0.00000  Uiso   1.00
H209   H     0.02827   0.54961   0.30368   0.00000  Uiso   1.00
H210   H     0.05882   0.45054   0.19600   0.00000  Uiso   1.00
H211   H     0.30510   0.45046   0.19620   0.00000  Uiso   1.00
H212   H     0.26670   0.56135   0.41980   0.00000  Uiso   1.00
H213   H     0.29610   0.55039   0.49500   0.00000  Uiso   1.00
H214   H     0.14033   0.48126   0.08886   0.00000  Uiso   1.00
H215   H     0.05221   0.47797   0.41281   0.00000  Uiso   1.00
H216   H     0.08349   0.48256   0.05627   0.00000  Uiso   1.00
H217   H     0.02753   0.46892   0.00719   0.00000  Uiso   1.00
H218   H     0.20554   0.55208   0.37580   0.00000  Uiso   1.00
H219   H     0.21689   0.62671   0.29681   0.00000  Uiso   1.00
N220   N     0.04931   0.49999   0.24998   0.00000  Uiso   1.00
N221   N     0.28402   0.50002   0.24999   0.00000  Uiso   1.00
O222   O     0.12708   0.56011   0.25000   0.00000  Uiso   1.00
O223   O     0.20627   0.56012   0.25000   0.00000  Uiso   1.00
O224   O     0.10775   0.49998   0.32549   0.00000  Uiso   1.00
O225   O     0.18694   0.49999   0.32549   0.00000  Uiso   1.00
O226   O     0.12706   0.43988   0.24999   0.00000  Uiso   1.00
O227   O     0.20625   0.43989   0.24999   0.00000  Uiso   1.00
O228   O     0.14640   0.50001   0.17451   0.00000  Uiso   1.00
O229   O     0.22559   0.50002   0.17451   0.00000  Uiso   1.00
C230   C     0.22108   0.37455   0.31348   0.00000  Uiso   1.00
H231   H     0.21168   0.40566   0.32793   0.00000  Uiso   1.00
O232   O     0.25360   0.35658   0.32569   0.00000  Uiso   1.00
C233   C     0.49992   0.57924   0.25022   0.00000  Uiso   1.00
C234   C     0.47763   0.50422   0.48989   0.00000  Uiso   1.00
C235   C     0.48940   0.51477   0.43642   0.00000  Uiso   1.00
C236   C     0.51367   0.51030   0.01604   0.00000  Uiso   1.00
C237   C     0.55880   0.52985   0.48980   0.00000  Uiso   1.00
C238   C     0.56687   0.54451   0.43935   0.00000  Uiso   1.00
C239   C     0.53224   0.53786   0.41348   0.00000  Uiso   1.00
C240   C     0.50640   0.49741   0.06749   0.00000  Uiso   1.00
C241   C     0.58589   0.52384   0.06667   0.00000  Uiso   1.00
C242   C     0.45753   0.50250   0.40755   0.00000  Uiso   1.00
C243   C     0.52846   0.64435   0.27751   0.00000  Uiso   1.00
C244   C     0.47372   0.50180   0.35012   0.00000  Uiso   1.00
C245   C     0.52760   0.35396   0.28071   0.00000  Uiso   1.00
C246   C     0.49877   0.37602   0.25500   0.00000  Uiso   1.00
C247   C     0.46940   0.35492   0.22993   0.00000  Uiso   1.00
C248   C     0.46941   0.64564   0.22875   0.00000  Uiso   1.00
C249   C     0.49950   0.62375   0.25178   0.00000  Uiso   1.00
C250   C     0.63352   0.52772   0.27953   0.00000  Uiso   1.00
C251   C     0.34970   0.52755   0.27979   0.00000  Uiso   1.00
C252   C     0.36664   0.47252   0.22004   0.00000  Uiso   1.00
C253   C     0.65033   0.47248   0.22014   0.00000  Uiso   1.00
C254   C     0.49944   0.42074   0.25227   0.00000  Uiso   1.00
C255   C     0.52622   0.50051   0.14999   0.00000  Uiso   1.00
C256   C     0.59488   0.53563   0.01492   0.00000  Uiso   1.00
C257   C     0.54096   0.50578   0.09345   0.00000  Uiso   1.00
C258   C     0.41096   0.48675   0.43382   0.00000  Uiso   1.00
C259   C     0.39705   0.48082   0.48730   0.00000  Uiso   1.00
C260   C     0.43012   0.48847   0.01504   0.00000  Uiso   1.00
Cu261  Cu    0.45311   0.49999   0.25000   0.00000  Uiso   1.00
Cu262  Cu    0.54689   0.50001   0.25000   0.00000  Uiso   1.00
H263   H     0.61307   0.53047   0.08630   0.00000  Uiso   1.00
H264   H     0.44703   0.37145   0.21037   0.00000  Uiso   1.00
H265   H     0.44678   0.62980   0.20887   0.00000  Uiso   1.00
H266   H     0.60836   0.55022   0.30278   0.00000  Uiso   1.00
H267   H     0.36160   0.54961   0.30368   0.00000  Uiso   1.00
H268   H     0.39216   0.45054   0.19600   0.00000  Uiso   1.00
H269   H     0.63843   0.45046   0.19620   0.00000  Uiso   1.00
H270   H     0.60003   0.56135   0.41980   0.00000  Uiso   1.00
H271   H     0.62943   0.55039   0.49500   0.00000  Uiso   1.00
H272   H     0.47366   0.48126   0.08886   0.00000  Uiso   1.00
H273   H     0.38554   0.47797   0.41281   0.00000  Uiso   1.00
H274   H     0.41683   0.48256   0.05627   0.00000  Uiso   1.00
H275   H     0.36087   0.46892   0.00719   0.00000  Uiso   1.00
H276   H     0.53888   0.55208   0.37580   0.00000  Uiso   1.00
H277   H     0.55022   0.62671   0.29681   0.00000  Uiso   1.00
N278   N     0.38265   0.49999   0.24998   0.00000  Uiso   1.00
N279   N     0.61735   0.50002   0.24999   0.00000  Uiso   1.00
O280   O     0.46042   0.56011   0.25000   0.00000  Uiso   1.00
O281   O     0.53961   0.56012   0.25000   0.00000  Uiso   1.00
O282   O     0.44108   0.49998   0.32549   0.00000  Uiso   1.00
O283   O     0.52027   0.49999   0.32549   0.00000  Uiso   1.00
O284   O     0.46039   0.43988   0.24999   0.00000  Uiso   1.00
O285   O     0.53958   0.43989   0.24999   0.00000  Uiso   1.00
O286   O     0.47973   0.50001   0.17451   0.00000  Uiso   1.00
O287   O     0.55892   0.50002   0.17451   0.00000  Uiso   1.00
C288   C     0.55442   0.37455   0.31348   0.00000  Uiso   1.00
H289   H     0.54501   0.40566   0.32793   0.00000  Uiso   1.00
O290   O     0.58693   0.35658   0.32569   0.00000  Uiso   1.00
C291   C     0.83325   0.57924   0.25022   0.00000  Uiso   1.00
C292   C     0.81096   0.50422   0.48989   0.00000  Uiso   1.00
C293   C     0.82274   0.51477   0.43642   0.00000  Uiso   1.00
C294   C     0.84701   0.51030   0.01604   0.00000  Uiso   1.00
C295   C     0.89214   0.52985   0.48980   0.00000  Uiso   1.00
C296   C     0.90020   0.54451   0.43935   0.00000  Uiso   1.00
C297   C     0.86558   0.53786   0.41348   0.00000  Uiso   1.00
C298   C     0.83973   0.49741   0.06749   0.00000  Uiso   1.00
C299   C     0.91923   0.52384   0.06667   0.00000  Uiso   1.00
C300   C     0.79087   0.50250   0.40755   0.00000  Uiso   1.00
C301   C     0.86180   0.64435   0.27751   0.00000  Uiso   1.00
C302   C     0.80705   0.50180   0.35012   0.00000  Uiso   1.00
C303   C     0.86094   0.35396   0.28071   0.00000  Uiso   1.00
C304   C     0.83211   0.37602   0.25500   0.00000  Uiso   1.00
C305   C     0.80274   0.35492   0.22993   0.00000  Uiso   1.00
C306   C     0.80274   0.64564   0.22875   0.00000  Uiso   1.00
C307   C     0.83283   0.62375   0.25178   0.00000  Uiso   1.00
C308   C     0.96685   0.52772   0.27953   0.00000  Uiso   1.00
C309   C     0.68303   0.52755   0.27979   0.00000  Uiso   1.00
C310   C     0.69997   0.47252   0.22004   0.00000  Uiso   1.00
C311   C     0.98366   0.47248   0.22014   0.00000  Uiso   1.00
C312   C     0.83277   0.42074   0.25227   0.00000  Uiso   1.00
C313   C     0.85955   0.50051   0.14999   0.00000  Uiso   1.00
C314   C     0.92821   0.53563   0.01492   0.00000  Uiso   1.00
C315   C     0.87430   0.50578   0.09345   0.00000  Uiso   1.00
C316   C     0.74429   0.48675   0.43382   0.00000  Uiso   1.00
C317   C     0.73038   0.48082   0.48730   0.00000  Uiso   1.00
C318   C     0.76345   0.48847   0.01504   0.00000  Uiso   1.00
Cu319  Cu    0.78645   0.49999   0.25000   0.00000  Uiso   1.00
Cu320  Cu    0.88022   0.50001   0.25000   0.00000  Uiso   1.00
H321   H     0.94640   0.53047   0.08630   0.00000  Uiso   1.00
H322   H     0.78036   0.37145   0.21037   0.00000  Uiso   1.00
H323   H     0.78012   0.62980   0.20887   0.00000  Uiso   1.00
H324   H     0.94169   0.55022   0.30278   0.00000  Uiso   1.00
H325   H     0.69493   0.54961   0.30368   0.00000  Uiso   1.00
H326   H     0.72549   0.45054   0.19600   0.00000  Uiso   1.00
H327   H     0.97177   0.45046   0.19620   0.00000  Uiso   1.00
H328   H     0.93337   0.56135   0.41980   0.00000  Uiso   1.00
H329   H     0.96277   0.55039   0.49500   0.00000  Uiso   1.00
H330   H     0.80700   0.48126   0.08886   0.00000  Uiso   1.00
H331   H     0.71887   0.47797   0.41281   0.00000  Uiso   1.00
H332   H     0.75016   0.48256   0.05627   0.00000  Uiso   1.00
H333   H     0.69420   0.46892   0.00719   0.00000  Uiso   1.00
H334   H     0.87221   0.55208   0.37580   0.00000  Uiso   1.00
H335   H     0.88355   0.62671   0.29681   0.00000  Uiso   1.00
N336   N     0.71598   0.49999   0.24998   0.00000  Uiso   1.00
N337   N     0.95069   0.50002   0.24999   0.00000  Uiso   1.00
O338   O     0.79375   0.56011   0.25000   0.00000  Uiso   1.00
O339   O     0.87294   0.56012   0.25000   0.00000  Uiso   1.00
O340   O     0.77441   0.49998   0.32549   0.00000  Uiso   1.00
O341   O     0.85360   0.49999   0.32549   0.00000  Uiso   1.00
O342   O     0.79373   0.43988   0.24999   0.00000  Uiso   1.00
O343   O     0.87292   0.43989   0.24999   0.00000  Uiso   1.00
O344   O     0.81306   0.50001   0.17451   0.00000  Uiso   1.00
O345   O     0.89225   0.50002   0.17451   0.00000  Uiso   1.00
C346   C     0.88775   0.37455   0.31348   0.00000  Uiso   1.00
H347   H     0.87835   0.40566   0.32793   0.00000  Uiso   1.00
O348   O     0.92027   0.35658   0.32569   0.00000  Uiso   1.00
C349   C     0.16659   0.91258   0.25022   0.00000  Uiso   1.00
C350   C     0.14430   0.83755   0.48989   0.00000  Uiso   1.00
C351   C     0.15607   0.84810   0.43642   0.00000  Uiso   1.00
C352   C     0.18034   0.84364   0.01604   0.00000  Uiso   1.00
C353   C     0.22547   0.86319   0.48980   0.00000  Uiso   1.00
C354   C     0.23354   0.87784   0.43935   0.00000  Uiso   1.00
C355   C     0.19891   0.87119   0.41348   0.00000  Uiso   1.00
C356   C     0.17306   0.83074   0.06749   0.00000  Uiso   1.00
C357   C     0.25256   0.85718   0.06667   0.00000  Uiso   1.00
C358   C     0.12420   0.83583   0.40755   0.00000  Uiso   1.00
C359   C     0.19513   0.97768   0.27751   0.00000  Uiso   1.00
C360   C     0.14039   0.83513   0.35012   0.00000  Uiso   1.00
C361   C     0.19427   0.68730   0.28071   0.00000  Uiso   1.00
C362   C     0.16544   0.70936   0.25500   0.00000  Uiso   1.00
C363   C     0.13607   0.68825   0.22993   0.00000  Uiso   1.00
C364   C     0.13608   0.97897   0.22875   0.00000  Uiso   1.00
C365   C     0.16616   0.95708   0.25178   0.00000  Uiso   1.00
C366   C     0.30019   0.86105   0.27953   0.00000  Uiso   1.00
C367   C     0.01636   0.86088   0.27979   0.00000  Uiso   1.00
C368   C     0.03331   0.80586   0.22004   0.00000  Uiso   1.00
C369   C     0.31700   0.80581   0.22014   0.00000  Uiso   1.00
C370   C     0.16610   0.75408   0.25227   0.00000  Uiso   1.00
C371   C     0.19289   0.83384   0.14999   0.00000  Uiso   1.00
C372   C     0.26154   0.86896   0.01492   0.00000  Uiso   1.00
C373   C     0.20763   0.83912   0.09345   0.00000  Uiso   1.00
C374   C     0.07762   0.82008   0.43382   0.00000  Uiso   1.00
C375   C     0.06372   0.81415   0.48730   0.00000  Uiso   1.00
C376   C     0.09679   0.82180   0.01504   0.00000  Uiso   1.00
Cu377  Cu    0.11978   0.83333   0.25000   0.00000  Uiso   1.00
Cu378  Cu    0.21355   0.83334   0.25000   0.00000  Uiso   1.00
H379   H     0.27974   0.86381   0.08630   0.00000  Uiso   1.00
H380   H     0.11369   0.70478   0.21037   0.00000  Uiso   1.00
H381   H     0.11345   0.96314   0.20887   0.00000  Uiso   1.00
H382   H     0.27503   0.88355   0.30278   0.00000  Uiso   1.00
H383   H     0.02827   0.88294   0.30368   0.00000  Uiso   1.00
H384   H     0.05882   0.78387   0.19600   0.00000  Uiso   1.00
H385   H     0.30510   0.78380   0.19620   0.00000  Uiso   1.00
H386   H     0.26670   0.89469   0.41980   0.00000  Uiso   1.00
H387   H     0.29610   0.88372   0.49500   0.00000  Uiso   1.00
H388   H     0.14033   0.81459   0.08886   0.00000  Uiso   1.00
H389   H     0.05221   0.81130   0.41281   0.00000  Uiso   1.00
H390   H     0.08349   0.81589   0.05627   0.00000  Uiso   1.00
H391   H     0.02753   0.80225   0.00719   0.00000  Uiso   1.00
H392   H     0.20554   0.88542   0.37580   0.00000  Uiso   1.00
H393   H     0.21689   0.96004   0.29681   0.00000  Uiso   1.00
N394   N     0.04931   0.83332   0.24998   0.00000  Uiso   1.00
N395   N     0.28402   0.83335   0.24999   0.00000  Uiso   1.00
O396   O     0.12708   0.89345   0.25000   0.00000  Uiso   1.00
O397   O     0.20627   0.89346   0.25000   0.00000  Uiso   1.00
O398   O     0.10775   0.83332   0.32549   0.00000  Uiso   1.00
O399   O     0.18694   0.83333   0.32549   0.00000  Uiso   1.00
O400   O     0.12706   0.77321   0.24999   0.00000  Uiso   1.00
O401   O     0.20625   0.77322   0.24999   0.00000  Uiso   1.00
O402   O     0.14640   0.83334   0.17451   0.00000  Uiso   1.00
O403   O     0.22559   0.83335   0.17451   0.00000  Uiso   1.00
C404   C     0.22108   0.70789   0.31348   0.00000  Uiso   1.00
H405   H     0.21168   0.73899   0.32793   0.00000  Uiso   1.00
O406   O     0.25360   0.68991   0.32569   0.00000  Uiso   1.00
C407   C     0.49992   0.91258   0.25022   0.00000  Uiso   1.00
C408   C     0.47763   0.83755   0.48989   0.00000  Uiso   1.00
C409   C     0.48940   0.84810   0.43642   0.00000  Uiso   1.00
C410   C     0.51367   0.84364   0.01604   0.00000  Uiso   1.00
C411   C     0.55880   0.86319   0.48980   0.00000  Uiso   1.00
C412   C     0.56687   0.87784   0.43935   0.00000  Uiso   1.00
C413   C     0.53224   0.87119   0.41348   0.00000  Uiso   1.00
C414   C     0.50640   0.83074   0.06749   0.00000  Uiso   1.00
C415   C     0.58589   0.85718   0.06667   0.00000  Uiso   1.00
C416   C     0.45753   0.83583   0.40755   0.00000  Uiso   1.00
C417   C     0.52846   0.97768   0.27751   0.00000  Uiso   1.00
C418   C     0.47372   0.83513   0.35012   0.00000  Uiso   1.00
C419   C     0.52760   0.68730   0.28071   0.00000  Uiso   1.00
C420   C     0.49877   0.70936   0.25500   0.00000  Uiso   1.00
C421   C     0.46940   0.68825   0.22993   0.00000  Uiso   1.00
C422   C     0.46941   0.97897   0.22875   0.00000  Uiso   1.00
C423   C     0.49950   0.95708   0.25178   0.00000  Uiso   1.00
C424   C     0.63352   0.86105   0.27953   0.00000  Uiso   1.00
C425   C     0.34970   0.86088   0.27979   0.00000  Uiso   1.00
C426   C     0.36664   0.80586   0.22004   0.00000  Uiso   1.00
C427   C     0.65033   0.80581   0.22014   0.00000  Uiso   1.00
C428   C     0.49944   0.75408   0.25227   0.00000  Uiso   1.00
C429   C     0.52622   0.83384   0.14999   0.00000  Uiso   1.00
C430   C     0.59488   0.86896   0.01492   0.00000  Uiso   1.00
C431   C     0.54096   0.83912   0.09345   0.00000  Uiso   1.00
C432   C     0.41096   0.82008   0.43382   0.00000  Uiso   1.00
C433   C     0.39705   0.81415   0.48730   0.00000  Uiso   1.00
C434   C     0.43012   0.82180   0.01504   0.00000  Uiso   1.00
Cu435  Cu    0.45311   0.83333   0.25000   0.00000  Uiso   1.00
Cu436  Cu    0.54689   0.83334   0.25000   0.00000  Uiso   1.00
H437   H     0.61307   0.86381   0.08630   0.00000  Uiso   1.00
H438   H     0.44703   0.70478   0.21037   0.00000  Uiso   1.00
H439   H     0.44678   0.96314   0.20887   0.00000  Uiso   1.00
H440   H     0.60836   0.88355   0.30278   0.00000  Uiso   1.00
H441   H     0.36160   0.88294   0.30368   0.00000  Uiso   1.00
H442   H     0.39216   0.78387   0.19600   0.00000  Uiso   1.00
H443   H     0.63843   0.78380   0.19620   0.00000  Uiso   1.00
H444   H     0.60003   0.89469   0.41980   0.00000  Uiso   1.00
H445   H     0.62943   0.88372   0.49500   0.00000  Uiso   1.00
H446   H     0.47366   0.81459   0.08886   0.00000  Uiso   1.00
H447   H     0.38554   0.81130   0.41281   0.00000  Uiso   1.00
H448   H     0.41683   0.81589   0.05627   0.00000  Uiso   1.00
H449   H     0.36087   0.80225   0.00719   0.00000  Uiso   1.00
H450   H     0.53888   0.88542   0.37580   0.00000  Uiso   1.00
H451   H     0.55022   0.96004   0.29681   0.00000  Uiso   1.00
N452   N     0.38265   0.83332   0.24998   0.00000  Uiso   1.00
N453   N     0.61735   0.83335   0.24999   0.00000  Uiso   1.00
O454   O     0.46042   0.89345   0.25000   0.00000  Uiso   1.00
O455   O     0.53961   0.89346   0.25000   0.00000  Uiso   1.00
O456   O     0.44108   0.83332   0.32549   0.00000  Uiso   1.00
O457   O     0.52027   0.83333   0.32549   0.00000  Uiso   1.00
O458   O     0.46039   0.77321   0.24999   0.00000  Uiso   1.00
O459   O     0.53958   0.77322   0.24999   0.00000  Uiso   1.00
O460   O     0.47973   0.83334   0.17451   0.00000  Uiso   1.00
O461   O     0.55892   0.83335   0.17451   0.00000  Uiso   1.00
C462   C     0.55442   0.70789   0.31348   0.00000  Uiso   1.00
H463   H     0.54501   0.73899   0.32793   0.00000  Uiso   1.00
O464   O     0.58693   0.68991   0.32569   0.00000  Uiso   1.00
C465   C     0.83325   0.91258   0.25022   0.00000  Uiso   1.00
C466   C     0.81096   0.83755   0.48989   0.00000  Uiso   1.00
C467   C     0.82274   0.84810   0.43642   0.00000  Uiso   1.00
C468   C     0.84701   0.84364   0.01604   0.00000  Uiso   1.00
C469   C     0.89214   0.86319   0.48980   0.00000  Uiso   1.00
C470   C     0.90020   0.87784   0.43935   0.00000  Uiso   1.00
C471   C     0.86558   0.87119   0.41348   0.00000  Uiso   1.00
C472   C     0.83973   0.83074   0.06749   0.00000  Uiso   1.00
C473   C     0.91923   0.85718   0.06667   0.00000  Uiso   1.00
C474   C     0.79087   0.83583   0.40755   0.00000  Uiso   1.00
C475   C     0.86180   0.97768   0.27751   0.00000  Uiso   1.00
C476   C     0.80705   0.83513   0.35012   0.00000  Uiso   1.00
C477   C     0.86094   0.68730   0.28071   0.00000  Uiso   1.00
C478   C     0.83211   0.70936   0.25500   0.00000  Uiso   1.00
C479   C     0.80274   0.68825   0.22993   0.00000  Uiso   1.00
C480   C     0.80274   0.97897   0.22875   0.00000  Uiso   1.00
C481   C     0.83283   0.95708   0.25178   0.00000  Uiso   1.00
C482   C     0.96685   0.86105   0.27953   0.00000  Uiso   1.00
C483   C     0.68303   0.86088   0.27979   0.00000  Uiso   1.00
C484   C     0.69997   0.80586   0.22004   0.00000  Uiso   1.00
C485   C     0.98366   0.80581   0.22014   0.00000  Uiso   1.00
C486   C     0.83277   0.75408   0.25227   0.00000  Uiso   1.00
C487   C     0.85955   0.83384   0.14999   0.00000  Uiso   1.00
C488   C     0.92821   0.86896   0.01492   0.00000  Uiso   1.00
C489   C     0.87430   0.83912   0.09345   0.00000  Uiso   1.00
C490   C     0.74429   0.82008   0.43382   0.00000  Uiso   1.00
C491   C     0.73038   0.81415   0.48730   0.00000  Uiso   1.00
C492   C     0.76345   0.82180   0.01504   0.00000  Uiso   1.00
Cu493  Cu    0.78645   0.83333   0.25000   0.00000  Uiso   1.00
Cu494  Cu    0.88022   0.83334   0.25000   0.00000  Uiso   1.00
H495   H     0.94640   0.86381   0.08630   0.00000  Uiso   1.00
H496   H     0.78036   0.70478   0.21037   0.00000  Uiso   1.00
H497   H     0.78012   0.96314   0.20887   0.00000  Uiso   1.00
H498   H     0.94169   0.88355   0.30278   0.00000  Uiso   1.00
H499   H     0.69493   0.88294   0.30368   0.00000  Uiso   1.00
H500   H     0.72549   0.78387   0.19600   0.00000  Uiso   1.00
H501   H     0.97177   0.78380   0.19620   0.00000  Uiso   1.00
H502   H     0.93337   0.89469   0.41980   0.00000  Uiso   1.00
H503   H     0.96277   0.88372   0.49500   0.00000  Uiso   1.00
H504   H     0.80700   0.81459   0.08886   0.00000  Uiso   1.00
H505   H     0.71887   0.81130   0.41281   0.00000  Uiso   1.00
H506   H     0.75016   0.81589   0.05627   0.00000  Uiso   1.00
H507   H     0.69420   0.80225   0.00719   0.00000  Uiso   1.00
H508   H     0.87221   0.88542   0.37580   0.00000  Uiso   1.00
H509   H     0.88355   0.96004   0.29681   0.00000  Uiso   1.00
N510   N     0.71598   0.83332   0.24998   0.00000  Uiso   1.00
N511   N     0.95069   0.83335   0.24999   0.00000  Uiso   1.00
O512   O     0.79375   0.89345   0.25000   0.00000  Uiso   1.00
O513   O     0.87294   0.89346   0.25000   0.00000  Uiso   1.00
O514   O     0.77441   0.83332   0.32549   0.00000  Uiso   1.00
O515   O     0.85360   0.83333   0.32549   0.00000  Uiso   1.00
O516   O     0.79373   0.77321   0.24999   0.00000  Uiso   1.00
O517   O     0.87292   0.77322   0.24999   0.00000  Uiso   1.00
O518   O     0.81306   0.83334   0.17451   0.00000  Uiso   1.00
O519   O     0.89225   0.83335   0.17451   0.00000  Uiso   1.00
C520   C     0.88775   0.70789   0.31348   0.00000  Uiso   1.00
H521   H     0.87835   0.73899   0.32793   0.00000  Uiso   1.00
O522   O     0.92027   0.68991   0.32569   0.00000  Uiso   1.00
C523   C     0.16659   0.24591   0.75022   0.00000  Uiso   1.00
C524   C     0.14430   0.17088   0.98989   0.00000  Uiso   1.00
C525   C     0.15607   0.18144   0.93642   0.00000  Uiso   1.00
C526   C     0.18034   0.17697   0.51604   0.00000  Uiso   1.00
C527   C     0.22547   0.19652   0.98980   0.00000  Uiso   1.00
C528   C     0.23354   0.21118   0.93935   0.00000  Uiso   1.00
C529   C     0.19891   0.20453   0.91348   0.00000  Uiso   1.00
C530   C     0.17306   0.16408   0.56749   0.00000  Uiso   1.00
C531   C     0.25256   0.19051   0.56667   0.00000  Uiso   1.00
C532   C     0.12420   0.16917   0.90755   0.00000  Uiso   1.00
C533   C     0.19513   0.31101   0.77751   0.00000  Uiso   1.00
C534   C     0.14039   0.16847   0.85012   0.00000  Uiso   1.00
C535   C     0.19427   0.02063   0.78071   0.00000  Uiso   1.00
C536   C     0.16544   0.04269   0.75500   0.00000  Uiso   1.00
C537   C     0.13607   0.02159   0.72993   0.00000  Uiso   1.00
C538   C     0.13608   0.31231   0.72875   0.00000  Uiso   1.00
C539   C     0.16616   0.29042   0.75178   0.00000  Uiso   1.00
C540   C     0.30019   0.19439   0.77953   0.00000  Uiso   1.00
C541   C     0.01636   0.19421   0.77979   0.00000  Uiso   1.00
C542   C     0.03331   0.13919   0.72004   0.00000  Uiso   1.00
C543   C     0.31700   0.13915   0.72014   0.00000  Uiso   1.00
C544   C     0.16610   0.08741   0.75227   0.00000  Uiso   1.00
C545   C     0.19289   0.16717   0.64999   0.00000  Uiso   1.00
C546   C     0.26154   0.20229   0.51492   0.00000  Uiso   1.00
C547   C     0.20763   0.17245   0.59345   0.00000  Uiso   1.00
C548   C     0.07762   0.15342   0.93382   0.00000  Uiso   1.00
C549   C     0.06372   0.14749   0.98730   0.00000  Uiso   1.00
C550   C     0.09679   0.15513   0.51504   0.00000  Uiso   1.00
Cu551  Cu    0.11978   0.16666   0.75000   0.00000  Uiso   1.00
Cu552  Cu    0.21355   0.16667   0.75000   0.00000  Uiso   1.00
H553   H     0.27974   0.19714   0.58630   0.00000  Uiso   1.00
H554   H     0.11369   0.03811   0.71037   0.00000  Uiso   1.00
H555   H     0.11345   0.29647   0.70887   0.00000  Uiso   1.00
H556   H     0.27503   0.21688   0.80278   0.00000  Uiso   1.00
H557   H     0.02827   0.21628   0.80368   0.00000  Uiso   1.00
H558   H     0.05882   0.11720   0.69600   0.00000  Uiso   1.00
H559   H     0.30510   0.11713   0.69620   0.00000  Uiso   1.00
H560   H     0.26670   0.22802   0.91980   0.00000  Uiso   1.00
H561   H     0.29610   0.21705   0.99500   0.00000  Uiso   1.00
H562   H     0.14033   0.14792   0.58886   0.00000  Uiso   1.00
H563   H     0.05221   0.14464   0.91281   0.00000  Uiso   1.00
H564   H     0.08349   0.14923   0.55627   0.00000  Uiso   1.00
H565   H     0.02753   0.13559   0.50719   0.00000  Uiso   1.00
H566   H     0.20554   0.21875   0.87580   0.00000  Uiso   1.00
H567   H     0.21689   0.29338   0.79681   0.00000  Uiso   1.00
N568   N     0.04931   0.16666   0.74998   0.00000  Uiso   1.00
N569   N     0.28402   0.16669   0.74999   0.00000  Uiso   1.00
O570   O     0.12708   0.22678   0.75000   0.00000  Uiso   1.00
O571   O     0.20627   0.22679   0.75000   0.00000  Uiso   1.00
O572   O     0.10775   0.16665   0.82549   0.00000  Uiso   1.00
O573   O     0.18694   0.16666   0.82549   0.00000  Uiso   1.00
O574   O     0.12706   0.10654   0.74999   0.00000  Uiso   1.00
O575   O     0.20625   0.10655   0.74999   0.00000  Uiso   1.00
O576   O     0.14640   0.16667   0.67451   0.00000  Uiso   1.00
O577   O     0.22559   0.16668   0.67451   0.00000  Uiso   1.00
C578   C     0.22108   0.04122   0.81348   0.00000  Uiso   1.00
H579   H     0.21168   0.07233   0.82793   0.00000  Uiso   1.00
O580   O     0.25360   0.02324   0.82569   0.00000  Uiso   1.00
C581   C     0.49992   0.24591   0.75022   0.00000  Uiso   1.00
C582   C     0.47763   0.17088   0.98989   0.00000  Uiso   1.00
C583   C     0.48940   0.18144   0.93642   0.00000  Uiso   1.00
C584   C     0.51367   0.17697   0.51604   0.00000  Uiso   1.00
C585   C     0.55880   0.19652   0.98980   0.00000  Uiso   1.00
C586   C     0.56687   0.21118   0.93935   0.00000  Uiso   1.00
C587   C     0.53224   0.20453   0.91348   0.00000  Uiso   1.00
C588   C     0.50640   0.16408   0.56749   0.00000  Uiso   1.00
C589   C     0.58589   0.19051   0.56667   0.00000  Uiso   1.00
C590   C     0.45753   0.16917   0.90755   0.00000  Uiso   1.00
C591   C     0.52846   0.31101   0.77751   0.00000  Uiso   1.00
C592   C     0.47372   0.16847   0.85012   0.00000  Uiso   1.00
C593   C     0.52760   0.02063   0.78071   0.00000  Uiso   1.00
C594   C     0.49877   0.04269   0.75500   0.00000  Uiso   1.00
C595   C     0.46940   0.02159   0.72993   0.00000  Uiso   1.00
C596   C     0.46941   0.31231   0.72875   0.00000  Uiso   1.00
C597   C     0.49950   0.29042   0.75178   0.00000  Uiso   1.00
C598   C     0.63352   0.19439   0.77953   0.00000  Uiso   1.00
C599   C     0.34970   0.19421   0.77979   0.00000  Uiso   1.00
C600   C     0.36664   0.13919   0.72004   0.00000  Uiso   1.00
C601   C     0.65033   0.13915   0.72014   0.00000  Uiso   1.00
C602   C     0.49944   0.08741   0.75227   0.00000  Uiso   1.00
C603   C     0.52622   0.16717   0.64999   0.00000  Uiso   1.00
C604   C     0.59488   0.20229   0.51492   0.00000  Uiso   1.00
C605   C     0.54096   0.17245   0.59345   0.00000  Uiso   1.00
C606   C     0.41096   0.15342   0.93382   0.00000  Uiso   1.00
C607   C     0.39705   0.14749   0.98730   0.00000  Uiso   1.00
C608   C     0.43012   0.15513   0.51504   0.00000  Uiso   1.00
Cu609  Cu    0.45311   0.16666   0.75000   0.00000  Uiso   1.00
Cu610  Cu    0.54689   0.16667   0.75000   0.00000  Uiso   1.00
H611   H     0.61307   0.19714   0.58630   0.00000  Uiso   1.00
H612   H     0.44703   0.03811   0.71037   0.00000  Uiso   1.00
H613   H     0.44678   0.29647   0.70887   0.00000  Uiso   1.00
H614   H     0.60836   0.21688   0.80278   0.00000  Uiso   1.00
H615   H     0.36160   0.21628   0.80368   0.00000  Uiso   1.00
H616   H     0.39216   0.11720   0.69600   0.00000  Uiso   1.00
H617   H     0.63843   0.11713   0.69620   0.00000  Uiso   1.00
H618   H     0.60003   0.22802   0.91980   0.00000  Uiso   1.00
H619   H     0.62943   0.21705   0.99500   0.00000  Uiso   1.00
H620   H     0.47366   0.14792   0.58886   0.00000  Uiso   1.00
H621   H     0.38554   0.14464   0.91281   0.00000  Uiso   1.00
H622   H     0.41683   0.14923   0.55627   0.00000  Uiso   1.00
H623   H     0.36087   0.13559   0.50719   0.00000  Uiso   1.00
H624   H     0.53888   0.21875   0.87580   0.00000  Uiso   1.00
H625   H     0.55022   0.29338   0.79681   0.00000  Uiso   1.00
N626   N     0.38265   0.16666   0.74998   0.00000  Uiso   1.00
N627   N     0.61735   0.16669   0.74999   0.00000  Uiso   1.00
O628   O     0.46042   0.22678   0.75000   0.00000  Uiso   1.00
O629   O     0.53961   0.22679   0.75000   0.00000  Uiso   1.00
O630   O     0.44108   0.16665   0.82549   0.00000  Uiso   1.00
O631   O     0.52027   0.16666   0.82549   0.00000  Uiso   1.00
O632   O     0.46039   0.10654   0.74999   0.00000  Uiso   1.00
O633   O     0.53958   0.10655   0.74999   0.00000  Uiso   1.00
O634   O     0.47973   0.16667   0.67451   0.00000  Uiso   1.00
O635   O     0.55892   0.16668   0.67451   0.00000  Uiso   1.00
C636   C     0.55442   0.04122   0.81348   0.00000  Uiso   1.00
H637   H     0.54501   0.07233   0.82793   0.00000  Uiso   1.00
O638   O     0.58693   0.02324   0.82569   0.00000  Uiso   1.00
C639   C     0.83325   0.24591   0.75022   0.00000  Uiso   1.00
C640   C     0.81096   0.17088   0.98989   0.00000  Uiso   1.00
C641   C     0.82274   0.18144   0.93642   0.00000  Uiso   1.00
C642   C     0.84701   0.17697   0.51604   0.00000  Uiso   1.00
C643   C     0.89214   0.19652   0.98980   0.00000  Uiso   1.00
C644   C     0.90020   0.21118   0.93935   0.00000  Uiso   1.00
C645   C     0.86558   0.20453   0.91348   0.00000  Uiso   1.00
C646   C     0.83973   0.16408   0.56749   0.00000  Uiso   1.00
C647   C     0.91923   0.19051   0.56667   0.00000  Uiso   1.00
C648   C     0.79087   0.16917   0.90755   0.00000  Uiso   1.00
C649   C     0.86180   0.31101   0.77751   0.00000  Uiso   1.00
C650   C     0.80705   0.16847   0.85012   0.00000  Uiso   1.00
C651   C     0.86094   0.02063   0.78071   0.00000  Uiso   1.00
C652   C     0.83211   0.04269   0.75500   0.00000  Uiso   1.00
C653   C     0.80274   0.02159   0.72993   0.00000  Uiso   1.00
C654   C     0.80274   0.31231   0.72875   0.00000  Uiso   1.00
C655   C     0.83283   0.29042   0.75178   0.00000  Uiso   1.00
C656   C     0.96685   0.19439   0.77953   0.00000  Uiso   1.00
C657   C     0.68303   0.19421   0.77979   0.00000  Uiso   1.00
C658   C     0.69997   0.13919   0.72004   0.00000  Uiso   1.00
C659   C     0.98366   0.13915   0.72014   0.00000  Uiso   1.00
C660   C     0.83277   0.08741   0.75227   0.00000  Uiso   1.00
C661   C     0.85955   0.16717   0.64999   0.00000  Uiso   1.00
C662   C     0.92821   0.20229   0.51492   0.00000  Uiso   1.00
C663   C     0.87430   0.17245   0.59345   0.00000  Uiso   1.00
C664   C     0.74429   0.15342   0.93382   0.00000  Uiso   1.00
C665   C     0.73038   0.14749   0.98730   0.00000  Uiso   1.00
C666   C     0.76345   0.15513   0.51504   0.00000  Uiso   1.00
Cu667  Cu    0.78645   0.16666   0.75000   0.00000  Uiso   1.00
Cu668  Cu    0.88022   0.16667   0.75000   0.00000  Uiso   1.00
H669   H     0.94640   0.19714   0.58630   0.00000  Uiso   1.00
H670   H     0.78036   0.03811   0.71037   0.00000  Uiso   1.00
H671   H     0.78012   0.29647   0.70887   0.00000  Uiso   1.00
H672   H     0.94169   0.21688   0.80278   0.00000  Uiso   1.00
H673   H     0.69493   0.21628   0.80368   0.00000  Uiso   1.00
H674   H     0.72549   0.11720   0.69600   0.00000  Uiso   1.00
H675   H     0.97177   0.11713   0.69620   0.00000  Uiso   1.00
H676   H     0.93337   0.22802   0.91980   0.00000  Uiso   1.00
H677   H     0.96277   0.21705   0.99500   0.00000  Uiso   1.00
H678   H     0.80700   0.14792   0.58886   0.00000  Uiso   1.00
H679   H     0.71887   0.14464   0.91281   0.00000  Uiso   1.00
H680   H     0.75016   0.14923   0.55627   0.00000  Uiso   1.00
H681   H     0.69420   0.13559   0.50719   0.00000  Uiso   1.00
H682   H     0.87221   0.21875   0.87580   0.00000  Uiso   1.00
H683   H     0.88355   0.29338   0.79681   0.00000  Uiso   1.00
N684   N     0.71598   0.16666   0.74998   0.00000  Uiso   1.00
N685   N     0.95069   0.16669   0.74999   0.00000  Uiso   1.00
O686   O     0.79375   0.22678   0.75000   0.00000  Uiso   1.00
O687   O     0.87294   0.22679   0.75000   0.00000  Uiso   1.00
O688   O     0.77441   0.16665   0.82549   0.00000  Uiso   1.00
O689   O     0.85360   0.16666   0.82549   0.00000  Uiso   1.00
O690   O     0.79373   0.10654   0.74999   0.00000  Uiso   1.00
O691   O     0.87292   0.10655   0.74999   0.00000  Uiso   1.00
O692   O     0.81306   0.16667   0.67451   0.00000  Uiso   1.00
O693   O     0.89225   0.16668   0.67451   0.00000  Uiso   1.00
C694   C     0.88775   0.04122   0.81348   0.00000  Uiso   1.00
H695   H     0.87835   0.07233   0.82793   0.00000  Uiso   1.00
O696   O     0.92027   0.02324   0.82569   0.00000  Uiso   1.00
C697   C     0.16659   0.57924   0.75022   0.00000  Uiso   1.00
C698   C     0.14430   0.50422   0.98989   0.00000  Uiso   1.00
C699   C     0.15607   0.51477   0.93642   0.00000  Uiso   1.00
C700   C     0.18034   0.51030   0.51604   0.00000  Uiso   1.00
C701   C     0.22547   0.52985   0.98980   0.00000  Uiso   1.00
C702   C     0.23354   0.54451   0.93935   0.00000  Uiso   1.00
C703   C     0.19891   0.53786   0.91348   0.00000  Uiso   1.00
C704   C     0.17306   0.49741   0.56749   0.00000  Uiso   1.00
C705   C     0.25256   0.52384   0.56667   0.00000  Uiso   1.00
C706   C     0.12420   0.50250   0.90755   0.00000  Uiso   1.00
C707   C     0.19513   0.64435   0.77751   0.00000  Uiso   1.00
C708   C     0.14039   0.50180   0.85012   0.00000  Uiso   1.00
C709   C     0.19427   0.35396   0.78071   0.00000  Uiso   1.00
C710   C     0.16544   0.37602   0.75500   0.00000  Uiso   1.00
C711   C     0.13607   0.35492   0.72993   0.00000  Uiso   1.00
C712   C     0.13608   0.64564   0.72875   0.00000  Uiso   1.00
C713   C     0.16616   0.62375   0.75178   0.00000  Uiso   1.00
C714   C     0.30019   0.52772   0.77953   0.00000  Uiso   1.00
C715   C     0.01636   0.52755   0.77979   0.00000  Uiso   1.00
C716   C     0.03331   0.47252   0.72004   0.00000  Uiso   1.00
C717   C     0.31700   0.47248   0.72014   0.00000  Uiso   1.00
C718   C     0.16610   0.42074   0.75227   0.00000  Uiso   1.00
C719   C     0.19289   0.50051   0.64999   0.00000  Uiso   1.00
C720   C     0.26154   0.53563   0.51492   0.00000  Uiso   1.00
C721   C     0.20763   0.50578   0.59345   0.00000  Uiso   1.00
C722   C     0.07762   0.48675   0.93382   0.00000  Uiso   1.00
C723   C     0.06372   0.48082   0.98730   0.00000  Uiso   1.00
C724   C     0.09679   0.48847   0.51504   0.00000  Uiso   1.00
Cu725  Cu    0.11978   0.49999   0.75000   0.00000  Uiso   1.00
Cu726  Cu    0.21355   0.50001   0.75000   0.00000  Uiso   1.00
H727   H     0.27974   0.53047   0.58630   0.00000  Uiso   1.00
H728   H     0.11369   0.37145   0.71037   0.00000  Uiso   1.00
H729   H     0.11345   0.62980   0.70887   0.00000  Uiso   1.00
H730   H     0.27503   0.55022   0.80278   0.00000  Uiso   1.00
H731   H     0.02827   0.54961   0.80368   0.00000  Uiso   1.00
H732   H     0.05882   0.45054   0.69600   0.00000  Uiso   1.00
H733   H     0.30510   0.45046   0.69620   0.00000  Uiso   1.00
H734   H     0.26670   0.56135   0.91980   0.00000  Uiso   1.00
H735   H     0.29610   0.55039   0.99500   0.00000  Uiso   1.00
H736   H     0.14033   0.48126   0.58886   0.00000  Uiso   1.00
H737   H     0.05221   0.47797   0.91281   0.00000  Uiso   1.00
H738   H     0.08349   0.48256   0.55627   0.00000  Uiso   1.00
H739   H     0.02753   0.46892   0.50719   0.00000  Uiso   1.00
H740   H     0.20554   0.55208   0.87580   0.00000  Uiso   1.00
H741   H     0.21689   0.62671   0.79681   0.00000  Uiso   1.00
N742   N     0.04931   0.49999   0.74998   0.00000  Uiso   1.00
N743   N     0.28402   0.50002   0.74999   0.00000  Uiso   1.00
O744   O     0.12708   0.56011   0.75000   0.00000  Uiso   1.00
O745   O     0.20627   0.56012   0.75000   0.00000  Uiso   1.00
O746   O     0.10775   0.49998   0.82549   0.00000  Uiso   1.00
O747   O     0.18694   0.49999   0.82549   0.00000  Uiso   1.00
O748   O     0.12706   0.43988   0.74999   0.00000  Uiso   1.00
O749   O     0.20625   0.43989   0.74999   0.00000  Uiso   1.00
O750   O     0.14640   0.50001   0.67451   0.00000  Uiso   1.00
O751   O     0.22559   0.50002   0.67451   0.00000  Uiso   1.00
C752   C     0.22108   0.37455   0.81348   0.00000  Uiso   1.00
H753   H     0.21168   0.40566   0.82793   0.00000  Uiso   1.00
O754   O     0.25360   0.35658   0.82569   0.00000  Uiso   1.00
C755   C     0.49992   0.57924   0.75022   0.00000  Uiso   1.00
C756   C     0.47763   0.50422   0.98989   0.00000  Uiso   1.00
C757   C     0.48940   0.51477   0.93642   0.00000  Uiso   1.00
C758   C     0.51367   0.51030   0.51604   0.00000  Uiso   1.00
C759   C     0.55880   0.52985   0.98980   0.00000  Uiso   1.00
C760   C     0.56687   0.54451   0.93935   0.00000  Uiso   1.00
C761   C     0.53224   0.53786   0.91348   0.00000  Uiso   1.00
C762   C     0.50640   0.49741   0.56749   0.00000  Uiso   1.00
C763   C     0.58589   0.52384   0.56667   0.00000  Uiso   1.00
C764   C     0.45753   0.50250   0.90755   0.00000  Uiso   1.00
C765   C     0.52846   0.64435   0.77751   0.00000  Uiso   1.00
C766   C     0.47372   0.50180   0.85012   0.00000  Uiso   1.00
C767   C     0.52760   0.35396   0.78071   0.00000  Uiso   1.00
C768   C     0.49877   0.37602   0.75500   0.00000  Uiso   1.00
C769   C     0.46940   0.35492   0.72993   0.00000  Uiso   1.00
C770   C     0.46941   0.64564   0.72875   0.00000  Uiso   1.00
C771   C     0.49950   0.62375   0.75178   0.00000  Uiso   1.00
C772   C     0.63352   0.52772   0.77953   0.00000  Uiso   1.00
C773   C     0.34970   0.52755   0.77979   0.00000  Uiso   1.00
C774   C     0.36664   0.47252   0.72004   0.00000  Uiso   1.00
C775   C     0.65033   0.47248   0.72014   0.00000  Uiso   1.00
C776   C     0.49944   0.42074   0.75227   0.00000  Uiso   1.00
C777   C     0.52622   0.50051   0.64999   0.00000  Uiso   1.00
C778   C     0.59488   0.53563   0.51492   0.00000  Uiso   1.00
C779   C     0.54096   0.50578   0.59345   0.00000  Uiso   1.00
C780   C     0.41096   0.48675   0.93382   0.00000  Uiso   1.00
C781   C     0.39705   0.48082   0.98730   0.00000  Uiso   1.00
C782   C     0.43012   0.48847   0.51504   0.00000  Uiso   1.00
Cu783  Cu    0.45311   0.49999   0.75000   0.00000  Uiso   1.00
Cu784  Cu    0.54689   0.50001   0.75000   0.00000  Uiso   1.00
H785   H     0.61307   0.53047   0.58630   0.00000  Uiso   1.00
H786   H     0.44703   0.37145   0.71037   0.00000  Uiso   1.00
H787   H     0.44678   0.62980   0.70887   0.00000  Uiso   1.00
H788   H     0.60836   0.55022   0.80278   0.00000  Uiso   1.00
H789   H     0.36160   0.54961   0.80368   0.00000  Uiso   1.00
H790   H     0.39216   0.45054   0.69600   0.00000  Uiso   1.00
H791   H     0.63843   0.45046   0.69620   0.00000  Uiso   1.00
H792   H     0.60003   0.56135   0.91980   0.00000  Uiso   1.00
H793   H     0.62943   0.55039   0.99500   0.00000  Uiso   1.00
H794   H     0.47366   0.48126   0.58886   0.00000  Uiso   1.00
H795   H     0.38554   0.47797   0.91281   0.00000  Uiso   1.00
H796   H     0.41683   0.48256   0.55627   0.00000  Uiso   1.00
H797   H     0.36087   0.46892   0.50719   0.00000  Uiso   1.00
H798   H     0.53888   0.55208   0.87580   0.00000  Uiso   1.00
H799   H     0.55022   0.62671   0.79681   0.00000  Uiso   1.00
N800   N     0.38265   0.49999   0.74998   0.00000  Uiso   1.00
N801   N     0.61735   0.50002   0.74999   0.00000  Uiso   1.00
O802   O     0.46042   0.56011   0.75000   0.00000  Uiso   1.00
O803   O     0.53961   0.56012   0.75000   0.00000  Uiso   1.00
O804   O     0.44108   0.49998   0.82549   0.00000  Uiso   1.00
O805   O     0.52027   0.49999   0.82549   0.00000  Uiso   1.00
O806   O     0.46039   0.43988   0.74999   0.00000  Uiso   1.00
O807   O     0.53958   0.43989   0.74999   0.00000  Uiso   1.00
O808   O     0.47973   0.50001   0.67451   0.00000  Uiso   1.00
O809   O     0.55892   0.50002   0.67451   0.00000  Uiso   1.00
C810   C     0.55442   0.37455   0.81348   0.00000  Uiso   1.00
H811   H     0.54501   0.40566   0.82793   0.00000  Uiso   1.00
O812   O     0.58693   0.35658   0.82569   0.00000  Uiso   1.00
C813   C     0.83325   0.57924   0.75022   0.00000  Uiso   1.00
C814   C     0.81096   0.50422   0.98989   0.00000  Uiso   1.00
C815   C     0.82274   0.51477   0.93642   0.00000  Uiso   1.00
C816   C     0.84701   0.51030   0.51604   0.00000  Uiso   1.00
C817   C     0.89214   0.52985   0.98980   0.00000  Uiso   1.00
C818   C     0.90020   0.54451   0.93935   0.00000  Uiso   1.00
C819   C     0.86558   0.53786   0.91348   0.00000  Uiso   1.00
C820   C     0.83973   0.49741   0.56749   0.00000  Uiso   1.00
C821   C     0.91923   0.52384   0.56667   0.00000  Uiso   1.00
C822   C     0.79087   0.50250   0.90755   0.00000  Uiso   1.00
C823   C     0.86180   0.64435   0.77751   0.00000  Uiso   1.00
C824   C     0.80705   0.50180   0.85012   0.00000  Uiso   1.00
C825   C     0.86094   0.35396   0.78071   0.00000  Uiso   1.00
C826   C     0.83211   0.37602   0.75500   0.00000  Uiso   1.00
C827   C     0.80274   0.35492   0.72993   0.00000  Uiso   1.00
C828   C     0.80274   0.64564   0.72875   0.00000  Uiso   1.00
C829   C     0.83283   0.62375   0.75178   0.00000  Uiso   1.00
C830   C     0.96685   0.52772   0.77953   0.00000  Uiso   1.00
C831   C     0.68303   0.52755   0.77979   0.00000  Uiso   1.00
C832   C     0.69997   0.47252   0.72004   0.00000  Uiso   1.00
C833   C     0.98366   0.47248   0.72014   0.00000  Uiso   1.00
C834   C     0.83277   0.42074   0.75227   0.00000  Uiso   1.00
C835   C     0.85955   0.50051   0.64999   0.00000  Uiso   1.00
C836   C     0.92821   0.53563   0.51492   0.00000  Uiso   1.00
C837   C     0.87430   0.50578   0.59345   0.00000  Uiso   1.00
C838   C     0.74429   0.48675   0.93382   0.00000  Uiso   1.00
C839   C     0.73038   0.48082   0.98730   0.00000  Uiso   1.00
C840   C     0.76345   0.48847   0.51504   0.00000  Uiso   1.00
Cu841  Cu    0.78645   0.49999   0.75000   0.00000  Uiso   1.00
Cu842  Cu    0.88022   0.50001   0.75000   0.00000  Uiso   1.00
H843   H     0.94640   0.53047   0.58630   0.00000  Uiso   1.00
H844   H     0.78036   0.37145   0.71037   0.00000  Uiso   1.00
H845   H     0.78012   0.62980   0.70887   0.00000  Uiso   1.00
H846   H     0.94169   0.55022   0.80278   0.00000  Uiso   1.00
H847   H     0.69493   0.54961   0.80368   0.00000  Uiso   1.00
H848   H     0.72549   0.45054   0.69600   0.00000  Uiso   1.00
H849   H     0.97177   0.45046   0.69620   0.00000  Uiso   1.00
H850   H     0.93337   0.56135   0.91980   0.00000  Uiso   1.00
H851   H     0.96277   0.55039   0.99500   0.00000  Uiso   1.00
H852   H     0.80700   0.48126   0.58886   0.00000  Uiso   1.00
H853   H     0.71887   0.47797   0.91281   0.00000  Uiso   1.00
H854   H     0.75016   0.48256   0.55627   0.00000  Uiso   1.00
H855   H     0.69420   0.46892   0.50719   0.00000  Uiso   1.00
H856   H     0.87221   0.55208   0.87580   0.00000  Uiso   1.00
H857   H     0.88355   0.62671   0.79681   0.00000  Uiso   1.00
N858   N     0.71598   0.49999   0.74998   0.00000  Uiso   1.00
N859   N     0.95069   0.50002   0.74999   0.00000  Uiso   1.00
O860   O     0.79375   0.56011   0.75000   0.00000  Uiso   1.00
O861   O     0.87294   0.56012   0.75000   0.00000  Uiso   1.00
O862   O     0.77441   0.49998   0.82549   0.00000  Uiso   1.00
O863   O     0.85360   0.49999   0.82549   0.00000  Uiso   1.00
O864   O     0.79373   0.43988   0.74999   0.00000  Uiso   1.00
O865   O     0.87292   0.43989   0.74999   0.00000  Uiso   1.00
O866   O     0.81306   0.50001   0.67451   0.00000  Uiso   1.00
O867   O     0.89225   0.50002   0.67451   0.00000  Uiso   1.00
C868   C     0.88775   0.37455   0.81348   0.00000  Uiso   1.00
H869   H     0.87835   0.40566   0.82793   0.00000  Uiso   1.00
O870   O     0.92027   0.35658   0.82569   0.00000  Uiso   1.00
C871   C     0.16659   0.91258   0.75022   0.00000  Uiso   1.00
C872   C     0.14430   0.83755   0.98989   0.00000  Uiso   1.00
C873   C     0.15607   0.84810   0.93642   0.00000  Uiso   1.00
C874   C     0.18034   0.84364   0.51604   0.00000  Uiso   1.00
C875   C     0.22547   0.86319   0.98980   0.00000  Uiso   1.00
C876   C     0.23354   0.87784   0.93935   0.00000  Uiso   1.00
C877   C     0.19891   0.87119   0.91348   0.00000  Uiso   1.00
C878   C     0.17306   0.83074   0.56749   0.00000  Uiso   1.00
C879   C     0.25256   0.85718   0.56667   0.00000  Uiso   1.00
C880   C     0.12420   0.83583   0.90755   0.00000  Uiso   1.00
C881   C     0.19513   0.97768   0.77751   0.00000  Uiso   1.00
C882   C     0.14039   0.83513   0.85012   0.00000  Uiso   1.00
C883   C     0.19427   0.68730   0.78071   0.00000  Uiso   1.00
C884   C     0.16544   0.70936   0.75500   0.00000  Uiso   1.00
C885   C     0.13607   0.68825   0.72993   0.00000  Uiso   1.00
C886   C     0.13608   0.97897   0.72875   0.00000  Uiso   1.00
C887   C     0.16616   0.95708   0.75178   0.00000  Uiso   1.00
C888   C     0.30019   0.86105   0.77953   0.00000  Uiso   1.00
C889   C     0.01636   0.86088   0.77979   0.00000  Uiso   1.00
C890   C     0.03331   0.80586   0.72004   0.00000  Uiso   1.00
C891   C     0.31700   0.80581   0.72014   0.00000  Uiso   1.00
C892   C     0.16610   0.75408   0.75227   0.00000  Uiso   1.00
C893   C     0.19289   0.83384   0.64999   0.00000  Uiso   1.00
C894   C     0.26154   0.86896   0.51492   0.00000  Uiso   1.00
C895   C     0.20763   0.83912   0.59345   0.00000  Uiso   1.00
C896   C     0.07762   0.82008   0.93382   0.00000  Uiso   1.00
C897   C     0.06372   0.81415   0.98730   0.00000  Uiso   1.00
C898   C     0.09679   0.82180   0.51504   0.00000  Uiso   1.00
Cu899  Cu    0.11978   0.83333   0.75000   0.00000  Uiso   1.00
Cu900  Cu    0.21355   0.83334   0.75000   0.00000  Uiso   1.00
H901   H     0.27974   0.86381   0.58630   0.00000  Uiso   1.00
H902   H     0.11369   0.70478   0.71037   0.00000  Uiso   1.00
H903   H     0.11345   0.96314   0.70887   0.00000  Uiso   1.00
H904   H     0.27503   0.88355   0.80278   0.00000  Uiso   1.00
H905   H     0.02827   0.88294   0.80368   0.00000  Uiso   1.00
H906   H     0.05882   0.78387   0.69600   0.00000  Uiso   1.00
H907   H     0.30510   0.78380   0.69620   0.00000  Uiso   1.00
H908   H     0.26670   0.89469   0.91980   0.00000  Uiso   1.00
H909   H     0.29610   0.88372   0.99500   0.00000  Uiso   1.00
H910   H     0.14033   0.81459   0.58886   0.00000  Uiso   1.00
H911   H     0.05221   0.81130   0.91281   0.00000  Uiso   1.00
H912   H     0.08349   0.81589   0.55627   0.00000  Uiso   1.00
H913   H     0.02753   0.80225   0.50719   0.00000  Uiso   1.00
H914   H     0.20554   0.88542   0.87580   0.00000  Uiso   1.00
H915   H     0.21689   0.96004   0.79681   0.00000  Uiso   1.00
N916   N     0.04931   0.83332   0.74998   0.00000  Uiso   1.00
N917   N     0.28402   0.83335   0.74999   0.00000  Uiso   1.00
O918   O     0.12708   0.89345   0.75000   0.00000  Uiso   1.00
O919   O     0.20627   0.89346   0.75000   0.00000  Uiso   1.00
O920   O     0.10775   0.83332   0.82549   0.00000  Uiso   1.00
O921   O     0.18694   0.83333   0.82549   0.00000  Uiso   1.00
O922   O     0.12706   0.77321   0.74999   0.00000  Uiso   1.00
O923   O     0.20625   0.77322   0.74999   0.00000  Uiso   1.00
O924   O     0.14640   0.83334   0.67451   0.00000  Uiso   1.00
O925   O     0.22559   0.83335   0.67451   0.00000  Uiso   1.00
C926   C     0.22108   0.70789   0.81348   0.00000  Uiso   1.00
H927   H     0.21168   0.73899   0.82793   0.00000  Uiso   1.00
O928   O     0.25360   0.68991   0.82569   0.00000  Uiso   1.00
C929   C     0.49992   0.91258   0.75022   0.00000  Uiso   1.00
C930   C     0.47763   0.83755   0.98989   0.00000  Uiso   1.00
C931   C     0.48940   0.84810   0.93642   0.00000  Uiso   1.00
C932   C     0.51367   0.84364   0.51604   0.00000  Uiso   1.00
C933   C     0.55880   0.86319   0.98980   0.00000  Uiso   1.00
C934   C     0.56687   0.87784   0.93935   0.00000  Uiso   1.00
C935   C     0.53224   0.87119   0.91348   0.00000  Uiso   1.00
C936   C     0.50640   0.83074   0.56749   0.00000  Uiso   1.00
C937   C     0.58589   0.85718   0.56667   0.00000  Uiso   1.00
C938   C     0.45753   0.83583   0.90755   0.00000  Uiso   1.00
C939   C     0.52846   0.97768   0.77751   0.00000  Uiso   1.00
C940   C     0.47372   0.83513   0.85012   0.00000  Uiso   1.00
C941   C     0.52760   0.68730   0.78071   0.00000  Uiso   1.00
C942   C     0.49877   0.70936   0.75500   0.00000  Uiso   1.00
C943   C     0.46940   0.68825   0.72993   0.00000  Uiso   1.00
C944   C     0.46941   0.97897   0.72875   0.00000  Uiso   1.00
C945   C     0.49950   0.95708   0.75178   0.00000  Uiso   1.00
C946   C     0.63352   0.86105   0.77953   0.00000  Uiso   1.00
C947   C     0.34970   0.86088   0.77979   0.00000  Uiso   1.00
C948   C     0.36664   0.80586   0.72004   0.00000  Uiso   1.00
C949   C     0.65033   0.80581   0.72014   0.00000  Uiso   1.00
C950   C     0.49944   0.75408   0.75227   0.00000  Uiso   1.00
C951   C     0.52622   0.83384   0.64999   0.00000  Uiso   1.00
C952   C     0.59488   0.86896   0.51492   0.00000  Uiso   1.00
C953   C     0.54096   0.83912   0.59345   0.00000  Uiso   1.00
C954   C     0.41096   0.82008   0.93382   0.00000  Uiso   1.00
C955   C     0.39705   0.81415   0.98730   0.00000  Uiso   1.00
C956   C     0.43012   0.82180   0.51504   0.00000  Uiso   1.00
Cu957  Cu    0.45311   0.83333   0.75000   0.00000  Uiso   1.00
Cu958  Cu    0.54689   0.83334   0.75000   0.00000  Uiso   1.00
H959   H     0.61307   0.86381   0.58630   0.00000  Uiso   1.00
H960   H     0.44703   0.70478   0.71037   0.00000  Uiso   1.00
H961   H     0.44678   0.96314   0.70887   0.00000  Uiso   1.00
H962   H     0.60836   0.88355   0.80278   0.00000  Uiso   1.00
H963   H     0.36160   0.88294   0.80368   0.00000  Uiso   1.00
H964   H     0.39216   0.78387   0.69600   0.00000  Uiso   1.00
H965   H     0.63843   0.78380   0.69620   0.00000  Uiso   1.00
H966   H     0.60003   0.89469   0.91980   0.00000  Uiso   1.00
H967   H     0.62943   0.88372   0.99500   0.00000  Uiso   1.00
H968   H     0.47366   0.81459   0.58886   0.00000  Uiso   1.00
H969   H     0.38554   0.81130   0.91281   0.00000  Uiso   1.00
H970   H     0.41683   0.81589   0.55627   0.00000  Uiso   1.00
H971   H     0.36087   0.80225   0.50719   0.00000  Uiso   1.00
H972   H     0.53888   0.88542   0.87580   0.00000  Uiso   1.00
H973   H     0.55022   0.96004   0.79681   0.00000  Uiso   1.00
N974   N     0.38265   0.83332   0.74998   0.00000  Uiso   1.00
N975   N     0.61735   0.83335   0.74999   0.00000  Uiso   1.00
O976   O     0.46042   0.89345   0.75000   0.00000  Uiso   1.00
O977   O     0.53961   0.89346   0.75000   0.00000  Uiso   1.00
O978   O     0.44108   0.83332   0.82549   0.00000  Uiso   1.00
O979   O     0.52027   0.83333   0.82549   0.00000  Uiso   1.00
O980   O     0.46039   0.77321   0.74999   0.00000  Uiso   1.00
O981   O     0.53958   0.77322   0.74999   0.00000  Uiso   1.00
O982   O     0.47973   0.83334   0.67451   0.00000  Uiso   1.00
O983   O     0.55892   0.83335   0.67451   0.00000  Uiso   1.00
C984   C     0.55442   0.70789   0.81348   0.00000  Uiso   1.00
H985   H     0.54501   0.73899   0.82793   0.00000  Uiso   1.00
O986   O     0.58693   0.68991   0.82569   0.00000  Uiso   1.00
C987   C     0.83325   0.91258   0.75022   0.00000  Uiso   1.00
C988   C     0.81096   0.83755   0.98989   0.00000  Uiso   1.00
C989   C     0.82274   0.84810   0.93642   0.00000  Uiso   1.00
C990   C     0.84701   0.84364   0.51604   0.00000  Uiso   1.00
C991   C     0.89214   0.86319   0.98980   0.00000  Uiso   1.00
C992   C     0.90020   0.87784   0.93935   0.00000  Uiso   1.00
C993   C     0.86558   0.87119   0.91348   0.00000  Uiso   1.00
C994   C     0.83973   0.83074   0.56749   0.00000  Uiso   1.00
C995   C     0.91923   0.85718   0.56667   0.00000  Uiso   1.00
C996   C     0.79087   0.83583   0.90755   0.00000  Uiso   1.00
C997   C     0.86180   0.97768   0.77751   0.00000  Uiso   1.00
C998   C     0.80705   0.83513   0.85012   0.00000  Uiso   1.00
C999   C     0.86094   0.68730   0.78071   0.00000  Uiso   1.00
C1000  C     0.83211   0.70936   0.75500   0.00000  Uiso   1.00
C1001  C     0.80274   0.68825   0.72993   0.00000  Uiso   1.00
C1002  C     0.80274   0.97897   0.72875   0.00000  Uiso   1.00
C1003  C     0.83283   0.95708   0.75178   0.00000  Uiso   1.00
C1004  C     0.96685   0.86105   0.77953   0.00000  Uiso   1.00
C1005  C     0.68303   0.86088   0.77979   0.00000  Uiso   1.00
C1006  C     0.69997   0.80586   0.72004   0.00000  Uiso   1.00
C1007  C     0.98366   0.80581   0.72014   0.00000  Uiso   1.00
C1008  C     0.83277   0.75408   0.75227   0.00000  Uiso   1.00
C1009  C     0.85955   0.83384   0.64999   0.00000  Uiso   1.00
C1010  C     0.92821   0.86896   0.51492   0.00000  Uiso   1.00
C1011  C     0.87430   0.83912   0.59345   0.00000  Uiso   1.00
C1012  C     0.74429   0.82008   0.93382   0.00000  Uiso   1.00
C1013  C     0.73038   0.81415   0.98730   0.00000  Uiso   1.00
C1014  C     0.76345   0.82180   0.51504   0.00000  Uiso   1.00
Cu1015 Cu    0.78645   0.83333   0.75000   0.00000  Uiso   1.00
Cu1016 Cu    0.88022   0.83334   0.75000   0.00000  Uiso   1.00
H1017  H     0.94640   0.86381   0.58630   0.00000  Uiso   1.00
H1018  H     0.78036   0.70478   0.71037   0.00000  Uiso   1.00
H1019  H     0.78012   0.96314   0.70887   0.00000  Uiso   1.00
H1020  H     0.94169   0.88355   0.80278   0.00000  Uiso   1.00
H1021  H     0.69493   0.88294   0.80368   0.00000  Uiso   1.00
H1022  H     0.72549   0.78387   0.69600   0.00000  Uiso   1.00
H1023  H     0.97177   0.78380   0.69620   0.00000  Uiso   1.00
H1024  H     0.93337   0.89469   0.91980   0.00000  Uiso   1.00
H1025  H     0.96277   0.88372   0.99500   0.00000  Uiso   1.00
H1026  H     0.80700   0.81459   0.58886   0.00000  Uiso   1.00
H1027  H     0.71887   0.81130   0.91281   0.00000  Uiso   1.00
H1028  H     0.75016   0.81589   0.55627   0.00000  Uiso   1.00
H1029  H     0.69420   0.80225   0.50719   0.00000  Uiso   1.00
H1030  H     0.87221   0.88542   0.87580   0.00000  Uiso   1.00
H1031  H     0.88355   0.96004   0.79681   0.00000  Uiso   1.00
N1032  N     0.71598   0.83332   0.74998   0.00000  Uiso   1.00
N1033  N     0.95069   0.83335   0.74999   0.00000  Uiso   1.00
O1034  O     0.79375   0.89345   0.75000   0.00000  Uiso   1.00
O1035  O     0.87294   0.89346   0.75000   0.00000  Uiso   1.00
O1036  O     0.77441   0.83332   0.82549   0.00000  Uiso   1.00
O1037  O     0.85360   0.83333   0.82549   0.00000  Uiso   1.00
O1038  O     0.79373   0.77321   0.74999   0.00000  Uiso   1.00
O1039  O     0.87292   0.77322   0.74999   0.00000  Uiso   1.00
O1040  O     0.81306   0.83334   0.67451   0.00000  Uiso   1.00
O1041  O     0.89225   0.83335   0.67451   0.00000  Uiso   1.00
C1042  C     0.88775   0.70789   0.81348   0.00000  Uiso   1.00
H1043  H     0.87835   0.73899   0.82793   0.00000  Uiso   1.00
O1044  O     0.92027   0.68991   0.82569   0.00000  Uiso   1.00
loop_
_geom_bond_atom_site_label_1
_geom_bond_atom_site_label_2
_geom_bond_distance
_geom_bond_site_symmetry_2
_ccdc_geom_bond_type
C1     C17     1.443   .     S
C1     O48     1.290   .     A
C1     O49     1.289   .     A
C2     C3      1.418   .     A
C2     C526    1.424   .     S
C2     C550    1.418   .     S
C3     C10     1.419   .     A
C3     C7      1.410   .     A
C4     C8      1.402   .     A
C4     C524    1.424   1_554 S
C4     C527    1.421   1_554 S
C5     C6      1.392   .     A
C5     C526    1.421   .     S
C5     C546    1.404   .     S
C6     H38     1.084   .     S
C6     C7      1.386   .     A
C7     H44     1.079   .     S
C8     C25     1.396   .     A
C8     H40     1.076   .     S
C9     C24     1.392   .     A
C9     C25     1.399   .     A
C9     H31     1.083   .     S
C10    C26     1.403   .     A
C10    C12     1.474   .     S
C11    H45     1.085   .     S
C11    C17     1.397   .     A
C11    C187    1.395   .     S
C12    O50     1.297   .     A
C12    O51     1.296   .     A
C13    C56     1.488   .     S
C13    C14     1.418   .     A
C13    C359    1.395   1_545 S
C14    C22     1.452   .     S
C14    C15     1.402   .     A
C15    H32     1.084   .     S
C15    C364    1.382   1_545 S
C16    H33     1.084   .     S
C16    C17     1.395   .     A
C16    C189    1.382   .     S
C18    N47     1.367   .     A
C18    H34     1.080   .     S
C18    C77     1.416   .     S
C19    N46     1.366   .     A
C19    H35     1.082   .     S
C19    C134    1.416   1_455 S
C20    H36     1.082   .     S
C20    N46     1.367   .     A
C20    C137    1.417   1_455 S
C21    H37     1.082   .     S
C21    N47     1.367   .     A
C21    C78     1.417   .     S
C22    O53     1.290   .     A
C22    O52     1.292   .     A
C23    O55     1.295   .     A
C23    C25     1.462   .     S
C23    O54     1.293   .     A
C24    C527    1.404   1_554 S
C24    H561    1.084   1_554 S
C26    C27     1.387   .     A
C26    H41     1.083   .     S
C27    C550    1.391   .     S
C27    H565    1.083   .     S
C28    H42     1.077   .     S
C28    C549    1.391   1_554 S
C28    C524    1.418   1_554 S
Cu29   N46     2.012   .     S
Cu29   Cu30    2.677   .     S
Cu29   O50     1.956   .     S
Cu29   O54     1.943   .     S
Cu29   O48     1.961   .     S
Cu29   O52     1.960   .     S
Cu30   O51     1.943   .     S
Cu30   O55     1.956   .     S
Cu30   O49     1.960   .     S
Cu30   O53     1.961   .     S
Cu30   N47     2.012   .     S
H39    C546    1.084   .     S
H43    C549    1.083   1_554 S
C56    H57     1.084   .     S
C56    O58     1.221   .     D
C59    C75     1.443   .     S
C59    O106    1.290   .     A
C59    O107    1.289   .     A
C60    C61     1.418   .     A
C60    C584    1.424   .     S
C60    C608    1.418   .     S
C61    C68     1.419   .     A
C61    C65     1.410   .     A
C62    C66     1.402   .     A
C62    C582    1.424   1_554 S
C62    C585    1.421   1_554 S
C63    C64     1.392   .     A
C63    C584    1.421   .     S
C63    C604    1.404   .     S
C64    H96     1.084   .     S
C64    C65     1.386   .     A
C65    H102    1.079   .     S
C66    C83     1.396   .     A
C66    H98     1.076   .     S
C67    C82     1.392   .     A
C67    C83     1.399   .     A
C67    H89     1.083   .     S
C68    C84     1.403   .     A
C68    C70     1.474   .     S
C69    H103    1.085   .     S
C69    C75     1.397   .     A
C69    C245    1.395   .     S
C70    O108    1.297   .     A
C70    O109    1.296   .     A
C71    C114    1.488   .     S
C71    C72     1.418   .     A
C71    C417    1.395   1_545 S
C72    C80     1.452   .     S
C72    C73     1.402   .     A
C73    H90     1.084   .     S
C73    C422    1.382   1_545 S
C74    H91     1.084   .     S
C74    C75     1.395   .     A
C74    C247    1.382   .     S
C76    N105    1.367   .     A
C76    H92     1.080   .     S
C76    C135    1.416   .     S
C77    N104    1.366   .     A
C77    H93     1.082   .     S
C78    H94     1.082   .     S
C78    N104    1.367   .     A
C79    H95     1.082   .     S
C79    N105    1.367   .     A
C79    C136    1.417   .     S
C80    O111    1.290   .     A
C80    O110    1.292   .     A
C81    O113    1.295   .     A
C81    C83     1.462   .     S
C81    O112    1.293   .     A
C82    C585    1.404   1_554 S
C82    H619    1.084   1_554 S
C84    C85     1.387   .     A
C84    H99     1.083   .     S
C85    C608    1.391   .     S
C85    H623    1.083   .     S
C86    H100    1.077   .     S
C86    C607    1.391   1_554 S
C86    C582    1.418   1_554 S
Cu87   N104    2.012   .     S
Cu87   Cu88    2.677   .     S
Cu87   O108    1.956   .     S
Cu87   O112    1.943   .     S
Cu87   O106    1.961   .     S
Cu87   O110    1.960   .     S
Cu88   O109    1.943   .     S
Cu88   O113    1.956   .     S
Cu88   O107    1.960   .     S
Cu88   O111    1.961   .     S
Cu88   N105    2.012   .     S
H97    C604    1.084   .     S
H101   C607    1.083   1_554 S
C114   H115    1.084   .     S
C114   O116    1.221   .     D
C117   C133    1.443   .     S
C117   O164    1.290   .     A
C117   O165    1.289   .     A
C118   C119    1.418   .     A
C118   C642    1.424   .     S
C118   C666    1.418   .     S
C119   C126    1.419   .     A
C119   C123    1.410   .     A
C120   C124    1.402   .     A
C120   C640    1.424   1_554 S
C120   C643    1.421   1_554 S
C121   C122    1.392   .     A
C121   C642    1.421   .     S
C121   C662    1.404   .     S
C122   H154    1.084   .     S
C122   C123    1.386   .     A
C123   H160    1.079   .     S
C124   C141    1.396   .     A
C124   H156    1.076   .     S
C125   C140    1.392   .     A
C125   C141    1.399   .     A
C125   H147    1.083   .     S
C126   C142    1.403   .     A
C126   C128    1.474   .     S
C127   H161    1.085   .     S
C127   C133    1.397   .     A
C127   C303    1.395   .     S
C128   O166    1.297   .     A
C128   O167    1.296   .     A
C129   C172    1.488   .     S
C129   C130    1.418   .     A
C129   C475    1.395   1_545 S
C130   C138    1.452   .     S
C130   C131    1.402   .     A
C131   H148    1.084   .     S
C131   C480    1.382   1_545 S
C132   H149    1.084   .     S
C132   C133    1.395   .     A
C132   C305    1.382   .     S
C134   N163    1.367   .     A
C134   H150    1.080   .     S
C134   C19     1.416   1_655 S
C135   N162    1.366   .     A
C135   H151    1.082   .     S
C136   H152    1.082   .     S
C136   N162    1.367   .     A
C137   H153    1.082   .     S
C137   N163    1.367   .     A
C137   C20     1.417   1_655 S
C138   O169    1.290   .     A
C138   O168    1.292   .     A
C139   O171    1.295   .     A
C139   C141    1.462   .     S
C139   O170    1.293   .     A
C140   C643    1.404   1_554 S
C140   H677    1.084   1_554 S
C142   C143    1.387   .     A
C142   H157    1.083   .     S
C143   C666    1.391   .     S
C143   H681    1.083   .     S
C144   H158    1.077   .     S
C144   C665    1.391   1_554 S
C144   C640    1.418   1_554 S
Cu145  N162    2.012   .     S
Cu145  Cu146   2.677   .     S
Cu145  O166    1.956   .     S
Cu145  O170    1.943   .     S
Cu145  O164    1.961   .     S
Cu145  O168    1.960   .     S
Cu146  O167    1.943   .     S
Cu146  O171    1.956   .     S
Cu146  O165    1.960   .     S
Cu146  O169    1.961   .     S
Cu146  N163    2.012   .     S
H155   C662    1.084   .     S
H159   C665    1.083   1_554 S
C172   H173    1.084   .     S
C172   O174    1.221   .     D
C175   C191    1.443   .     S
C175   O222    1.290   .     A
C175   O223    1.289   .     A
C176   C177    1.418   .     A
C176   C700    1.424   .     S
C176   C724    1.418   .     S
C177   C184    1.419   .     A
C177   C181    1.410   .     A
C178   C182    1.402   .     A
C178   C698    1.424   1_554 S
C178   C701    1.421   1_554 S
C179   C180    1.392   .     A
C179   C700    1.421   .     S
C179   C720    1.404   .     S
C180   H212    1.084   .     S
C180   C181    1.386   .     A
C181   H218    1.079   .     S
C182   C199    1.396   .     A
C182   H214    1.076   .     S
C183   C198    1.392   .     A
C183   C199    1.399   .     A
C183   H205    1.083   .     S
C184   C200    1.403   .     A
C184   C186    1.474   .     S
C185   H219    1.085   .     S
C185   C191    1.397   .     A
C185   C361    1.395   .     S
C186   O224    1.297   .     A
C186   O225    1.296   .     A
C187   C230    1.488   .     S
C187   C188    1.418   .     A
C188   C196    1.452   .     S
C188   C189    1.402   .     A
C189   H206    1.084   .     S
C190   H207    1.084   .     S
C190   C191    1.395   .     A
C190   C363    1.382   .     S
C192   N221    1.367   .     A
C192   H208    1.080   .     S
C192   C251    1.416   .     S
C193   N220    1.366   .     A
C193   H209    1.082   .     S
C193   C308    1.416   1_455 S
C194   H210    1.082   .     S
C194   N220    1.367   .     A
C194   C311    1.417   1_455 S
C195   H211    1.082   .     S
C195   N221    1.367   .     A
C195   C252    1.417   .     S
C196   O227    1.290   .     A
C196   O226    1.292   .     A
C197   O229    1.295   .     A
C197   C199    1.462   .     S
C197   O228    1.293   .     A
C198   C701    1.404   1_554 S
C198   H735    1.084   1_554 S
C200   C201    1.387   .     A
C200   H215    1.083   .     S
C201   C724    1.391   .     S
C201   H739    1.083   .     S
C202   H216    1.077   .     S
C202   C723    1.391   1_554 S
C202   C698    1.418   1_554 S
Cu203  N220    2.012   .     S
Cu203  Cu204   2.677   .     S
Cu203  O224    1.956   .     S
Cu203  O228    1.943   .     S
Cu203  O222    1.961   .     S
Cu203  O226    1.960   .     S
Cu204  O225    1.943   .     S
Cu204  O229    1.956   .     S
Cu204  O223    1.960   .     S
Cu204  O227    1.961   .     S
Cu204  N221    2.012   .     S
H213   C720    1.084   .     S
H217   C723    1.083   1_554 S
C230   H231    1.084   .     S
C230   O232    1.221   .     D
C233   C249    1.443   .     S
C233   O280    1.290   .     A
C233   O281    1.289   .     A
C234   C235    1.418   .     A
C234   C758    1.424   .     S
C234   C782    1.418   .     S
C235   C242    1.419   .     A
C235   C239    1.410   .     A
C236   C240    1.402   .     A
C236   C756    1.424   1_554 S
C236   C759    1.421   1_554 S
C237   C238    1.392   .     A
C237   C758    1.421   .     S
C237   C778    1.404   .     S
C238   H270    1.084   .     S
C238   C239    1.386   .     A
C239   H276    1.079   .     S
C240   C257    1.396   .     A
C240   H272    1.076   .     S
C241   C256    1.392   .     A
C241   C257    1.399   .     A
C241   H263    1.083   .     S
C242   C258    1.403   .     A
C242   C244    1.474   .     S
C243   H277    1.085   .     S
C243   C249    1.397   .     A
C243   C419    1.395   .     S
C244   O282    1.297   .     A
C244   O283    1.296   .     A
C245   C288    1.488   .     S
C245   C246    1.418   .     A
C246   C254    1.452   .     S
C246   C247    1.402   .     A
C247   H264    1.084   .     S
C248   H265    1.084   .     S
C248   C249    1.395   .     A
C248   C421    1.382   .     S
C250   N279    1.367   .     A
C250   H266    1.080   .     S
C250   C309    1.416   .     S
C251   N278    1.366   .     A
C251   H267    1.082   .     S
C252   H268    1.082   .     S
C252   N278    1.367   .     A
C253   H269    1.082   .     S
C253   N279    1.367   .     A
C253   C310    1.417   .     S
C254   O285    1.290   .     A
C254   O284    1.292   .     A
C255   O287    1.295   .     A
C255   C257    1.462   .     S
C255   O286    1.293   .     A
C256   C759    1.404   1_554 S
C256   H793    1.084   1_554 S
C258   C259    1.387   .     A
C258   H273    1.083   .     S
C259   C782    1.391   .     S
C259   H797    1.083   .     S
C260   H274    1.077   .     S
C260   C781    1.391   1_554 S
C260   C756    1.418   1_554 S
Cu261  N278    2.012   .     S
Cu261  Cu262   2.677   .     S
Cu261  O282    1.956   .     S
Cu261  O286    1.943   .     S
Cu261  O280    1.961   .     S
Cu261  O284    1.960   .     S
Cu262  O283    1.943   .     S
Cu262  O287    1.956   .     S
Cu262  O281    1.960   .     S
Cu262  O285    1.961   .     S
Cu262  N279    2.012   .     S
H271   C778    1.084   .     S
H275   C781    1.083   1_554 S
C288   H289    1.084   .     S
C288   O290    1.221   .     D
C291   C307    1.443   .     S
C291   O338    1.290   .     A
C291   O339    1.289   .     A
C292   C293    1.418   .     A
C292   C816    1.424   .     S
C292   C840    1.418   .     S
C293   C300    1.419   .     A
C293   C297    1.410   .     A
C294   C298    1.402   .     A
C294   C814    1.424   1_554 S
C294   C817    1.421   1_554 S
C295   C296    1.392   .     A
C295   C816    1.421   .     S
C295   C836    1.404   .     S
C296   H328    1.084   .     S
C296   C297    1.386   .     A
C297   H334    1.079   .     S
C298   C315    1.396   .     A
C298   H330    1.076   .     S
C299   C314    1.392   .     A
C299   C315    1.399   .     A
C299   H321    1.083   .     S
C300   C316    1.403   .     A
C300   C302    1.474   .     S
C301   H335    1.085   .     S
C301   C307    1.397   .     A
C301   C477    1.395   .     S
C302   O340    1.297   .     A
C302   O341    1.296   .     A
C303   C346    1.488   .     S
C303   C304    1.418   .     A
C304   C312    1.452   .     S
C304   C305    1.402   .     A
C305   H322    1.084   .     S
C306   H323    1.084   .     S
C306   C307    1.395   .     A
C306   C479    1.382   .     S
C308   N337    1.367   .     A
C308   H324    1.080   .     S
C308   C193    1.416   1_655 S
C309   N336    1.366   .     A
C309   H325    1.082   .     S
C310   H326    1.082   .     S
C310   N336    1.367   .     A
C311   H327    1.082   .     S
C311   N337    1.367   .     A
C311   C194    1.417   1_655 S
C312   O343    1.290   .     A
C312   O342    1.292   .     A
C313   O345    1.295   .     A
C313   C315    1.462   .     S
C313   O344    1.293   .     A
C314   C817    1.404   1_554 S
C314   H851    1.084   1_554 S
C316   C317    1.387   .     A
C316   H331    1.083   .     S
C317   C840    1.391   .     S
C317   H855    1.083   .     S
C318   H332    1.077   .     S
C318   C839    1.391   1_554 S
C318   C814    1.418   1_554 S
Cu319  N336    2.012   .     S
Cu319  Cu320   2.677   .     S
Cu319  O340    1.956   .     S
Cu319  O344    1.943   .     S
Cu319  O338    1.961   .     S
Cu319  O342    1.960   .     S
Cu320  O341    1.943   .     S
Cu320  O345    1.956   .     S
Cu320  O339    1.960   .     S
Cu320  O343    1.961   .     S
Cu320  N337    2.012   .     S
H329   C836    1.084   .     S
H333   C839    1.083   1_554 S
C346   H347    1.084   .     S
C346   O348    1.221   .     D
C349   C365    1.443   .     S
C349   O396    1.290   .     A
C349   O397    1.289   .     A
C350   C351    1.418   .     A
C350   C874    1.424   .     S
C350   C898    1.418   .     S
C351   C358    1.419   .     A
C351   C355    1.410   .     A
C352   C356    1.402   .     A
C352   C872    1.424   1_554 S
C352   C875    1.421   1_554 S
C353   C354    1.392   .     A
C353   C874    1.421   .     S
C353   C894    1.404   .     S
C354   H386    1.084   .     S
C354   C355    1.386   .     A
C355   H392    1.079   .     S
C356   C373    1.396   .     A
C356   H388    1.076   .     S
C357   C372    1.392   .     A
C357   C373    1.399   .     A
C357   H379    1.083   .     S
C358   C374    1.403   .     A
C358   C360    1.474   .     S
C359   H393    1.085   .     S
C359   C365    1.397   .     A
C359   C13     1.395   1_565 S
C360   O398    1.297   .     A
C360   O399    1.296   .     A
C361   C404    1.488   .     S
C361   C362    1.418   .     A
C362   C370    1.452   .     S
C362   C363    1.402   .     A
C363   H380    1.084   .     S
C364   H381    1.084   .     S
C364   C365    1.395   .     A
C364   C15     1.382   1_565 S
C366   N395    1.367   .     A
C366   H382    1.080   .     S
C366   C425    1.416   .     S
C367   N394    1.366   .     A
C367   H383    1.082   .     S
C367   C482    1.416   1_455 S
C368   H384    1.082   .     S
C368   N394    1.367   .     A
C368   C485    1.417   1_455 S
C369   H385    1.082   .     S
C369   N395    1.367   .     A
C369   C426    1.417   .     S
C370   O401    1.290   .     A
C370   O400    1.292   .     A
C371   O403    1.295   .     A
C371   C373    1.462   .     S
C371   O402    1.293   .     A
C372   C875    1.404   1_554 S
C372   H909    1.084   1_554 S
C374   C375    1.387   .     A
C374   H389    1.083   .     S
C375   C898    1.391   .     S
C375   H913    1.083   .     S
C376   H390    1.077   .     S
C376   C897    1.391   1_554 S
C376   C872    1.418   1_554 S
Cu377  N394    2.012   .     S
Cu377  Cu378   2.677   .     S
Cu377  O398    1.956   .     S
Cu377  O402    1.943   .     S
Cu377  O396    1.961   .     S
Cu377  O400    1.960   .     S
Cu378  O399    1.943   .     S
Cu378  O403    1.956   .     S
Cu378  O397    1.960   .     S
Cu378  O401    1.961   .     S
Cu378  N395    2.012   .     S
H387   C894    1.084   .     S
H391   C897    1.083   1_554 S
C404   H405    1.084   .     S
C404   O406    1.221   .     D
C407   C423    1.443   .     S
C407   O454    1.290   .     A
C407   O455    1.289   .     A
C408   C409    1.418   .     A
C408   C932    1.424   .     S
C408   C956    1.418   .     S
C409   C416    1.419   .     A
C409   C413    1.410   .     A
C410   C414    1.402   .     A
C410   C930    1.424   1_554 S
C410   C933    1.421   1_554 S
C411   C412    1.392   .     A
C411   C932    1.421   .     S
C411   C952    1.404   .     S
C412   H444    1.084   .     S
C412   C413    1.386   .     A
C413   H450    1.079   .     S
C414   C431    1.396   .     A
C414   H446    1.076   .     S
C415   C430    1.392   .     A
C415   C431    1.399   .     A
C415   H437    1.083   .     S
C416   C432    1.403   .     A
C416   C418    1.474   .     S
C417   H451    1.085   .     S
C417   C423    1.397   .     A
C417   C71     1.395   1_565 S
C418   O456    1.297   .     A
C418   O457    1.296   .     A
C419   C462    1.488   .     S
C419   C420    1.418   .     A
C420   C428    1.452   .     S
C420   C421    1.402   .     A
C421   H438    1.084   .     S
C422   H439    1.084   .     S
C422   C423    1.395   .     A
C422   C73     1.382   1_565 S
C424   N453    1.367   .     A
C424   H440    1.080   .     S
C424   C483    1.416   .     S
C425   N452    1.366   .     A
C425   H441    1.082   .     S
C426   H442    1.082   .     S
C426   N452    1.367   .     A
C427   H443    1.082   .     S
C427   N453    1.367   .     A
C427   C484    1.417   .     S
C428   O459    1.290   .     A
C428   O458    1.292   .     A
C429   O461    1.295   .     A
C429   C431    1.462   .     S
C429   O460    1.293   .     A
C430   C933    1.404   1_554 S
C430   H967    1.084   1_554 S
C432   C433    1.387   .     A
C432   H447    1.083   .     S
C433   C956    1.391   .     S
C433   H971    1.083   .     S
C434   H448    1.077   .     S
C434   C955    1.391   1_554 S
C434   C930    1.418   1_554 S
Cu435  N452    2.012   .     S
Cu435  Cu436   2.677   .     S
Cu435  O456    1.956   .     S
Cu435  O460    1.943   .     S
Cu435  O454    1.961   .     S
Cu435  O458    1.960   .     S
Cu436  O457    1.943   .     S
Cu436  O461    1.956   .     S
Cu436  O455    1.960   .     S
Cu436  O459    1.961   .     S
Cu436  N453    2.012   .     S
H445   C952    1.084   .     S
H449   C955    1.083   1_554 S
C462   H463    1.084   .     S
C462   O464    1.221   .     D
C465   C481    1.443   .     S
C465   O512    1.290   .     A
C465   O513    1.289   .     A
C466   C467    1.418   .     A
C466   C990    1.424   .     S
C466   C1014   1.418   .     S
C467   C474    1.419   .     A
C467   C471    1.410   .     A
C468   C472    1.402   .     A
C468   C988    1.424   1_554 S
C468   C991    1.421   1_554 S
C469   C470    1.392   .     A
C469   C990    1.421   .     S
C469   C1010   1.404   .     S
C470   H502    1.084   .     S
C470   C471    1.386   .     A
C471   H508    1.079   .     S
C472   C489    1.396   .     A
C472   H504    1.076   .     S
C473   C488    1.392   .     A
C473   C489    1.399   .     A
C473   H495    1.083   .     S
C474   C490    1.403   .     A
C474   C476    1.474   .     S
C475   H509    1.085   .     S
C475   C481    1.397   .     A
C475   C129    1.395   1_565 S
C476   O514    1.297   .     A
C476   O515    1.296   .     A
C477   C520    1.488   .     S
C477   C478    1.418   .     A
C478   C486    1.452   .     S
C478   C479    1.402   .     A
C479   H496    1.084   .     S
C480   H497    1.084   .     S
C480   C481    1.395   .     A
C480   C131    1.382   1_565 S
C482   N511    1.367   .     A
C482   H498    1.080   .     S
C482   C367    1.416   1_655 S
C483   N510    1.366   .     A
C483   H499    1.082   .     S
C484   H500    1.082   .     S
C484   N510    1.367   .     A
C485   H501    1.082   .     S
C485   N511    1.367   .     A
C485   C368    1.417   1_655 S
C486   O517    1.290   .     A
C486   O516    1.292   .     A
C487   O519    1.295   .     A
C487   C489    1.462   .     S
C487   O518    1.293   .     A
C488   C991    1.404   1_554 S
C488   H1025   1.084   1_554 S
C490   C491    1.387   .     A
C490   H505    1.083   .     S
C491   C1014   1.391   .     S
C491   H1029   1.083   .     S
C492   H506    1.077   .     S
C492   C1013   1.391   1_554 S
C492   C988    1.418   1_554 S
Cu493  N510    2.012   .     S
Cu493  Cu494   2.677   .     S
Cu493  O514    1.956   .     S
Cu493  O518    1.943   .     S
Cu493  O512    1.961   .     S
Cu493  O516    1.960   .     S
Cu494  O515    1.943   .     S
Cu494  O519    1.956   .     S
Cu494  O513    1.960   .     S
Cu494  O517    1.961   .     S
Cu494  N511    2.012   .     S
H503   C1010   1.084   .     S
H507   C1013   1.083   1_554 S
C520   H521    1.084   .     S
C520   O522    1.221   .     D
C523   C539    1.443   .     S
C523   O570    1.290   .     A
C523   O571    1.289   .     A
C524   C525    1.418   .     A
C524   C4      1.424   1_556 S
C524   C28     1.418   1_556 S
C525   C532    1.419   .     A
C525   C529    1.410   .     A
C526   C530    1.402   .     A
C527   C528    1.392   .     A
C527   C4      1.421   1_556 S
C527   C24     1.404   1_556 S
C528   H560    1.084   .     S
C528   C529    1.386   .     A
C529   H566    1.079   .     S
C530   C547    1.396   .     A
C530   H562    1.076   .     S
C531   C546    1.392   .     A
C531   C547    1.399   .     A
C531   H553    1.083   .     S
C532   C548    1.403   .     A
C532   C534    1.474   .     S
C533   H567    1.085   .     S
C533   C539    1.397   .     A
C533   C709    1.395   .     S
C534   O572    1.297   .     A
C534   O573    1.296   .     A
C535   C578    1.488   .     S
C535   C536    1.418   .     A
C535   C881    1.395   1_545 S
C536   C544    1.452   .     S
C536   C537    1.402   .     A
C537   H554    1.084   .     S
C537   C886    1.382   1_545 S
C538   H555    1.084   .     S
C538   C539    1.395   .     A
C538   C711    1.382   .     S
C540   N569    1.367   .     A
C540   H556    1.080   .     S
C540   C599    1.416   .     S
C541   N568    1.366   .     A
C541   H557    1.082   .     S
C541   C656    1.416   1_455 S
C542   H558    1.082   .     S
C542   N568    1.367   .     A
C542   C659    1.417   1_455 S
C543   H559    1.082   .     S
C543   N569    1.367   .     A
C543   C600    1.417   .     S
C544   O575    1.290   .     A
C544   O574    1.292   .     A
C545   O577    1.295   .     A
C545   C547    1.462   .     S
C545   O576    1.293   .     A
C548   C549    1.387   .     A
C548   H563    1.083   .     S
C549   C28     1.391   1_556 S
C549   H43     1.083   1_556 S
C550   H564    1.077   .     S
Cu551  N568    2.012   .     S
Cu551  Cu552   2.677   .     S
Cu551  O572    1.956   .     S
Cu551  O576    1.943   .     S
Cu551  O570    1.961   .     S
Cu551  O574    1.960   .     S
Cu552  O573    1.943   .     S
Cu552  O577    1.956   .     S
Cu552  O571    1.960   .     S
Cu552  O575    1.961   .     S
Cu552  N569    2.012   .     S
H561   C24     1.084   1_556 S
C578   H579    1.084   .     S
C578   O580    1.221   .     D
C581   C597    1.443   .     S
C581   O628    1.290   .     A
C581   O629    1.289   .     A
C582   C583    1.418   .     A
C582   C62     1.424   1_556 S
C582   C86     1.418   1_556 S
C583   C590    1.419   .     A
C583   C587    1.410   .     A
C584   C588    1.402   .     A
C585   C586    1.392   .     A
C585   C62     1.421   1_556 S
C585   C82     1.404   1_556 S
C586   H618    1.084   .     S
C586   C587    1.386   .     A
C587   H624    1.079   .     S
C588   C605    1.396   .     A
C588   H620    1.076   .     S
C589   C604    1.392   .     A
C589   C605    1.399   .     A
C589   H611    1.083   .     S
C590   C606    1.403   .     A
C590   C592    1.474   .     S
C591   H625    1.085   .     S
C591   C597    1.397   .     A
C591   C767    1.395   .     S
C592   O630    1.297   .     A
C592   O631    1.296   .     A
C593   C636    1.488   .     S
C593   C594    1.418   .     A
C593   C939    1.395   1_545 S
C594   C602    1.452   .     S
C594   C595    1.402   .     A
C595   H612    1.084   .     S
C595   C944    1.382   1_545 S
C596   H613    1.084   .     S
C596   C597    1.395   .     A
C596   C769    1.382   .     S
C598   N627    1.367   .     A
C598   H614    1.080   .     S
C598   C657    1.416   .     S
C599   N626    1.366   .     A
C599   H615    1.082   .     S
C600   H616    1.082   .     S
C600   N626    1.367   .     A
C601   H617    1.082   .     S
C601   N627    1.367   .     A
C601   C658    1.417   .     S
C602   O633    1.290   .     A
C602   O632    1.292   .     A
C603   O635    1.295   .     A
C603   C605    1.462   .     S
C603   O634    1.293   .     A
C606   C607    1.387   .     A
C606   H621    1.083   .     S
C607   C86     1.391   1_556 S
C607   H101    1.083   1_556 S
C608   H622    1.077   .     S
Cu609  N626    2.012   .     S
Cu609  Cu610   2.677   .     S
Cu609  O630    1.956   .     S
Cu609  O634    1.943   .     S
Cu609  O628    1.961   .     S
Cu609  O632    1.960   .     S
Cu610  O631    1.943   .     S
Cu610  O635    1.956   .     S
Cu610  O629    1.960   .     S
Cu610  O633    1.961   .     S
Cu610  N627    2.012   .     S
H619   C82     1.084   1_556 S
C636   H637    1.084   .     S
C636   O638    1.221   .     D
C639   C655    1.443   .     S
C639   O686    1.290   .     A
C639   O687    1.289   .     A
C640   C641    1.418   .     A
C640   C120    1.424   1_556 S
C640   C144    1.418   1_556 S
C641   C648    1.419   .     A
C641   C645    1.410   .     A
C642   C646    1.402   .     A
C643   C644    1.392   .     A
C643   C120    1.421   1_556 S
C643   C140    1.404   1_556 S
C644   H676    1.084   .     S
C644   C645    1.386   .     A
C645   H682    1.079   .     S
C646   C663    1.396   .     A
C646   H678    1.076   .     S
C647   C662    1.392   .     A
C647   C663    1.399   .     A
C647   H669    1.083   .     S
C648   C664    1.403   .     A
C648   C650    1.474   .     S
C649   H683    1.085   .     S
C649   C655    1.397   .     A
C649   C825    1.395   .     S
C650   O688    1.297   .     A
C650   O689    1.296   .     A
C651   C694    1.488   .     S
C651   C652    1.418   .     A
C651   C997    1.395   1_545 S
C652   C660    1.452   .     S
C652   C653    1.402   .     A
C653   H670    1.084   .     S
C653   C1002   1.382   1_545 S
C654   H671    1.084   .     S
C654   C655    1.395   .     A
C654   C827    1.382   .     S
C656   N685    1.367   .     A
C656   H672    1.080   .     S
C656   C541    1.416   1_655 S
C657   N684    1.366   .     A
C657   H673    1.082   .     S
C658   H674    1.082   .     S
C658   N684    1.367   .     A
C659   H675    1.082   .     S
C659   N685    1.367   .     A
C659   C542    1.417   1_655 S
C660   O691    1.290   .     A
C660   O690    1.292   .     A
C661   O693    1.295   .     A
C661   C663    1.462   .     S
C661   O692    1.293   .     A
C664   C665    1.387   .     A
C664   H679    1.083   .     S
C665   C144    1.391   1_556 S
C665   H159    1.083   1_556 S
C666   H680    1.077   .     S
Cu667  N684    2.012   .     S
Cu667  Cu668   2.677   .     S
Cu667  O688    1.956   .     S
Cu667  O692    1.943   .     S
Cu667  O686    1.961   .     S
Cu667  O690    1.960   .     S
Cu668  O689    1.943   .     S
Cu668  O693    1.956   .     S
Cu668  O687    1.960   .     S
Cu668  O691    1.961   .     S
Cu668  N685    2.012   .     S
H677   C140    1.084   1_556 S
C694   H695    1.084   .     S
C694   O696    1.221   .     D
C697   C713    1.443   .     S
C697   O744    1.290   .     A
C697   O745    1.289   .     A
C698   C699    1.418   .     A
C698   C178    1.424   1_556 S
C698   C202    1.418   1_556 S
C699   C706    1.419   .     A
C699   C703    1.410   .     A
C700   C704    1.402   .     A
C701   C702    1.392   .     A
C701   C178    1.421   1_556 S
C701   C198    1.404   1_556 S
C702   H734    1.084   .     S
C702   C703    1.386   .     A
C703   H740    1.079   .     S
C704   C721    1.396   .     A
C704   H736    1.076   .     S
C705   C720    1.392   .     A
C705   C721    1.399   .     A
C705   H727    1.083   .     S
C706   C722    1.403   .     A
C706   C708    1.474   .     S
C707   H741    1.085   .     S
C707   C713    1.397   .     A
C707   C883    1.395   .     S
C708   O746    1.297   .     A
C708   O747    1.296   .     A
C709   C752    1.488   .     S
C709   C710    1.418   .     A
C710   C718    1.452   .     S
C710   C711    1.402   .     A
C711   H728    1.084   .     S
C712   H729    1.084   .     S
C712   C713    1.395   .     A
C712   C885    1.382   .     S
C714   N743    1.367   .     A
C714   H730    1.080   .     S
C714   C773    1.416   .     S
C715   N742    1.366   .     A
C715   H731    1.082   .     S
C715   C830    1.416   1_455 S
C716   H732    1.082   .     S
C716   N742    1.367   .     A
C716   C833    1.417   1_455 S
C717   H733    1.082   .     S
C717   N743    1.367   .     A
C717   C774    1.417   .     S
C718   O749    1.290   .     A
C718   O748    1.292   .     A
C719   O751    1.295   .     A
C719   C721    1.462   .     S
C719   O750    1.293   .     A
C722   C723    1.387   .     A
C722   H737    1.083   .     S
C723   C202    1.391   1_556 S
C723   H217    1.083   1_556 S
C724   H738    1.077   .     S
Cu725  N742    2.012   .     S
Cu725  Cu726   2.677   .     S
Cu725  O746    1.956   .     S
Cu725  O750    1.943   .     S
Cu725  O744    1.961   .     S
Cu725  O748    1.960   .     S
Cu726  O747    1.943   .     S
Cu726  O751    1.956   .     S
Cu726  O745    1.960   .     S
Cu726  O749    1.961   .     S
Cu726  N743    2.012   .     S
H735   C198    1.084   1_556 S
C752   H753    1.084   .     S
C752   O754    1.221   .     D
C755   C771    1.443   .     S
C755   O802    1.290   .     A
C755   O803    1.289   .     A
C756   C757    1.418   .     A
C756   C236    1.424   1_556 S
C756   C260    1.418   1_556 S
C757   C764    1.419   .     A
C757   C761    1.410   .     A
C758   C762    1.402   .     A
C759   C760    1.392   .     A
C759   C236    1.421   1_556 S
C759   C256    1.404   1_556 S
C760   H792    1.084   .     S
C760   C761    1.386   .     A
C761   H798    1.079   .     S
C762   C779    1.396   .     A
C762   H794    1.076   .     S
C763   C778    1.392   .     A
C763   C779    1.399   .     A
C763   H785    1.083   .     S
C764   C780    1.403   .     A
C764   C766    1.474   .     S
C765   H799    1.085   .     S
C765   C771    1.397   .     A
C765   C941    1.395   .     S
C766   O804    1.297   .     A
C766   O805    1.296   .     A
C767   C810    1.488   .     S
C767   C768    1.418   .     A
C768   C776    1.452   .     S
C768   C769    1.402   .     A
C769   H786    1.084   .     S
C770   H787    1.084   .     S
C770   C771    1.395   .     A
C770   C943    1.382   .     S
C772   N801    1.367   .     A
C772   H788    1.080   .     S
C772   C831    1.416   .     S
C773   N800    1.366   .     A
C773   H789    1.082   .     S
C774   H790    1.082   .     S
C774   N800    1.367   .     A
C775   H791    1.082   .     S
C775   N801    1.367   .     A
C775   C832    1.417   .     S
C776   O807    1.290   .     A
C776   O806    1.292   .     A
C777   O809    1.295   .     A
C777   C779    1.462   .     S
C777   O808    1.293   .     A
C780   C781    1.387   .     A
C780   H795    1.083   .     S
C781   C260    1.391   1_556 S
C781   H275    1.083   1_556 S
C782   H796    1.077   .     S
Cu783  N800    2.012   .     S
Cu783  Cu784   2.677   .     S
Cu783  O804    1.956   .     S
Cu783  O808    1.943   .     S
Cu783  O802    1.961   .     S
Cu783  O806    1.960   .     S
Cu784  O805    1.943   .     S
Cu784  O809    1.956   .     S
Cu784  O803    1.960   .     S
Cu784  O807    1.961   .     S
Cu784  N801    2.012   .     S
H793   C256    1.084   1_556 S
C810   H811    1.084   .     S
C810   O812    1.221   .     D
C813   C829    1.443   .     S
C813   O860    1.290   .     A
C813   O861    1.289   .     A
C814   C815    1.418   .     A
C814   C294    1.424   1_556 S
C814   C318    1.418   1_556 S
C815   C822    1.419   .     A
C815   C819    1.410   .     A
C816   C820    1.402   .     A
C817   C818    1.392   .     A
C817   C294    1.421   1_556 S
C817   C314    1.404   1_556 S
C818   H850    1.084   .     S
C818   C819    1.386   .     A
C819   H856    1.079   .     S
C820   C837    1.396   .     A
C820   H852    1.076   .     S
C821   C836    1.392   .     A
C821   C837    1.399   .     A
C821   H843    1.083   .     S
C822   C838    1.403   .     A
C822   C824    1.474   .     S
C823   H857    1.085   .     S
C823   C829    1.397   .     A
C823   C999    1.395   .     S
C824   O862    1.297   .     A
C824   O863    1.296   .     A
C825   C868    1.488   .     S
C825   C826    1.418   .     A
C826   C834    1.452   .     S
C826   C827    1.402   .     A
C827   H844    1.084   .     S
C828   H845    1.084   .     S
C828   C829    1.395   .     A
C828   C1001   1.382   .     S
C830   N859    1.367   .     A
C830   H846    1.080   .     S
C830   C715    1.416   1_655 S
C831   N858    1.366   .     A
C831   H847    1.082   .     S
C832   H848    1.082   .     S
C832   N858    1.367   .     A
C833   H849    1.082   .     S
C833   N859    1.367   .     A
C833   C716    1.417   1_655 S
C834   O865    1.290   .     A
C834   O864    1.292   .     A
C835   O867    1.295   .     A
C835   C837    1.462   .     S
C835   O866    1.293   .     A
C838   C839    1.387   .     A
C838   H853    1.083   .     S
C839   C318    1.391   1_556 S
C839   H333    1.083   1_556 S
C840   H854    1.077   .     S
Cu841  N858    2.012   .     S
Cu841  Cu842   2.677   .     S
Cu841  O862    1.956   .     S
Cu841  O866    1.943   .     S
Cu841  O860    1.961   .     S
Cu841  O864    1.960   .     S
Cu842  O863    1.943   .     S
Cu842  O867    1.956   .     S
Cu842  O861    1.960   .     S
Cu842  O865    1.961   .     S
Cu842  N859    2.012   .     S
H851   C314    1.084   1_556 S
C868   H869    1.084   .     S
C868   O870    1.221   .     D
C871   C887    1.443   .     S
C871   O918    1.290   .     A
C871   O919    1.289   .     A
C872   C873    1.418   .     A
C872   C352    1.424   1_556 S
C872   C376    1.418   1_556 S
C873   C880    1.419   .     A
C873   C877    1.410   .     A
C874   C878    1.402   .     A
C875   C876    1.392   .     A
C875   C352    1.421   1_556 S
C875   C372    1.404   1_556 S
C876   H908    1.084   .     S
C876   C877    1.386   .     A
C877   H914    1.079   .     S
C878   C895    1.396   .     A
C878   H910    1.076   .     S
C879   C894    1.392   .     A
C879   C895    1.399   .     A
C879   H901    1.083   .     S
C880   C896    1.403   .     A
C880   C882    1.474   .     S
C881   H915    1.085   .     S
C881   C887    1.397   .     A
C881   C535    1.395   1_565 S
C882   O920    1.297   .     A
C882   O921    1.296   .     A
C883   C926    1.488   .     S
C883   C884    1.418   .     A
C884   C892    1.452   .     S
C884   C885    1.402   .     A
C885   H902    1.084   .     S
C886   H903    1.084   .     S
C886   C887    1.395   .     A
C886   C537    1.382   1_565 S
C888   N917    1.367   .     A
C888   H904    1.080   .     S
C888   C947    1.416   .     S
C889   N916    1.366   .     A
C889   H905    1.082   .     S
C889   C1004   1.416   1_455 S
C890   H906    1.082   .     S
C890   N916    1.367   .     A
C890   C1007   1.417   1_455 S
C891   H907    1.082   .     S
C891   N917    1.367   .     A
C891   C948    1.417   .     S
C892   O923    1.290   .     A
C892   O922    1.292   .     A
C893   O925    1.295   .     A
C893   C895    1.462   .     S
C893   O924    1.293   .     A
C896   C897    1.387   .     A
C896   H911    1.083   .     S
C897   C376    1.391   1_556 S
C897   H391    1.083   1_556 S
C898   H912    1.077   .     S
Cu899  N916    2.012   .     S
Cu899  Cu900   2.677   .     S
Cu899  O920    1.956   .     S
Cu899  O924    1.943   .     S
Cu899  O918    1.961   .     S
Cu899  O922    1.960   .     S
Cu900  O921    1.943   .     S
Cu900  O925    1.956   .     S
Cu900  O919    1.960   .     S
Cu900  O923    1.961   .     S
Cu900  N917    2.012   .     S
H909   C372    1.084   1_556 S
C926   H927    1.084   .     S
C926   O928    1.221   .     D
C929   C945    1.443   .     S
C929   O976    1.290   .     A
C929   O977    1.289   .     A
C930   C931    1.418   .     A
C930   C410    1.424   1_556 S
C930   C434    1.418   1_556 S
C931   C938    1.419   .     A
C931   C935    1.410   .     A
C932   C936    1.402   .     A
C933   C934    1.392   .     A
C933   C410    1.421   1_556 S
C933   C430    1.404   1_556 S
C934   H966    1.084   .     S
C934   C935    1.386   .     A
C935   H972    1.079   .     S
C936   C953    1.396   .     A
C936   H968    1.076   .     S
C937   C952    1.392   .     A
C937   C953    1.399   .     A
C937   H959    1.083   .     S
C938   C954    1.403   .     A
C938   C940    1.474   .     S
C939   H973    1.085   .     S
C939   C945    1.397   .     A
C939   C593    1.395   1_565 S
C940   O978    1.297   .     A
C940   O979    1.296   .     A
C941   C984    1.488   .     S
C941   C942    1.418   .     A
C942   C950    1.452   .     S
C942   C943    1.402   .     A
C943   H960    1.084   .     S
C944   H961    1.084   .     S
C944   C945    1.395   .     A
C944   C595    1.382   1_565 S
C946   N975    1.367   .     A
C946   H962    1.080   .     S
C946   C1005   1.416   .     S
C947   N974    1.366   .     A
C947   H963    1.082   .     S
C948   H964    1.082   .     S
C948   N974    1.367   .     A
C949   H965    1.082   .     S
C949   N975    1.367   .     A
C949   C1006   1.417   .     S
C950   O981    1.290   .     A
C950   O980    1.292   .     A
C951   O983    1.295   .     A
C951   C953    1.462   .     S
C951   O982    1.293   .     A
C954   C955    1.387   .     A
C954   H969    1.083   .     S
C955   C434    1.391   1_556 S
C955   H449    1.083   1_556 S
C956   H970    1.077   .     S
Cu957  N974    2.012   .     S
Cu957  Cu958   2.677   .     S
Cu957  O978    1.956   .     S
Cu957  O982    1.943   .     S
Cu957  O976    1.961   .     S
Cu957  O980    1.960   .     S
Cu958  O979    1.943   .     S
Cu958  O983    1.956   .     S
Cu958  O977    1.960   .     S
Cu958  O981    1.961   .     S
Cu958  N975    2.012   .     S
H967   C430    1.084   1_556 S
C984   H985    1.084   .     S
C984   O986    1.221   .     D
C987   C1003   1.443   .     S
C987   O1034   1.290   .     A
C987   O1035   1.289   .     A
C988   C989    1.418   .     A
C988   C468    1.424   1_556 S
C988   C492    1.418   1_556 S
C989   C996    1.419   .     A
C989   C993    1.410   .     A
C990   C994    1.402   .     A
C991   C992    1.392   .     A
C991   C468    1.421   1_556 S
C991   C488    1.404   1_556 S
C992   H1024   1.084   .     S
C992   C993    1.386   .     A
C993   H1030   1.079   .     S
C994   C1011   1.396   .     A
C994   H1026   1.076   .     S
C995   C1010   1.392   .     A
C995   C1011   1.399   .     A
C995   H1017   1.083   .     S
C996   C1012   1.403   .     A
C996   C998    1.474   .     S
C997   H1031   1.085   .     S
C997   C1003   1.397   .     A
C997   C651    1.395   1_565 S
C998   O1036   1.297   .     A
C998   O1037   1.296   .     A
C999   C1042   1.488   .     S
C999   C1000   1.418   .     A
C1000  C1008   1.452   .     S
C1000  C1001   1.402   .     A
C1001  H1018   1.084   .     S
C1002  H1019   1.084   .     S
C1002  C1003   1.395   .     A
C1002  C653    1.382   1_565 S
C1004  N1033   1.367   .     A
C1004  H1020   1.080   .     S
C1004  C889    1.416   1_655 S
C1005  N1032   1.366   .     A
C1005  H1021   1.082   .     S
C1006  H1022   1.082   .     S
C1006  N1032   1.367   .     A
C1007  H1023   1.082   .     S
C1007  N1033   1.367   .     A
C1007  C890    1.417   1_655 S
C1008  O1039   1.290   .     A
C1008  O1038   1.292   .     A
C1009  O1041   1.295   .     A
C1009  C1011   1.462   .     S
C1009  O1040   1.293   .     A
C1012  C1013   1.387   .     A
C1012  H1027   1.083   .     S
C1013  C492    1.391   1_556 S
C1013  H507    1.083   1_556 S
C1014  H1028   1.077   .     S
Cu1015 N1032   2.012   .     S
Cu1015 Cu1016  2.677   .     S
Cu1015 O1036   1.956   .     S
Cu1015 O1040   1.943   .     S
Cu1015 O1034   1.961   .     S
Cu1015 O1038   1.960   .     S
Cu1016 O1037   1.943   .     S
Cu1016 O1041   1.956   .     S
Cu1016 O1035   1.960   .     S
Cu1016 O1039   1.961   .     S
Cu1016 N1033   2.012   .     S
H1025  C488    1.084   1_556 S
C1042  H1043   1.084   .     S
C1042  O1044   1.221   .     D
