data_str_m2_o10_o17_pcu_sym.142
_audit_creation_date              2020-01-03
_audit_creation_method            'Materials Studio'
_symmetry_space_group_name_H-M    'P1'
_symmetry_Int_Tables_number       1
_symmetry_cell_setting            triclinic
loop_
_symmetry_equiv_pos_as_xyz
  x,y,z
_cell_length_a                    30.0359
_cell_length_b                    26.0001
_cell_length_c                    22.3400
_cell_angle_alpha                 102.9999
_cell_angle_beta                  93.9184
_cell_angle_gamma                 92.3929
loop_
_atom_site_label
_atom_site_type_symbol
_atom_site_fract_x
_atom_site_fract_y
_atom_site_fract_z
_atom_site_U_iso_or_equiv
_atom_site_adp_type
_atom_site_occupancy
C1     C     0.24852   0.06657   0.15108   0.00000  Uiso   1.00
C2     C     0.25148   0.26677   0.18225   0.00000  Uiso   1.00
C3     C     0.01917   0.07510   0.10813   0.00000  Uiso   1.00
C4     C     0.48082   0.25828   0.22508   0.00000  Uiso   1.00
C5     C     0.24795   0.01057   0.14231   0.00000  Uiso   1.00
C6     C     0.25205   0.32276   0.19103   0.00000  Uiso   1.00
C7     C     0.16469   0.16771   0.16778   0.00000  Uiso   1.00
C8     C     0.33531   0.16563   0.16555   0.00000  Uiso   1.00
C9     C     0.40864   0.20965   0.19317   0.00000  Uiso   1.00
C10    C     0.09136   0.12371   0.14012   0.00000  Uiso   1.00
C11    C     0.38327   0.16399   0.16339   0.00000  Uiso   1.00
C12    C     0.11673   0.16935   0.16994   0.00000  Uiso   1.00
C13    C     0.40352   0.11799   0.13435   0.00000  Uiso   1.00
C14    C     0.09647   0.21536   0.19896   0.00000  Uiso   1.00
C15    C     0.45071   0.11930   0.13529   0.00000  Uiso   1.00
C16    C     0.04929   0.21407   0.19796   0.00000  Uiso   1.00
C17    C     0.47646   0.16611   0.16582   0.00000  Uiso   1.00
C18    C     0.02353   0.16726   0.16743   0.00000  Uiso   1.00
C19    C     0.45518   0.21170   0.19487   0.00000  Uiso   1.00
C20    C     0.04482   0.12167   0.13838   0.00000  Uiso   1.00
C21    C     0.47269   0.07462   0.10680   0.00000  Uiso   1.00
C22    C     0.02730   0.25876   0.22640   0.00000  Uiso   1.00
Cu23   Cu    0.25500   0.17246   0.22813   0.00000  Uiso   1.00
Cu24   Cu    0.24499   0.16087   0.10521   0.00000  Uiso   1.00
H25    H     0.39123   0.24368   0.21498   0.00000  Uiso   1.00
H26    H     0.10877   0.08967   0.11831   0.00000  Uiso   1.00
H27    H     0.45392   0.03861   0.08299   0.00000  Uiso   1.00
H28    H     0.04607   0.29479   0.25016   0.00000  Uiso   1.00
H29    H     0.24420   0.31998   0.09538   0.00000  Uiso   1.00
H30    H     0.25580   0.01335   0.23796   0.00000  Uiso   1.00
H31    H     0.21505   0.12596   0.31621   0.00000  Uiso   1.00
H32    H     0.28495   0.20738   0.01713   0.00000  Uiso   1.00
N33    N     0.23744   0.15214   0.01284   0.00000  Uiso   1.00
N34    N     0.26255   0.18119   0.32049   0.00000  Uiso   1.00
O35    O     0.25325   0.09538   0.20659   0.00000  Uiso   1.00
O36    O     0.24674   0.23796   0.12674   0.00000  Uiso   1.00
O37    O     0.24480   0.08559   0.10279   0.00000  Uiso   1.00
O38    O     0.25520   0.24774   0.23055   0.00000  Uiso   1.00
O39    O     0.18935   0.17155   0.21857   0.00000  Uiso   1.00
O40    O     0.31064   0.16179   0.11476   0.00000  Uiso   1.00
O41    O     0.18090   0.16176   0.11477   0.00000  Uiso   1.00
O42    O     0.31910   0.17157   0.21857   0.00000  Uiso   1.00
C43    C     0.37553   0.06747   0.10467   0.00000  Uiso   1.00
H44    H     0.38597   0.03501   0.12647   0.00000  Uiso   1.00
H45    H     0.33932   0.07040   0.10970   0.00000  Uiso   1.00
H46    H     0.38003   0.05648   0.05456   0.00000  Uiso   1.00
C47    C     0.12447   0.26588   0.22869   0.00000  Uiso   1.00
H48    H     0.11414   0.29829   0.20676   0.00000  Uiso   1.00
H49    H     0.11985   0.27694   0.27876   0.00000  Uiso   1.00
H50    H     0.16070   0.26289   0.22386   0.00000  Uiso   1.00
C51    C     0.04040   0.02533   0.07705   0.00000  Uiso   1.00
H52    H     0.01511   0.32601   0.05621   0.00000  Uiso   1.00
H53    H     0.06018   0.03329   0.03955   0.00000  Uiso   1.00
H54    H     0.06246   0.01136   0.11133   0.00000  Uiso   1.00
C55    C     0.45959   0.30806   0.25613   0.00000  Uiso   1.00
H56    H     0.48488   0.00739   0.27692   0.00000  Uiso   1.00
H57    H     0.43751   0.32200   0.22184   0.00000  Uiso   1.00
H58    H     0.43983   0.30012   0.29365   0.00000  Uiso   1.00
C59    C     0.74852   0.06657   0.15108   0.00000  Uiso   1.00
C60    C     0.75148   0.26677   0.18225   0.00000  Uiso   1.00
C61    C     0.51917   0.07510   0.10813   0.00000  Uiso   1.00
C62    C     0.98082   0.25828   0.22508   0.00000  Uiso   1.00
C63    C     0.74795   0.01057   0.14231   0.00000  Uiso   1.00
C64    C     0.75205   0.32276   0.19103   0.00000  Uiso   1.00
C65    C     0.66469   0.16771   0.16778   0.00000  Uiso   1.00
C66    C     0.83531   0.16563   0.16555   0.00000  Uiso   1.00
C67    C     0.90864   0.20965   0.19317   0.00000  Uiso   1.00
C68    C     0.59136   0.12371   0.14012   0.00000  Uiso   1.00
C69    C     0.88327   0.16399   0.16339   0.00000  Uiso   1.00
C70    C     0.61673   0.16935   0.16994   0.00000  Uiso   1.00
C71    C     0.90352   0.11799   0.13435   0.00000  Uiso   1.00
C72    C     0.59647   0.21536   0.19896   0.00000  Uiso   1.00
C73    C     0.95071   0.11930   0.13529   0.00000  Uiso   1.00
C74    C     0.54929   0.21407   0.19796   0.00000  Uiso   1.00
C75    C     0.97646   0.16611   0.16582   0.00000  Uiso   1.00
C76    C     0.52353   0.16726   0.16743   0.00000  Uiso   1.00
C77    C     0.95518   0.21170   0.19487   0.00000  Uiso   1.00
C78    C     0.54482   0.12167   0.13838   0.00000  Uiso   1.00
C79    C     0.97269   0.07462   0.10680   0.00000  Uiso   1.00
C80    C     0.52730   0.25876   0.22640   0.00000  Uiso   1.00
Cu81   Cu    0.75500   0.17246   0.22813   0.00000  Uiso   1.00
Cu82   Cu    0.74499   0.16087   0.10521   0.00000  Uiso   1.00
H83    H     0.89123   0.24368   0.21498   0.00000  Uiso   1.00
H84    H     0.60877   0.08967   0.11831   0.00000  Uiso   1.00
H85    H     0.95392   0.03861   0.08299   0.00000  Uiso   1.00
H86    H     0.54607   0.29479   0.25016   0.00000  Uiso   1.00
H87    H     0.74420   0.31998   0.09538   0.00000  Uiso   1.00
H88    H     0.75580   0.01335   0.23796   0.00000  Uiso   1.00
H89    H     0.71505   0.12596   0.31621   0.00000  Uiso   1.00
H90    H     0.78495   0.20738   0.01713   0.00000  Uiso   1.00
N91    N     0.73744   0.15214   0.01284   0.00000  Uiso   1.00
N92    N     0.76255   0.18119   0.32049   0.00000  Uiso   1.00
O93    O     0.75325   0.09538   0.20659   0.00000  Uiso   1.00
O94    O     0.74674   0.23796   0.12674   0.00000  Uiso   1.00
O95    O     0.74480   0.08559   0.10279   0.00000  Uiso   1.00
O96    O     0.75520   0.24774   0.23055   0.00000  Uiso   1.00
O97    O     0.68935   0.17155   0.21857   0.00000  Uiso   1.00
O98    O     0.81064   0.16179   0.11476   0.00000  Uiso   1.00
O99    O     0.68090   0.16176   0.11477   0.00000  Uiso   1.00
O100   O     0.81910   0.17157   0.21857   0.00000  Uiso   1.00
C101   C     0.87553   0.06747   0.10467   0.00000  Uiso   1.00
H102   H     0.88597   0.03501   0.12647   0.00000  Uiso   1.00
H103   H     0.83932   0.07040   0.10970   0.00000  Uiso   1.00
H104   H     0.88003   0.05648   0.05456   0.00000  Uiso   1.00
C105   C     0.62447   0.26588   0.22869   0.00000  Uiso   1.00
H106   H     0.61414   0.29829   0.20676   0.00000  Uiso   1.00
H107   H     0.61985   0.27694   0.27876   0.00000  Uiso   1.00
H108   H     0.66070   0.26289   0.22386   0.00000  Uiso   1.00
C109   C     0.54040   0.02533   0.07705   0.00000  Uiso   1.00
H110   H     0.51511   0.32601   0.05621   0.00000  Uiso   1.00
H111   H     0.56018   0.03329   0.03955   0.00000  Uiso   1.00
H112   H     0.56246   0.01136   0.11133   0.00000  Uiso   1.00
C113   C     0.95959   0.30806   0.25613   0.00000  Uiso   1.00
H114   H     0.98488   0.00739   0.27692   0.00000  Uiso   1.00
H115   H     0.93751   0.32200   0.22184   0.00000  Uiso   1.00
H116   H     0.93983   0.30012   0.29365   0.00000  Uiso   1.00
C117   C     0.24852   0.39990   0.15108   0.00000  Uiso   1.00
C118   C     0.25148   0.60010   0.18225   0.00000  Uiso   1.00
C119   C     0.01917   0.40844   0.10813   0.00000  Uiso   1.00
C120   C     0.48082   0.59161   0.22508   0.00000  Uiso   1.00
C121   C     0.24795   0.34390   0.14231   0.00000  Uiso   1.00
C122   C     0.25205   0.65610   0.19103   0.00000  Uiso   1.00
C123   C     0.16469   0.50105   0.16778   0.00000  Uiso   1.00
C124   C     0.33531   0.49896   0.16555   0.00000  Uiso   1.00
C125   C     0.40864   0.54298   0.19317   0.00000  Uiso   1.00
C126   C     0.09136   0.45704   0.14012   0.00000  Uiso   1.00
C127   C     0.38327   0.49733   0.16339   0.00000  Uiso   1.00
C128   C     0.11673   0.50269   0.16994   0.00000  Uiso   1.00
C129   C     0.40352   0.45133   0.13435   0.00000  Uiso   1.00
C130   C     0.09647   0.54869   0.19896   0.00000  Uiso   1.00
C131   C     0.45071   0.45263   0.13529   0.00000  Uiso   1.00
C132   C     0.04929   0.54740   0.19796   0.00000  Uiso   1.00
C133   C     0.47646   0.49944   0.16582   0.00000  Uiso   1.00
C134   C     0.02353   0.50059   0.16743   0.00000  Uiso   1.00
C135   C     0.45518   0.54503   0.19487   0.00000  Uiso   1.00
C136   C     0.04482   0.45500   0.13838   0.00000  Uiso   1.00
C137   C     0.47269   0.40796   0.10680   0.00000  Uiso   1.00
C138   C     0.02730   0.59209   0.22640   0.00000  Uiso   1.00
Cu139  Cu    0.25500   0.50579   0.22813   0.00000  Uiso   1.00
Cu140  Cu    0.24499   0.49421   0.10521   0.00000  Uiso   1.00
H141   H     0.39123   0.57702   0.21498   0.00000  Uiso   1.00
H142   H     0.10877   0.42301   0.11831   0.00000  Uiso   1.00
H143   H     0.45392   0.37194   0.08299   0.00000  Uiso   1.00
H144   H     0.04607   0.62812   0.25016   0.00000  Uiso   1.00
H145   H     0.24420   0.65331   0.09538   0.00000  Uiso   1.00
H146   H     0.25580   0.34669   0.23796   0.00000  Uiso   1.00
H147   H     0.21505   0.45929   0.31621   0.00000  Uiso   1.00
H148   H     0.28495   0.54071   0.01713   0.00000  Uiso   1.00
N149   N     0.23744   0.48547   0.01284   0.00000  Uiso   1.00
N150   N     0.26255   0.51453   0.32049   0.00000  Uiso   1.00
O151   O     0.25325   0.42871   0.20659   0.00000  Uiso   1.00
O152   O     0.24674   0.57129   0.12674   0.00000  Uiso   1.00
O153   O     0.24480   0.41892   0.10279   0.00000  Uiso   1.00
O154   O     0.25520   0.58108   0.23055   0.00000  Uiso   1.00
O155   O     0.18935   0.50488   0.21857   0.00000  Uiso   1.00
O156   O     0.31064   0.49512   0.11476   0.00000  Uiso   1.00
O157   O     0.18090   0.49510   0.11477   0.00000  Uiso   1.00
O158   O     0.31910   0.50490   0.21857   0.00000  Uiso   1.00
C159   C     0.37553   0.40080   0.10467   0.00000  Uiso   1.00
H160   H     0.38597   0.36835   0.12647   0.00000  Uiso   1.00
H161   H     0.33932   0.40373   0.10970   0.00000  Uiso   1.00
H162   H     0.38003   0.38981   0.05456   0.00000  Uiso   1.00
C163   C     0.12447   0.59921   0.22869   0.00000  Uiso   1.00
H164   H     0.11414   0.63163   0.20676   0.00000  Uiso   1.00
H165   H     0.11985   0.61028   0.27876   0.00000  Uiso   1.00
H166   H     0.16070   0.59623   0.22386   0.00000  Uiso   1.00
C167   C     0.04040   0.35866   0.07705   0.00000  Uiso   1.00
H168   H     0.01511   0.65934   0.05621   0.00000  Uiso   1.00
H169   H     0.06018   0.36663   0.03955   0.00000  Uiso   1.00
H170   H     0.06246   0.34469   0.11133   0.00000  Uiso   1.00
C171   C     0.45959   0.64140   0.25613   0.00000  Uiso   1.00
H172   H     0.48488   0.34073   0.27692   0.00000  Uiso   1.00
H173   H     0.43751   0.65533   0.22184   0.00000  Uiso   1.00
H174   H     0.43983   0.63346   0.29365   0.00000  Uiso   1.00
C175   C     0.74852   0.39990   0.15108   0.00000  Uiso   1.00
C176   C     0.75148   0.60010   0.18225   0.00000  Uiso   1.00
C177   C     0.51917   0.40844   0.10813   0.00000  Uiso   1.00
C178   C     0.98082   0.59161   0.22508   0.00000  Uiso   1.00
C179   C     0.74795   0.34390   0.14231   0.00000  Uiso   1.00
C180   C     0.75205   0.65610   0.19103   0.00000  Uiso   1.00
C181   C     0.66469   0.50105   0.16778   0.00000  Uiso   1.00
C182   C     0.83531   0.49896   0.16555   0.00000  Uiso   1.00
C183   C     0.90864   0.54298   0.19317   0.00000  Uiso   1.00
C184   C     0.59136   0.45704   0.14012   0.00000  Uiso   1.00
C185   C     0.88327   0.49733   0.16339   0.00000  Uiso   1.00
C186   C     0.61673   0.50269   0.16994   0.00000  Uiso   1.00
C187   C     0.90352   0.45133   0.13435   0.00000  Uiso   1.00
C188   C     0.59647   0.54869   0.19896   0.00000  Uiso   1.00
C189   C     0.95071   0.45263   0.13529   0.00000  Uiso   1.00
C190   C     0.54929   0.54740   0.19796   0.00000  Uiso   1.00
C191   C     0.97646   0.49944   0.16582   0.00000  Uiso   1.00
C192   C     0.52353   0.50059   0.16743   0.00000  Uiso   1.00
C193   C     0.95518   0.54503   0.19487   0.00000  Uiso   1.00
C194   C     0.54482   0.45500   0.13838   0.00000  Uiso   1.00
C195   C     0.97269   0.40796   0.10680   0.00000  Uiso   1.00
C196   C     0.52730   0.59209   0.22640   0.00000  Uiso   1.00
Cu197  Cu    0.75500   0.50579   0.22813   0.00000  Uiso   1.00
Cu198  Cu    0.74499   0.49421   0.10521   0.00000  Uiso   1.00
H199   H     0.89123   0.57702   0.21498   0.00000  Uiso   1.00
H200   H     0.60877   0.42301   0.11831   0.00000  Uiso   1.00
H201   H     0.95392   0.37194   0.08299   0.00000  Uiso   1.00
H202   H     0.54607   0.62812   0.25016   0.00000  Uiso   1.00
H203   H     0.74420   0.65331   0.09538   0.00000  Uiso   1.00
H204   H     0.75580   0.34669   0.23796   0.00000  Uiso   1.00
H205   H     0.71505   0.45929   0.31621   0.00000  Uiso   1.00
H206   H     0.78495   0.54071   0.01713   0.00000  Uiso   1.00
N207   N     0.73744   0.48547   0.01284   0.00000  Uiso   1.00
N208   N     0.76255   0.51453   0.32049   0.00000  Uiso   1.00
O209   O     0.75325   0.42871   0.20659   0.00000  Uiso   1.00
O210   O     0.74674   0.57129   0.12674   0.00000  Uiso   1.00
O211   O     0.74480   0.41892   0.10279   0.00000  Uiso   1.00
O212   O     0.75520   0.58108   0.23055   0.00000  Uiso   1.00
O213   O     0.68935   0.50488   0.21857   0.00000  Uiso   1.00
O214   O     0.81064   0.49512   0.11476   0.00000  Uiso   1.00
O215   O     0.68090   0.49510   0.11477   0.00000  Uiso   1.00
O216   O     0.81910   0.50490   0.21857   0.00000  Uiso   1.00
C217   C     0.87553   0.40080   0.10467   0.00000  Uiso   1.00
H218   H     0.88597   0.36835   0.12647   0.00000  Uiso   1.00
H219   H     0.83932   0.40373   0.10970   0.00000  Uiso   1.00
H220   H     0.88003   0.38981   0.05456   0.00000  Uiso   1.00
C221   C     0.62447   0.59921   0.22869   0.00000  Uiso   1.00
H222   H     0.61414   0.63163   0.20676   0.00000  Uiso   1.00
H223   H     0.61985   0.61028   0.27876   0.00000  Uiso   1.00
H224   H     0.66070   0.59623   0.22386   0.00000  Uiso   1.00
C225   C     0.54040   0.35866   0.07705   0.00000  Uiso   1.00
H226   H     0.51511   0.65934   0.05621   0.00000  Uiso   1.00
H227   H     0.56018   0.36663   0.03955   0.00000  Uiso   1.00
H228   H     0.56246   0.34469   0.11133   0.00000  Uiso   1.00
C229   C     0.95959   0.64140   0.25613   0.00000  Uiso   1.00
H230   H     0.98488   0.34073   0.27692   0.00000  Uiso   1.00
H231   H     0.93751   0.65533   0.22184   0.00000  Uiso   1.00
H232   H     0.93983   0.63346   0.29365   0.00000  Uiso   1.00
C233   C     0.24852   0.73323   0.15108   0.00000  Uiso   1.00
C234   C     0.25148   0.93343   0.18225   0.00000  Uiso   1.00
C235   C     0.01917   0.74177   0.10813   0.00000  Uiso   1.00
C236   C     0.48082   0.92494   0.22508   0.00000  Uiso   1.00
C237   C     0.24795   0.67724   0.14231   0.00000  Uiso   1.00
C238   C     0.25205   0.98943   0.19103   0.00000  Uiso   1.00
C239   C     0.16469   0.83438   0.16778   0.00000  Uiso   1.00
C240   C     0.33531   0.83229   0.16555   0.00000  Uiso   1.00
C241   C     0.40864   0.87631   0.19317   0.00000  Uiso   1.00
C242   C     0.09136   0.79038   0.14012   0.00000  Uiso   1.00
C243   C     0.38327   0.83066   0.16339   0.00000  Uiso   1.00
C244   C     0.11673   0.83602   0.16994   0.00000  Uiso   1.00
C245   C     0.40352   0.78466   0.13435   0.00000  Uiso   1.00
C246   C     0.09647   0.88202   0.19896   0.00000  Uiso   1.00
C247   C     0.45071   0.78596   0.13529   0.00000  Uiso   1.00
C248   C     0.04929   0.88074   0.19796   0.00000  Uiso   1.00
C249   C     0.47646   0.83278   0.16582   0.00000  Uiso   1.00
C250   C     0.02353   0.83393   0.16743   0.00000  Uiso   1.00
C251   C     0.45518   0.87837   0.19487   0.00000  Uiso   1.00
C252   C     0.04482   0.78834   0.13838   0.00000  Uiso   1.00
C253   C     0.47269   0.74129   0.10680   0.00000  Uiso   1.00
C254   C     0.02730   0.92543   0.22640   0.00000  Uiso   1.00
Cu255  Cu    0.25500   0.83913   0.22813   0.00000  Uiso   1.00
Cu256  Cu    0.24499   0.82754   0.10521   0.00000  Uiso   1.00
H257   H     0.39123   0.91035   0.21498   0.00000  Uiso   1.00
H258   H     0.10877   0.75634   0.11831   0.00000  Uiso   1.00
H259   H     0.45392   0.70528   0.08299   0.00000  Uiso   1.00
H260   H     0.04607   0.96146   0.25016   0.00000  Uiso   1.00
H261   H     0.24420   0.98665   0.09538   0.00000  Uiso   1.00
H262   H     0.25580   0.68002   0.23796   0.00000  Uiso   1.00
H263   H     0.21505   0.79262   0.31621   0.00000  Uiso   1.00
H264   H     0.28495   0.87404   0.01713   0.00000  Uiso   1.00
N265   N     0.23744   0.81881   0.01284   0.00000  Uiso   1.00
N266   N     0.26255   0.84786   0.32049   0.00000  Uiso   1.00
O267   O     0.25325   0.76204   0.20659   0.00000  Uiso   1.00
O268   O     0.24674   0.90462   0.12674   0.00000  Uiso   1.00
O269   O     0.24480   0.75226   0.10279   0.00000  Uiso   1.00
O270   O     0.25520   0.91441   0.23055   0.00000  Uiso   1.00
O271   O     0.18935   0.83821   0.21857   0.00000  Uiso   1.00
O272   O     0.31064   0.82845   0.11476   0.00000  Uiso   1.00
O273   O     0.18090   0.82843   0.11477   0.00000  Uiso   1.00
O274   O     0.31910   0.83824   0.21857   0.00000  Uiso   1.00
C275   C     0.37553   0.73413   0.10467   0.00000  Uiso   1.00
H276   H     0.38597   0.70168   0.12647   0.00000  Uiso   1.00
H277   H     0.33932   0.73707   0.10970   0.00000  Uiso   1.00
H278   H     0.38003   0.72315   0.05456   0.00000  Uiso   1.00
C279   C     0.12447   0.93254   0.22869   0.00000  Uiso   1.00
H280   H     0.11414   0.96496   0.20676   0.00000  Uiso   1.00
H281   H     0.11985   0.94361   0.27876   0.00000  Uiso   1.00
H282   H     0.16070   0.92956   0.22386   0.00000  Uiso   1.00
C283   C     0.04040   0.69199   0.07705   0.00000  Uiso   1.00
H284   H     0.01511   0.99268   0.05621   0.00000  Uiso   1.00
H285   H     0.06018   0.69996   0.03955   0.00000  Uiso   1.00
H286   H     0.06246   0.67802   0.11133   0.00000  Uiso   1.00
C287   C     0.45959   0.97473   0.25613   0.00000  Uiso   1.00
H288   H     0.48488   0.67406   0.27692   0.00000  Uiso   1.00
H289   H     0.43751   0.98867   0.22184   0.00000  Uiso   1.00
H290   H     0.43983   0.96679   0.29365   0.00000  Uiso   1.00
C291   C     0.74852   0.73323   0.15108   0.00000  Uiso   1.00
C292   C     0.75148   0.93343   0.18225   0.00000  Uiso   1.00
C293   C     0.51917   0.74177   0.10813   0.00000  Uiso   1.00
C294   C     0.98082   0.92494   0.22508   0.00000  Uiso   1.00
C295   C     0.74795   0.67724   0.14231   0.00000  Uiso   1.00
C296   C     0.75205   0.98943   0.19103   0.00000  Uiso   1.00
C297   C     0.66469   0.83438   0.16778   0.00000  Uiso   1.00
C298   C     0.83531   0.83229   0.16555   0.00000  Uiso   1.00
C299   C     0.90864   0.87631   0.19317   0.00000  Uiso   1.00
C300   C     0.59136   0.79038   0.14012   0.00000  Uiso   1.00
C301   C     0.88327   0.83066   0.16339   0.00000  Uiso   1.00
C302   C     0.61673   0.83602   0.16994   0.00000  Uiso   1.00
C303   C     0.90352   0.78466   0.13435   0.00000  Uiso   1.00
C304   C     0.59647   0.88202   0.19896   0.00000  Uiso   1.00
C305   C     0.95071   0.78596   0.13529   0.00000  Uiso   1.00
C306   C     0.54929   0.88074   0.19796   0.00000  Uiso   1.00
C307   C     0.97646   0.83278   0.16582   0.00000  Uiso   1.00
C308   C     0.52353   0.83393   0.16743   0.00000  Uiso   1.00
C309   C     0.95518   0.87837   0.19487   0.00000  Uiso   1.00
C310   C     0.54482   0.78834   0.13838   0.00000  Uiso   1.00
C311   C     0.97269   0.74129   0.10680   0.00000  Uiso   1.00
C312   C     0.52730   0.92543   0.22640   0.00000  Uiso   1.00
Cu313  Cu    0.75500   0.83913   0.22813   0.00000  Uiso   1.00
Cu314  Cu    0.74499   0.82754   0.10521   0.00000  Uiso   1.00
H315   H     0.89123   0.91035   0.21498   0.00000  Uiso   1.00
H316   H     0.60877   0.75634   0.11831   0.00000  Uiso   1.00
H317   H     0.95392   0.70528   0.08299   0.00000  Uiso   1.00
H318   H     0.54607   0.96146   0.25016   0.00000  Uiso   1.00
H319   H     0.74420   0.98665   0.09538   0.00000  Uiso   1.00
H320   H     0.75580   0.68002   0.23796   0.00000  Uiso   1.00
H321   H     0.71505   0.79262   0.31621   0.00000  Uiso   1.00
H322   H     0.78495   0.87404   0.01713   0.00000  Uiso   1.00
N323   N     0.73744   0.81881   0.01284   0.00000  Uiso   1.00
N324   N     0.76255   0.84786   0.32049   0.00000  Uiso   1.00
O325   O     0.75325   0.76204   0.20659   0.00000  Uiso   1.00
O326   O     0.74674   0.90462   0.12674   0.00000  Uiso   1.00
O327   O     0.74480   0.75226   0.10279   0.00000  Uiso   1.00
O328   O     0.75520   0.91441   0.23055   0.00000  Uiso   1.00
O329   O     0.68935   0.83821   0.21857   0.00000  Uiso   1.00
O330   O     0.81064   0.82845   0.11476   0.00000  Uiso   1.00
O331   O     0.68090   0.82843   0.11477   0.00000  Uiso   1.00
O332   O     0.81910   0.83824   0.21857   0.00000  Uiso   1.00
C333   C     0.87553   0.73413   0.10467   0.00000  Uiso   1.00
H334   H     0.88597   0.70168   0.12647   0.00000  Uiso   1.00
H335   H     0.83932   0.73707   0.10970   0.00000  Uiso   1.00
H336   H     0.88003   0.72315   0.05456   0.00000  Uiso   1.00
C337   C     0.62447   0.93254   0.22869   0.00000  Uiso   1.00
H338   H     0.61414   0.96496   0.20676   0.00000  Uiso   1.00
H339   H     0.61985   0.94361   0.27876   0.00000  Uiso   1.00
H340   H     0.66070   0.92956   0.22386   0.00000  Uiso   1.00
C341   C     0.54040   0.69199   0.07705   0.00000  Uiso   1.00
H342   H     0.51511   0.99268   0.05621   0.00000  Uiso   1.00
H343   H     0.56018   0.69996   0.03955   0.00000  Uiso   1.00
H344   H     0.56246   0.67802   0.11133   0.00000  Uiso   1.00
C345   C     0.95959   0.97473   0.25613   0.00000  Uiso   1.00
H346   H     0.98488   0.67406   0.27692   0.00000  Uiso   1.00
H347   H     0.93751   0.98867   0.22184   0.00000  Uiso   1.00
H348   H     0.93983   0.96679   0.29365   0.00000  Uiso   1.00
C349   C     0.24852   0.06657   0.48441   0.00000  Uiso   1.00
C350   C     0.25148   0.26677   0.51559   0.00000  Uiso   1.00
C351   C     0.01917   0.07510   0.44146   0.00000  Uiso   1.00
C352   C     0.48082   0.25828   0.55841   0.00000  Uiso   1.00
C353   C     0.24795   0.01057   0.47564   0.00000  Uiso   1.00
C354   C     0.25205   0.32276   0.52436   0.00000  Uiso   1.00
C355   C     0.16469   0.16771   0.50111   0.00000  Uiso   1.00
C356   C     0.33531   0.16563   0.49889   0.00000  Uiso   1.00
C357   C     0.40864   0.20965   0.52650   0.00000  Uiso   1.00
C358   C     0.09136   0.12371   0.47345   0.00000  Uiso   1.00
C359   C     0.38327   0.16399   0.49672   0.00000  Uiso   1.00
C360   C     0.11673   0.16935   0.50327   0.00000  Uiso   1.00
C361   C     0.40352   0.11799   0.46769   0.00000  Uiso   1.00
C362   C     0.09647   0.21536   0.53229   0.00000  Uiso   1.00
C363   C     0.45071   0.11930   0.46862   0.00000  Uiso   1.00
C364   C     0.04929   0.21407   0.53130   0.00000  Uiso   1.00
C365   C     0.47646   0.16611   0.49915   0.00000  Uiso   1.00
C366   C     0.02353   0.16726   0.50076   0.00000  Uiso   1.00
C367   C     0.45518   0.21170   0.52820   0.00000  Uiso   1.00
C368   C     0.04482   0.12167   0.47171   0.00000  Uiso   1.00
C369   C     0.47269   0.07462   0.44014   0.00000  Uiso   1.00
C370   C     0.02730   0.25876   0.55973   0.00000  Uiso   1.00
Cu371  Cu    0.25500   0.17246   0.56146   0.00000  Uiso   1.00
Cu372  Cu    0.24499   0.16087   0.43854   0.00000  Uiso   1.00
H373   H     0.39123   0.24368   0.54831   0.00000  Uiso   1.00
H374   H     0.10877   0.08967   0.45164   0.00000  Uiso   1.00
H375   H     0.45392   0.03861   0.41633   0.00000  Uiso   1.00
H376   H     0.04607   0.29479   0.58350   0.00000  Uiso   1.00
H377   H     0.24420   0.31998   0.42871   0.00000  Uiso   1.00
H378   H     0.25580   0.01335   0.57129   0.00000  Uiso   1.00
H379   H     0.21505   0.12596   0.64954   0.00000  Uiso   1.00
H380   H     0.28495   0.20738   0.35046   0.00000  Uiso   1.00
N381   N     0.23744   0.15214   0.34617   0.00000  Uiso   1.00
N382   N     0.26255   0.18119   0.65383   0.00000  Uiso   1.00
O383   O     0.25325   0.09538   0.53992   0.00000  Uiso   1.00
O384   O     0.24674   0.23796   0.46008   0.00000  Uiso   1.00
O385   O     0.24480   0.08559   0.43612   0.00000  Uiso   1.00
O386   O     0.25520   0.24774   0.56388   0.00000  Uiso   1.00
O387   O     0.18935   0.17155   0.55191   0.00000  Uiso   1.00
O388   O     0.31064   0.16179   0.44809   0.00000  Uiso   1.00
O389   O     0.18090   0.16176   0.44810   0.00000  Uiso   1.00
O390   O     0.31910   0.17157   0.55190   0.00000  Uiso   1.00
C391   C     0.37553   0.06747   0.43800   0.00000  Uiso   1.00
H392   H     0.38597   0.03501   0.45980   0.00000  Uiso   1.00
H393   H     0.33932   0.07040   0.44303   0.00000  Uiso   1.00
H394   H     0.38003   0.05648   0.38789   0.00000  Uiso   1.00
C395   C     0.12447   0.26588   0.56202   0.00000  Uiso   1.00
H396   H     0.11414   0.29829   0.54009   0.00000  Uiso   1.00
H397   H     0.11985   0.27694   0.61209   0.00000  Uiso   1.00
H398   H     0.16070   0.26289   0.55719   0.00000  Uiso   1.00
C399   C     0.04040   0.02533   0.41038   0.00000  Uiso   1.00
H400   H     0.01511   0.32601   0.38955   0.00000  Uiso   1.00
H401   H     0.06018   0.03329   0.37289   0.00000  Uiso   1.00
H402   H     0.06246   0.01136   0.44466   0.00000  Uiso   1.00
C403   C     0.45959   0.30806   0.58946   0.00000  Uiso   1.00
H404   H     0.48488   0.00739   0.61025   0.00000  Uiso   1.00
H405   H     0.43751   0.32200   0.55517   0.00000  Uiso   1.00
H406   H     0.43983   0.30012   0.62698   0.00000  Uiso   1.00
C407   C     0.74852   0.06657   0.48441   0.00000  Uiso   1.00
C408   C     0.75148   0.26677   0.51559   0.00000  Uiso   1.00
C409   C     0.51917   0.07510   0.44146   0.00000  Uiso   1.00
C410   C     0.98082   0.25828   0.55841   0.00000  Uiso   1.00
C411   C     0.74795   0.01057   0.47564   0.00000  Uiso   1.00
C412   C     0.75205   0.32276   0.52436   0.00000  Uiso   1.00
C413   C     0.66469   0.16771   0.50111   0.00000  Uiso   1.00
C414   C     0.83531   0.16563   0.49889   0.00000  Uiso   1.00
C415   C     0.90864   0.20965   0.52650   0.00000  Uiso   1.00
C416   C     0.59136   0.12371   0.47345   0.00000  Uiso   1.00
C417   C     0.88327   0.16399   0.49672   0.00000  Uiso   1.00
C418   C     0.61673   0.16935   0.50327   0.00000  Uiso   1.00
C419   C     0.90352   0.11799   0.46769   0.00000  Uiso   1.00
C420   C     0.59647   0.21536   0.53229   0.00000  Uiso   1.00
C421   C     0.95071   0.11930   0.46862   0.00000  Uiso   1.00
C422   C     0.54929   0.21407   0.53130   0.00000  Uiso   1.00
C423   C     0.97646   0.16611   0.49915   0.00000  Uiso   1.00
C424   C     0.52353   0.16726   0.50076   0.00000  Uiso   1.00
C425   C     0.95518   0.21170   0.52820   0.00000  Uiso   1.00
C426   C     0.54482   0.12167   0.47171   0.00000  Uiso   1.00
C427   C     0.97269   0.07462   0.44014   0.00000  Uiso   1.00
C428   C     0.52730   0.25876   0.55973   0.00000  Uiso   1.00
Cu429  Cu    0.75500   0.17246   0.56146   0.00000  Uiso   1.00
Cu430  Cu    0.74499   0.16087   0.43854   0.00000  Uiso   1.00
H431   H     0.89123   0.24368   0.54831   0.00000  Uiso   1.00
H432   H     0.60877   0.08967   0.45164   0.00000  Uiso   1.00
H433   H     0.95392   0.03861   0.41633   0.00000  Uiso   1.00
H434   H     0.54607   0.29479   0.58350   0.00000  Uiso   1.00
H435   H     0.74420   0.31998   0.42871   0.00000  Uiso   1.00
H436   H     0.75580   0.01335   0.57129   0.00000  Uiso   1.00
H437   H     0.71505   0.12596   0.64954   0.00000  Uiso   1.00
H438   H     0.78495   0.20738   0.35046   0.00000  Uiso   1.00
N439   N     0.73744   0.15214   0.34617   0.00000  Uiso   1.00
N440   N     0.76255   0.18119   0.65383   0.00000  Uiso   1.00
O441   O     0.75325   0.09538   0.53992   0.00000  Uiso   1.00
O442   O     0.74674   0.23796   0.46008   0.00000  Uiso   1.00
O443   O     0.74480   0.08559   0.43612   0.00000  Uiso   1.00
O444   O     0.75520   0.24774   0.56388   0.00000  Uiso   1.00
O445   O     0.68935   0.17155   0.55191   0.00000  Uiso   1.00
O446   O     0.81064   0.16179   0.44809   0.00000  Uiso   1.00
O447   O     0.68090   0.16176   0.44810   0.00000  Uiso   1.00
O448   O     0.81910   0.17157   0.55190   0.00000  Uiso   1.00
C449   C     0.87553   0.06747   0.43800   0.00000  Uiso   1.00
H450   H     0.88597   0.03501   0.45980   0.00000  Uiso   1.00
H451   H     0.83932   0.07040   0.44303   0.00000  Uiso   1.00
H452   H     0.88003   0.05648   0.38789   0.00000  Uiso   1.00
C453   C     0.62447   0.26588   0.56202   0.00000  Uiso   1.00
H454   H     0.61414   0.29829   0.54009   0.00000  Uiso   1.00
H455   H     0.61985   0.27694   0.61209   0.00000  Uiso   1.00
H456   H     0.66070   0.26289   0.55719   0.00000  Uiso   1.00
C457   C     0.54040   0.02533   0.41038   0.00000  Uiso   1.00
H458   H     0.51511   0.32601   0.38955   0.00000  Uiso   1.00
H459   H     0.56018   0.03329   0.37289   0.00000  Uiso   1.00
H460   H     0.56246   0.01136   0.44466   0.00000  Uiso   1.00
C461   C     0.95959   0.30806   0.58946   0.00000  Uiso   1.00
H462   H     0.98488   0.00739   0.61025   0.00000  Uiso   1.00
H463   H     0.93751   0.32200   0.55517   0.00000  Uiso   1.00
H464   H     0.93983   0.30012   0.62698   0.00000  Uiso   1.00
C465   C     0.24852   0.39990   0.48441   0.00000  Uiso   1.00
C466   C     0.25148   0.60010   0.51559   0.00000  Uiso   1.00
C467   C     0.01917   0.40844   0.44146   0.00000  Uiso   1.00
C468   C     0.48082   0.59161   0.55841   0.00000  Uiso   1.00
C469   C     0.24795   0.34390   0.47564   0.00000  Uiso   1.00
C470   C     0.25205   0.65610   0.52436   0.00000  Uiso   1.00
C471   C     0.16469   0.50105   0.50111   0.00000  Uiso   1.00
C472   C     0.33531   0.49896   0.49889   0.00000  Uiso   1.00
C473   C     0.40864   0.54298   0.52650   0.00000  Uiso   1.00
C474   C     0.09136   0.45704   0.47345   0.00000  Uiso   1.00
C475   C     0.38327   0.49733   0.49672   0.00000  Uiso   1.00
C476   C     0.11673   0.50269   0.50327   0.00000  Uiso   1.00
C477   C     0.40352   0.45133   0.46769   0.00000  Uiso   1.00
C478   C     0.09647   0.54869   0.53229   0.00000  Uiso   1.00
C479   C     0.45071   0.45263   0.46862   0.00000  Uiso   1.00
C480   C     0.04929   0.54740   0.53130   0.00000  Uiso   1.00
C481   C     0.47646   0.49944   0.49915   0.00000  Uiso   1.00
C482   C     0.02353   0.50059   0.50076   0.00000  Uiso   1.00
C483   C     0.45518   0.54503   0.52820   0.00000  Uiso   1.00
C484   C     0.04482   0.45500   0.47171   0.00000  Uiso   1.00
C485   C     0.47269   0.40796   0.44014   0.00000  Uiso   1.00
C486   C     0.02730   0.59209   0.55973   0.00000  Uiso   1.00
Cu487  Cu    0.25500   0.50579   0.56146   0.00000  Uiso   1.00
Cu488  Cu    0.24499   0.49421   0.43854   0.00000  Uiso   1.00
H489   H     0.39123   0.57702   0.54831   0.00000  Uiso   1.00
H490   H     0.10877   0.42301   0.45164   0.00000  Uiso   1.00
H491   H     0.45392   0.37194   0.41633   0.00000  Uiso   1.00
H492   H     0.04607   0.62812   0.58350   0.00000  Uiso   1.00
H493   H     0.24420   0.65331   0.42871   0.00000  Uiso   1.00
H494   H     0.25580   0.34669   0.57129   0.00000  Uiso   1.00
H495   H     0.21505   0.45929   0.64954   0.00000  Uiso   1.00
H496   H     0.28495   0.54071   0.35046   0.00000  Uiso   1.00
N497   N     0.23744   0.48547   0.34617   0.00000  Uiso   1.00
N498   N     0.26255   0.51453   0.65383   0.00000  Uiso   1.00
O499   O     0.25325   0.42871   0.53992   0.00000  Uiso   1.00
O500   O     0.24674   0.57129   0.46008   0.00000  Uiso   1.00
O501   O     0.24480   0.41892   0.43612   0.00000  Uiso   1.00
O502   O     0.25520   0.58108   0.56388   0.00000  Uiso   1.00
O503   O     0.18935   0.50488   0.55191   0.00000  Uiso   1.00
O504   O     0.31064   0.49512   0.44809   0.00000  Uiso   1.00
O505   O     0.18090   0.49510   0.44810   0.00000  Uiso   1.00
O506   O     0.31910   0.50490   0.55190   0.00000  Uiso   1.00
C507   C     0.37553   0.40080   0.43800   0.00000  Uiso   1.00
H508   H     0.38597   0.36835   0.45980   0.00000  Uiso   1.00
H509   H     0.33932   0.40373   0.44303   0.00000  Uiso   1.00
H510   H     0.38003   0.38981   0.38789   0.00000  Uiso   1.00
C511   C     0.12447   0.59921   0.56202   0.00000  Uiso   1.00
H512   H     0.11414   0.63163   0.54009   0.00000  Uiso   1.00
H513   H     0.11985   0.61028   0.61209   0.00000  Uiso   1.00
H514   H     0.16070   0.59623   0.55719   0.00000  Uiso   1.00
C515   C     0.04040   0.35866   0.41038   0.00000  Uiso   1.00
H516   H     0.01511   0.65934   0.38955   0.00000  Uiso   1.00
H517   H     0.06018   0.36663   0.37289   0.00000  Uiso   1.00
H518   H     0.06246   0.34469   0.44466   0.00000  Uiso   1.00
C519   C     0.45959   0.64140   0.58946   0.00000  Uiso   1.00
H520   H     0.48488   0.34073   0.61025   0.00000  Uiso   1.00
H521   H     0.43751   0.65533   0.55517   0.00000  Uiso   1.00
H522   H     0.43983   0.63346   0.62698   0.00000  Uiso   1.00
C523   C     0.74852   0.39990   0.48441   0.00000  Uiso   1.00
C524   C     0.75148   0.60010   0.51559   0.00000  Uiso   1.00
C525   C     0.51917   0.40844   0.44146   0.00000  Uiso   1.00
C526   C     0.98082   0.59161   0.55841   0.00000  Uiso   1.00
C527   C     0.74795   0.34390   0.47564   0.00000  Uiso   1.00
C528   C     0.75205   0.65610   0.52436   0.00000  Uiso   1.00
C529   C     0.66469   0.50105   0.50111   0.00000  Uiso   1.00
C530   C     0.83531   0.49896   0.49889   0.00000  Uiso   1.00
C531   C     0.90864   0.54298   0.52650   0.00000  Uiso   1.00
C532   C     0.59136   0.45704   0.47345   0.00000  Uiso   1.00
C533   C     0.88327   0.49733   0.49672   0.00000  Uiso   1.00
C534   C     0.61673   0.50269   0.50327   0.00000  Uiso   1.00
C535   C     0.90352   0.45133   0.46769   0.00000  Uiso   1.00
C536   C     0.59647   0.54869   0.53229   0.00000  Uiso   1.00
C537   C     0.95071   0.45263   0.46862   0.00000  Uiso   1.00
C538   C     0.54929   0.54740   0.53130   0.00000  Uiso   1.00
C539   C     0.97646   0.49944   0.49915   0.00000  Uiso   1.00
C540   C     0.52353   0.50059   0.50076   0.00000  Uiso   1.00
C541   C     0.95518   0.54503   0.52820   0.00000  Uiso   1.00
C542   C     0.54482   0.45500   0.47171   0.00000  Uiso   1.00
C543   C     0.97269   0.40796   0.44014   0.00000  Uiso   1.00
C544   C     0.52730   0.59209   0.55973   0.00000  Uiso   1.00
Cu545  Cu    0.75500   0.50579   0.56146   0.00000  Uiso   1.00
Cu546  Cu    0.74499   0.49421   0.43854   0.00000  Uiso   1.00
H547   H     0.89123   0.57702   0.54831   0.00000  Uiso   1.00
H548   H     0.60877   0.42301   0.45164   0.00000  Uiso   1.00
H549   H     0.95392   0.37194   0.41633   0.00000  Uiso   1.00
H550   H     0.54607   0.62812   0.58350   0.00000  Uiso   1.00
H551   H     0.74420   0.65331   0.42871   0.00000  Uiso   1.00
H552   H     0.75580   0.34669   0.57129   0.00000  Uiso   1.00
H553   H     0.71505   0.45929   0.64954   0.00000  Uiso   1.00
H554   H     0.78495   0.54071   0.35046   0.00000  Uiso   1.00
N555   N     0.73744   0.48547   0.34617   0.00000  Uiso   1.00
N556   N     0.76255   0.51453   0.65383   0.00000  Uiso   1.00
O557   O     0.75325   0.42871   0.53992   0.00000  Uiso   1.00
O558   O     0.74674   0.57129   0.46008   0.00000  Uiso   1.00
O559   O     0.74480   0.41892   0.43612   0.00000  Uiso   1.00
O560   O     0.75520   0.58108   0.56388   0.00000  Uiso   1.00
O561   O     0.68935   0.50488   0.55191   0.00000  Uiso   1.00
O562   O     0.81064   0.49512   0.44809   0.00000  Uiso   1.00
O563   O     0.68090   0.49510   0.44810   0.00000  Uiso   1.00
O564   O     0.81910   0.50490   0.55190   0.00000  Uiso   1.00
C565   C     0.87553   0.40080   0.43800   0.00000  Uiso   1.00
H566   H     0.88597   0.36835   0.45980   0.00000  Uiso   1.00
H567   H     0.83932   0.40373   0.44303   0.00000  Uiso   1.00
H568   H     0.88003   0.38981   0.38789   0.00000  Uiso   1.00
C569   C     0.62447   0.59921   0.56202   0.00000  Uiso   1.00
H570   H     0.61414   0.63163   0.54009   0.00000  Uiso   1.00
H571   H     0.61985   0.61028   0.61209   0.00000  Uiso   1.00
H572   H     0.66070   0.59623   0.55719   0.00000  Uiso   1.00
C573   C     0.54040   0.35866   0.41038   0.00000  Uiso   1.00
H574   H     0.51511   0.65934   0.38955   0.00000  Uiso   1.00
H575   H     0.56018   0.36663   0.37289   0.00000  Uiso   1.00
H576   H     0.56246   0.34469   0.44466   0.00000  Uiso   1.00
C577   C     0.95959   0.64140   0.58946   0.00000  Uiso   1.00
H578   H     0.98488   0.34073   0.61025   0.00000  Uiso   1.00
H579   H     0.93751   0.65533   0.55517   0.00000  Uiso   1.00
H580   H     0.93983   0.63346   0.62698   0.00000  Uiso   1.00
C581   C     0.24852   0.73323   0.48441   0.00000  Uiso   1.00
C582   C     0.25148   0.93343   0.51559   0.00000  Uiso   1.00
C583   C     0.01917   0.74177   0.44146   0.00000  Uiso   1.00
C584   C     0.48082   0.92494   0.55841   0.00000  Uiso   1.00
C585   C     0.24795   0.67724   0.47564   0.00000  Uiso   1.00
C586   C     0.25205   0.98943   0.52436   0.00000  Uiso   1.00
C587   C     0.16469   0.83438   0.50111   0.00000  Uiso   1.00
C588   C     0.33531   0.83229   0.49889   0.00000  Uiso   1.00
C589   C     0.40864   0.87631   0.52650   0.00000  Uiso   1.00
C590   C     0.09136   0.79038   0.47345   0.00000  Uiso   1.00
C591   C     0.38327   0.83066   0.49672   0.00000  Uiso   1.00
C592   C     0.11673   0.83602   0.50327   0.00000  Uiso   1.00
C593   C     0.40352   0.78466   0.46769   0.00000  Uiso   1.00
C594   C     0.09647   0.88202   0.53229   0.00000  Uiso   1.00
C595   C     0.45071   0.78596   0.46862   0.00000  Uiso   1.00
C596   C     0.04929   0.88074   0.53130   0.00000  Uiso   1.00
C597   C     0.47646   0.83278   0.49915   0.00000  Uiso   1.00
C598   C     0.02353   0.83393   0.50076   0.00000  Uiso   1.00
C599   C     0.45518   0.87837   0.52820   0.00000  Uiso   1.00
C600   C     0.04482   0.78834   0.47171   0.00000  Uiso   1.00
C601   C     0.47269   0.74129   0.44014   0.00000  Uiso   1.00
C602   C     0.02730   0.92543   0.55973   0.00000  Uiso   1.00
Cu603  Cu    0.25500   0.83913   0.56146   0.00000  Uiso   1.00
Cu604  Cu    0.24499   0.82754   0.43854   0.00000  Uiso   1.00
H605   H     0.39123   0.91035   0.54831   0.00000  Uiso   1.00
H606   H     0.10877   0.75634   0.45164   0.00000  Uiso   1.00
H607   H     0.45392   0.70528   0.41633   0.00000  Uiso   1.00
H608   H     0.04607   0.96146   0.58350   0.00000  Uiso   1.00
H609   H     0.24420   0.98665   0.42871   0.00000  Uiso   1.00
H610   H     0.25580   0.68002   0.57129   0.00000  Uiso   1.00
H611   H     0.21505   0.79262   0.64954   0.00000  Uiso   1.00
H612   H     0.28495   0.87404   0.35046   0.00000  Uiso   1.00
N613   N     0.23744   0.81881   0.34617   0.00000  Uiso   1.00
N614   N     0.26255   0.84786   0.65383   0.00000  Uiso   1.00
O615   O     0.25325   0.76204   0.53992   0.00000  Uiso   1.00
O616   O     0.24674   0.90462   0.46008   0.00000  Uiso   1.00
O617   O     0.24480   0.75226   0.43612   0.00000  Uiso   1.00
O618   O     0.25520   0.91441   0.56388   0.00000  Uiso   1.00
O619   O     0.18935   0.83821   0.55191   0.00000  Uiso   1.00
O620   O     0.31064   0.82845   0.44809   0.00000  Uiso   1.00
O621   O     0.18090   0.82843   0.44810   0.00000  Uiso   1.00
O622   O     0.31910   0.83824   0.55190   0.00000  Uiso   1.00
C623   C     0.37553   0.73413   0.43800   0.00000  Uiso   1.00
H624   H     0.38597   0.70168   0.45980   0.00000  Uiso   1.00
H625   H     0.33932   0.73707   0.44303   0.00000  Uiso   1.00
H626   H     0.38003   0.72315   0.38789   0.00000  Uiso   1.00
C627   C     0.12447   0.93254   0.56202   0.00000  Uiso   1.00
H628   H     0.11414   0.96496   0.54009   0.00000  Uiso   1.00
H629   H     0.11985   0.94361   0.61209   0.00000  Uiso   1.00
H630   H     0.16070   0.92956   0.55719   0.00000  Uiso   1.00
C631   C     0.04040   0.69199   0.41038   0.00000  Uiso   1.00
H632   H     0.01511   0.99268   0.38955   0.00000  Uiso   1.00
H633   H     0.06018   0.69996   0.37289   0.00000  Uiso   1.00
H634   H     0.06246   0.67802   0.44466   0.00000  Uiso   1.00
C635   C     0.45959   0.97473   0.58946   0.00000  Uiso   1.00
H636   H     0.48488   0.67406   0.61025   0.00000  Uiso   1.00
H637   H     0.43751   0.98867   0.55517   0.00000  Uiso   1.00
H638   H     0.43983   0.96679   0.62698   0.00000  Uiso   1.00
C639   C     0.74852   0.73323   0.48441   0.00000  Uiso   1.00
C640   C     0.75148   0.93343   0.51559   0.00000  Uiso   1.00
C641   C     0.51917   0.74177   0.44146   0.00000  Uiso   1.00
C642   C     0.98082   0.92494   0.55841   0.00000  Uiso   1.00
C643   C     0.74795   0.67724   0.47564   0.00000  Uiso   1.00
C644   C     0.75205   0.98943   0.52436   0.00000  Uiso   1.00
C645   C     0.66469   0.83438   0.50111   0.00000  Uiso   1.00
C646   C     0.83531   0.83229   0.49889   0.00000  Uiso   1.00
C647   C     0.90864   0.87631   0.52650   0.00000  Uiso   1.00
C648   C     0.59136   0.79038   0.47345   0.00000  Uiso   1.00
C649   C     0.88327   0.83066   0.49672   0.00000  Uiso   1.00
C650   C     0.61673   0.83602   0.50327   0.00000  Uiso   1.00
C651   C     0.90352   0.78466   0.46769   0.00000  Uiso   1.00
C652   C     0.59647   0.88202   0.53229   0.00000  Uiso   1.00
C653   C     0.95071   0.78596   0.46862   0.00000  Uiso   1.00
C654   C     0.54929   0.88074   0.53130   0.00000  Uiso   1.00
C655   C     0.97646   0.83278   0.49915   0.00000  Uiso   1.00
C656   C     0.52353   0.83393   0.50076   0.00000  Uiso   1.00
C657   C     0.95518   0.87837   0.52820   0.00000  Uiso   1.00
C658   C     0.54482   0.78834   0.47171   0.00000  Uiso   1.00
C659   C     0.97269   0.74129   0.44014   0.00000  Uiso   1.00
C660   C     0.52730   0.92543   0.55973   0.00000  Uiso   1.00
Cu661  Cu    0.75500   0.83913   0.56146   0.00000  Uiso   1.00
Cu662  Cu    0.74499   0.82754   0.43854   0.00000  Uiso   1.00
H663   H     0.89123   0.91035   0.54831   0.00000  Uiso   1.00
H664   H     0.60877   0.75634   0.45164   0.00000  Uiso   1.00
H665   H     0.95392   0.70528   0.41633   0.00000  Uiso   1.00
H666   H     0.54607   0.96146   0.58350   0.00000  Uiso   1.00
H667   H     0.74420   0.98665   0.42871   0.00000  Uiso   1.00
H668   H     0.75580   0.68002   0.57129   0.00000  Uiso   1.00
H669   H     0.71505   0.79262   0.64954   0.00000  Uiso   1.00
H670   H     0.78495   0.87404   0.35046   0.00000  Uiso   1.00
N671   N     0.73744   0.81881   0.34617   0.00000  Uiso   1.00
N672   N     0.76255   0.84786   0.65383   0.00000  Uiso   1.00
O673   O     0.75325   0.76204   0.53992   0.00000  Uiso   1.00
O674   O     0.74674   0.90462   0.46008   0.00000  Uiso   1.00
O675   O     0.74480   0.75226   0.43612   0.00000  Uiso   1.00
O676   O     0.75520   0.91441   0.56388   0.00000  Uiso   1.00
O677   O     0.68935   0.83821   0.55191   0.00000  Uiso   1.00
O678   O     0.81064   0.82845   0.44809   0.00000  Uiso   1.00
O679   O     0.68090   0.82843   0.44810   0.00000  Uiso   1.00
O680   O     0.81910   0.83824   0.55190   0.00000  Uiso   1.00
C681   C     0.87553   0.73413   0.43800   0.00000  Uiso   1.00
H682   H     0.88597   0.70168   0.45980   0.00000  Uiso   1.00
H683   H     0.83932   0.73707   0.44303   0.00000  Uiso   1.00
H684   H     0.88003   0.72315   0.38789   0.00000  Uiso   1.00
C685   C     0.62447   0.93254   0.56202   0.00000  Uiso   1.00
H686   H     0.61414   0.96496   0.54009   0.00000  Uiso   1.00
H687   H     0.61985   0.94361   0.61209   0.00000  Uiso   1.00
H688   H     0.66070   0.92956   0.55719   0.00000  Uiso   1.00
C689   C     0.54040   0.69199   0.41038   0.00000  Uiso   1.00
H690   H     0.51511   0.99268   0.38955   0.00000  Uiso   1.00
H691   H     0.56018   0.69996   0.37289   0.00000  Uiso   1.00
H692   H     0.56246   0.67802   0.44466   0.00000  Uiso   1.00
C693   C     0.95959   0.97473   0.58946   0.00000  Uiso   1.00
H694   H     0.98488   0.67406   0.61025   0.00000  Uiso   1.00
H695   H     0.93751   0.98867   0.55517   0.00000  Uiso   1.00
H696   H     0.93983   0.96679   0.62698   0.00000  Uiso   1.00
C697   C     0.24852   0.06657   0.81775   0.00000  Uiso   1.00
C698   C     0.25148   0.26677   0.84892   0.00000  Uiso   1.00
C699   C     0.01917   0.07510   0.77479   0.00000  Uiso   1.00
C700   C     0.48082   0.25828   0.89175   0.00000  Uiso   1.00
C701   C     0.24795   0.01057   0.80897   0.00000  Uiso   1.00
C702   C     0.25205   0.32276   0.85769   0.00000  Uiso   1.00
C703   C     0.16469   0.16771   0.83445   0.00000  Uiso   1.00
C704   C     0.33531   0.16563   0.83222   0.00000  Uiso   1.00
C705   C     0.40864   0.20965   0.85983   0.00000  Uiso   1.00
C706   C     0.09136   0.12371   0.80679   0.00000  Uiso   1.00
C707   C     0.38327   0.16399   0.83005   0.00000  Uiso   1.00
C708   C     0.11673   0.16935   0.83661   0.00000  Uiso   1.00
C709   C     0.40352   0.11799   0.80102   0.00000  Uiso   1.00
C710   C     0.09647   0.21536   0.86563   0.00000  Uiso   1.00
C711   C     0.45071   0.11930   0.80195   0.00000  Uiso   1.00
C712   C     0.04929   0.21407   0.86463   0.00000  Uiso   1.00
C713   C     0.47646   0.16611   0.83249   0.00000  Uiso   1.00
C714   C     0.02353   0.16726   0.83410   0.00000  Uiso   1.00
C715   C     0.45518   0.21170   0.86154   0.00000  Uiso   1.00
C716   C     0.04482   0.12167   0.80505   0.00000  Uiso   1.00
C717   C     0.47269   0.07462   0.77347   0.00000  Uiso   1.00
C718   C     0.02730   0.25876   0.89306   0.00000  Uiso   1.00
Cu719  Cu    0.25500   0.17246   0.89479   0.00000  Uiso   1.00
Cu720  Cu    0.24499   0.16087   0.77187   0.00000  Uiso   1.00
H721   H     0.39123   0.24368   0.88165   0.00000  Uiso   1.00
H722   H     0.10877   0.08967   0.78498   0.00000  Uiso   1.00
H723   H     0.45392   0.03861   0.74966   0.00000  Uiso   1.00
H724   H     0.04607   0.29479   0.91683   0.00000  Uiso   1.00
H725   H     0.24420   0.31998   0.76204   0.00000  Uiso   1.00
H726   H     0.25580   0.01335   0.90462   0.00000  Uiso   1.00
H727   H     0.21505   0.12596   0.98287   0.00000  Uiso   1.00
H728   H     0.28495   0.20738   0.68379   0.00000  Uiso   1.00
N729   N     0.23744   0.15214   0.67951   0.00000  Uiso   1.00
N730   N     0.26255   0.18119   0.98716   0.00000  Uiso   1.00
O731   O     0.25325   0.09538   0.87326   0.00000  Uiso   1.00
O732   O     0.24674   0.23796   0.79341   0.00000  Uiso   1.00
O733   O     0.24480   0.08559   0.76945   0.00000  Uiso   1.00
O734   O     0.25520   0.24774   0.89721   0.00000  Uiso   1.00
O735   O     0.18935   0.17155   0.88524   0.00000  Uiso   1.00
O736   O     0.31064   0.16179   0.78143   0.00000  Uiso   1.00
O737   O     0.18090   0.16176   0.78143   0.00000  Uiso   1.00
O738   O     0.31910   0.17157   0.88523   0.00000  Uiso   1.00
C739   C     0.37553   0.06747   0.77133   0.00000  Uiso   1.00
H740   H     0.38597   0.03501   0.79313   0.00000  Uiso   1.00
H741   H     0.33932   0.07040   0.77637   0.00000  Uiso   1.00
H742   H     0.38003   0.05648   0.72123   0.00000  Uiso   1.00
C743   C     0.12447   0.26588   0.89536   0.00000  Uiso   1.00
H744   H     0.11414   0.29829   0.87343   0.00000  Uiso   1.00
H745   H     0.11985   0.27694   0.94543   0.00000  Uiso   1.00
H746   H     0.16070   0.26289   0.89053   0.00000  Uiso   1.00
C747   C     0.04040   0.02533   0.74372   0.00000  Uiso   1.00
H748   H     0.01511   0.32601   0.72288   0.00000  Uiso   1.00
H749   H     0.06018   0.03329   0.70622   0.00000  Uiso   1.00
H750   H     0.06246   0.01136   0.77800   0.00000  Uiso   1.00
C751   C     0.45959   0.30806   0.92279   0.00000  Uiso   1.00
H752   H     0.48488   0.00739   0.94358   0.00000  Uiso   1.00
H753   H     0.43751   0.32200   0.88850   0.00000  Uiso   1.00
H754   H     0.43983   0.30012   0.96032   0.00000  Uiso   1.00
C755   C     0.74852   0.06657   0.81775   0.00000  Uiso   1.00
C756   C     0.75148   0.26677   0.84892   0.00000  Uiso   1.00
C757   C     0.51917   0.07510   0.77479   0.00000  Uiso   1.00
C758   C     0.98082   0.25828   0.89175   0.00000  Uiso   1.00
C759   C     0.74795   0.01057   0.80897   0.00000  Uiso   1.00
C760   C     0.75205   0.32276   0.85769   0.00000  Uiso   1.00
C761   C     0.66469   0.16771   0.83445   0.00000  Uiso   1.00
C762   C     0.83531   0.16563   0.83222   0.00000  Uiso   1.00
C763   C     0.90864   0.20965   0.85983   0.00000  Uiso   1.00
C764   C     0.59136   0.12371   0.80679   0.00000  Uiso   1.00
C765   C     0.88327   0.16399   0.83005   0.00000  Uiso   1.00
C766   C     0.61673   0.16935   0.83661   0.00000  Uiso   1.00
C767   C     0.90352   0.11799   0.80102   0.00000  Uiso   1.00
C768   C     0.59647   0.21536   0.86563   0.00000  Uiso   1.00
C769   C     0.95071   0.11930   0.80195   0.00000  Uiso   1.00
C770   C     0.54929   0.21407   0.86463   0.00000  Uiso   1.00
C771   C     0.97646   0.16611   0.83249   0.00000  Uiso   1.00
C772   C     0.52353   0.16726   0.83410   0.00000  Uiso   1.00
C773   C     0.95518   0.21170   0.86154   0.00000  Uiso   1.00
C774   C     0.54482   0.12167   0.80505   0.00000  Uiso   1.00
C775   C     0.97269   0.07462   0.77347   0.00000  Uiso   1.00
C776   C     0.52730   0.25876   0.89306   0.00000  Uiso   1.00
Cu777  Cu    0.75500   0.17246   0.89479   0.00000  Uiso   1.00
Cu778  Cu    0.74499   0.16087   0.77187   0.00000  Uiso   1.00
H779   H     0.89123   0.24368   0.88165   0.00000  Uiso   1.00
H780   H     0.60877   0.08967   0.78498   0.00000  Uiso   1.00
H781   H     0.95392   0.03861   0.74966   0.00000  Uiso   1.00
H782   H     0.54607   0.29479   0.91683   0.00000  Uiso   1.00
H783   H     0.74420   0.31998   0.76204   0.00000  Uiso   1.00
H784   H     0.75580   0.01335   0.90462   0.00000  Uiso   1.00
H785   H     0.71505   0.12596   0.98287   0.00000  Uiso   1.00
H786   H     0.78495   0.20738   0.68379   0.00000  Uiso   1.00
N787   N     0.73744   0.15214   0.67951   0.00000  Uiso   1.00
N788   N     0.76255   0.18119   0.98716   0.00000  Uiso   1.00
O789   O     0.75325   0.09538   0.87326   0.00000  Uiso   1.00
O790   O     0.74674   0.23796   0.79341   0.00000  Uiso   1.00
O791   O     0.74480   0.08559   0.76945   0.00000  Uiso   1.00
O792   O     0.75520   0.24774   0.89721   0.00000  Uiso   1.00
O793   O     0.68935   0.17155   0.88524   0.00000  Uiso   1.00
O794   O     0.81064   0.16179   0.78143   0.00000  Uiso   1.00
O795   O     0.68090   0.16176   0.78143   0.00000  Uiso   1.00
O796   O     0.81910   0.17157   0.88523   0.00000  Uiso   1.00
C797   C     0.87553   0.06747   0.77133   0.00000  Uiso   1.00
H798   H     0.88597   0.03501   0.79313   0.00000  Uiso   1.00
H799   H     0.83932   0.07040   0.77637   0.00000  Uiso   1.00
H800   H     0.88003   0.05648   0.72123   0.00000  Uiso   1.00
C801   C     0.62447   0.26588   0.89536   0.00000  Uiso   1.00
H802   H     0.61414   0.29829   0.87343   0.00000  Uiso   1.00
H803   H     0.61985   0.27694   0.94543   0.00000  Uiso   1.00
H804   H     0.66070   0.26289   0.89053   0.00000  Uiso   1.00
C805   C     0.54040   0.02533   0.74372   0.00000  Uiso   1.00
H806   H     0.51511   0.32601   0.72288   0.00000  Uiso   1.00
H807   H     0.56018   0.03329   0.70622   0.00000  Uiso   1.00
H808   H     0.56246   0.01136   0.77800   0.00000  Uiso   1.00
C809   C     0.95959   0.30806   0.92279   0.00000  Uiso   1.00
H810   H     0.98488   0.00739   0.94358   0.00000  Uiso   1.00
H811   H     0.93751   0.32200   0.88850   0.00000  Uiso   1.00
H812   H     0.93983   0.30012   0.96032   0.00000  Uiso   1.00
C813   C     0.24852   0.39990   0.81775   0.00000  Uiso   1.00
C814   C     0.25148   0.60010   0.84892   0.00000  Uiso   1.00
C815   C     0.01917   0.40844   0.77479   0.00000  Uiso   1.00
C816   C     0.48082   0.59161   0.89175   0.00000  Uiso   1.00
C817   C     0.24795   0.34390   0.80897   0.00000  Uiso   1.00
C818   C     0.25205   0.65610   0.85769   0.00000  Uiso   1.00
C819   C     0.16469   0.50105   0.83445   0.00000  Uiso   1.00
C820   C     0.33531   0.49896   0.83222   0.00000  Uiso   1.00
C821   C     0.40864   0.54298   0.85983   0.00000  Uiso   1.00
C822   C     0.09136   0.45704   0.80679   0.00000  Uiso   1.00
C823   C     0.38327   0.49733   0.83005   0.00000  Uiso   1.00
C824   C     0.11673   0.50269   0.83661   0.00000  Uiso   1.00
C825   C     0.40352   0.45133   0.80102   0.00000  Uiso   1.00
C826   C     0.09647   0.54869   0.86563   0.00000  Uiso   1.00
C827   C     0.45071   0.45263   0.80195   0.00000  Uiso   1.00
C828   C     0.04929   0.54740   0.86463   0.00000  Uiso   1.00
C829   C     0.47646   0.49944   0.83249   0.00000  Uiso   1.00
C830   C     0.02353   0.50059   0.83410   0.00000  Uiso   1.00
C831   C     0.45518   0.54503   0.86154   0.00000  Uiso   1.00
C832   C     0.04482   0.45500   0.80505   0.00000  Uiso   1.00
C833   C     0.47269   0.40796   0.77347   0.00000  Uiso   1.00
C834   C     0.02730   0.59209   0.89306   0.00000  Uiso   1.00
Cu835  Cu    0.25500   0.50579   0.89479   0.00000  Uiso   1.00
Cu836  Cu    0.24499   0.49421   0.77187   0.00000  Uiso   1.00
H837   H     0.39123   0.57702   0.88165   0.00000  Uiso   1.00
H838   H     0.10877   0.42301   0.78498   0.00000  Uiso   1.00
H839   H     0.45392   0.37194   0.74966   0.00000  Uiso   1.00
H840   H     0.04607   0.62812   0.91683   0.00000  Uiso   1.00
H841   H     0.24420   0.65331   0.76204   0.00000  Uiso   1.00
H842   H     0.25580   0.34669   0.90462   0.00000  Uiso   1.00
H843   H     0.21505   0.45929   0.98287   0.00000  Uiso   1.00
H844   H     0.28495   0.54071   0.68379   0.00000  Uiso   1.00
N845   N     0.23744   0.48547   0.67951   0.00000  Uiso   1.00
N846   N     0.26255   0.51453   0.98716   0.00000  Uiso   1.00
O847   O     0.25325   0.42871   0.87326   0.00000  Uiso   1.00
O848   O     0.24674   0.57129   0.79341   0.00000  Uiso   1.00
O849   O     0.24480   0.41892   0.76945   0.00000  Uiso   1.00
O850   O     0.25520   0.58108   0.89721   0.00000  Uiso   1.00
O851   O     0.18935   0.50488   0.88524   0.00000  Uiso   1.00
O852   O     0.31064   0.49512   0.78143   0.00000  Uiso   1.00
O853   O     0.18090   0.49510   0.78143   0.00000  Uiso   1.00
O854   O     0.31910   0.50490   0.88523   0.00000  Uiso   1.00
C855   C     0.37553   0.40080   0.77133   0.00000  Uiso   1.00
H856   H     0.38597   0.36835   0.79313   0.00000  Uiso   1.00
H857   H     0.33932   0.40373   0.77637   0.00000  Uiso   1.00
H858   H     0.38003   0.38981   0.72123   0.00000  Uiso   1.00
C859   C     0.12447   0.59921   0.89536   0.00000  Uiso   1.00
H860   H     0.11414   0.63163   0.87343   0.00000  Uiso   1.00
H861   H     0.11985   0.61028   0.94543   0.00000  Uiso   1.00
H862   H     0.16070   0.59623   0.89053   0.00000  Uiso   1.00
C863   C     0.04040   0.35866   0.74372   0.00000  Uiso   1.00
H864   H     0.01511   0.65934   0.72288   0.00000  Uiso   1.00
H865   H     0.06018   0.36663   0.70622   0.00000  Uiso   1.00
H866   H     0.06246   0.34469   0.77800   0.00000  Uiso   1.00
C867   C     0.45959   0.64140   0.92279   0.00000  Uiso   1.00
H868   H     0.48488   0.34073   0.94358   0.00000  Uiso   1.00
H869   H     0.43751   0.65533   0.88850   0.00000  Uiso   1.00
H870   H     0.43983   0.63346   0.96032   0.00000  Uiso   1.00
C871   C     0.74852   0.39990   0.81775   0.00000  Uiso   1.00
C872   C     0.75148   0.60010   0.84892   0.00000  Uiso   1.00
C873   C     0.51917   0.40844   0.77479   0.00000  Uiso   1.00
C874   C     0.98082   0.59161   0.89175   0.00000  Uiso   1.00
C875   C     0.74795   0.34390   0.80897   0.00000  Uiso   1.00
C876   C     0.75205   0.65610   0.85769   0.00000  Uiso   1.00
C877   C     0.66469   0.50105   0.83445   0.00000  Uiso   1.00
C878   C     0.83531   0.49896   0.83222   0.00000  Uiso   1.00
C879   C     0.90864   0.54298   0.85983   0.00000  Uiso   1.00
C880   C     0.59136   0.45704   0.80679   0.00000  Uiso   1.00
C881   C     0.88327   0.49733   0.83005   0.00000  Uiso   1.00
C882   C     0.61673   0.50269   0.83661   0.00000  Uiso   1.00
C883   C     0.90352   0.45133   0.80102   0.00000  Uiso   1.00
C884   C     0.59647   0.54869   0.86563   0.00000  Uiso   1.00
C885   C     0.95071   0.45263   0.80195   0.00000  Uiso   1.00
C886   C     0.54929   0.54740   0.86463   0.00000  Uiso   1.00
C887   C     0.97646   0.49944   0.83249   0.00000  Uiso   1.00
C888   C     0.52353   0.50059   0.83410   0.00000  Uiso   1.00
C889   C     0.95518   0.54503   0.86154   0.00000  Uiso   1.00
C890   C     0.54482   0.45500   0.80505   0.00000  Uiso   1.00
C891   C     0.97269   0.40796   0.77347   0.00000  Uiso   1.00
C892   C     0.52730   0.59209   0.89306   0.00000  Uiso   1.00
Cu893  Cu    0.75500   0.50579   0.89479   0.00000  Uiso   1.00
Cu894  Cu    0.74499   0.49421   0.77187   0.00000  Uiso   1.00
H895   H     0.89123   0.57702   0.88165   0.00000  Uiso   1.00
H896   H     0.60877   0.42301   0.78498   0.00000  Uiso   1.00
H897   H     0.95392   0.37194   0.74966   0.00000  Uiso   1.00
H898   H     0.54607   0.62812   0.91683   0.00000  Uiso   1.00
H899   H     0.74420   0.65331   0.76204   0.00000  Uiso   1.00
H900   H     0.75580   0.34669   0.90462   0.00000  Uiso   1.00
H901   H     0.71505   0.45929   0.98287   0.00000  Uiso   1.00
H902   H     0.78495   0.54071   0.68379   0.00000  Uiso   1.00
N903   N     0.73744   0.48547   0.67951   0.00000  Uiso   1.00
N904   N     0.76255   0.51453   0.98716   0.00000  Uiso   1.00
O905   O     0.75325   0.42871   0.87326   0.00000  Uiso   1.00
O906   O     0.74674   0.57129   0.79341   0.00000  Uiso   1.00
O907   O     0.74480   0.41892   0.76945   0.00000  Uiso   1.00
O908   O     0.75520   0.58108   0.89721   0.00000  Uiso   1.00
O909   O     0.68935   0.50488   0.88524   0.00000  Uiso   1.00
O910   O     0.81064   0.49512   0.78143   0.00000  Uiso   1.00
O911   O     0.68090   0.49510   0.78143   0.00000  Uiso   1.00
O912   O     0.81910   0.50490   0.88523   0.00000  Uiso   1.00
C913   C     0.87553   0.40080   0.77133   0.00000  Uiso   1.00
H914   H     0.88597   0.36835   0.79313   0.00000  Uiso   1.00
H915   H     0.83932   0.40373   0.77637   0.00000  Uiso   1.00
H916   H     0.88003   0.38981   0.72123   0.00000  Uiso   1.00
C917   C     0.62447   0.59921   0.89536   0.00000  Uiso   1.00
H918   H     0.61414   0.63163   0.87343   0.00000  Uiso   1.00
H919   H     0.61985   0.61028   0.94543   0.00000  Uiso   1.00
H920   H     0.66070   0.59623   0.89053   0.00000  Uiso   1.00
C921   C     0.54040   0.35866   0.74372   0.00000  Uiso   1.00
H922   H     0.51511   0.65934   0.72288   0.00000  Uiso   1.00
H923   H     0.56018   0.36663   0.70622   0.00000  Uiso   1.00
H924   H     0.56246   0.34469   0.77800   0.00000  Uiso   1.00
C925   C     0.95959   0.64140   0.92279   0.00000  Uiso   1.00
H926   H     0.98488   0.34073   0.94358   0.00000  Uiso   1.00
H927   H     0.93751   0.65533   0.88850   0.00000  Uiso   1.00
H928   H     0.93983   0.63346   0.96032   0.00000  Uiso   1.00
C929   C     0.24852   0.73323   0.81775   0.00000  Uiso   1.00
C930   C     0.25148   0.93343   0.84892   0.00000  Uiso   1.00
C931   C     0.01917   0.74177   0.77479   0.00000  Uiso   1.00
C932   C     0.48082   0.92494   0.89175   0.00000  Uiso   1.00
C933   C     0.24795   0.67724   0.80897   0.00000  Uiso   1.00
C934   C     0.25205   0.98943   0.85769   0.00000  Uiso   1.00
C935   C     0.16469   0.83438   0.83445   0.00000  Uiso   1.00
C936   C     0.33531   0.83229   0.83222   0.00000  Uiso   1.00
C937   C     0.40864   0.87631   0.85983   0.00000  Uiso   1.00
C938   C     0.09136   0.79038   0.80679   0.00000  Uiso   1.00
C939   C     0.38327   0.83066   0.83005   0.00000  Uiso   1.00
C940   C     0.11673   0.83602   0.83661   0.00000  Uiso   1.00
C941   C     0.40352   0.78466   0.80102   0.00000  Uiso   1.00
C942   C     0.09647   0.88202   0.86563   0.00000  Uiso   1.00
C943   C     0.45071   0.78596   0.80195   0.00000  Uiso   1.00
C944   C     0.04929   0.88074   0.86463   0.00000  Uiso   1.00
C945   C     0.47646   0.83278   0.83249   0.00000  Uiso   1.00
C946   C     0.02353   0.83393   0.83410   0.00000  Uiso   1.00
C947   C     0.45518   0.87837   0.86154   0.00000  Uiso   1.00
C948   C     0.04482   0.78834   0.80505   0.00000  Uiso   1.00
C949   C     0.47269   0.74129   0.77347   0.00000  Uiso   1.00
C950   C     0.02730   0.92543   0.89306   0.00000  Uiso   1.00
Cu951  Cu    0.25500   0.83913   0.89479   0.00000  Uiso   1.00
Cu952  Cu    0.24499   0.82754   0.77187   0.00000  Uiso   1.00
H953   H     0.39123   0.91035   0.88165   0.00000  Uiso   1.00
H954   H     0.10877   0.75634   0.78498   0.00000  Uiso   1.00
H955   H     0.45392   0.70528   0.74966   0.00000  Uiso   1.00
H956   H     0.04607   0.96146   0.91683   0.00000  Uiso   1.00
H957   H     0.24420   0.98665   0.76204   0.00000  Uiso   1.00
H958   H     0.25580   0.68002   0.90462   0.00000  Uiso   1.00
H959   H     0.21505   0.79262   0.98287   0.00000  Uiso   1.00
H960   H     0.28495   0.87404   0.68379   0.00000  Uiso   1.00
N961   N     0.23744   0.81881   0.67951   0.00000  Uiso   1.00
N962   N     0.26255   0.84786   0.98716   0.00000  Uiso   1.00
O963   O     0.25325   0.76204   0.87326   0.00000  Uiso   1.00
O964   O     0.24674   0.90462   0.79341   0.00000  Uiso   1.00
O965   O     0.24480   0.75226   0.76945   0.00000  Uiso   1.00
O966   O     0.25520   0.91441   0.89721   0.00000  Uiso   1.00
O967   O     0.18935   0.83821   0.88524   0.00000  Uiso   1.00
O968   O     0.31064   0.82845   0.78143   0.00000  Uiso   1.00
O969   O     0.18090   0.82843   0.78143   0.00000  Uiso   1.00
O970   O     0.31910   0.83824   0.88523   0.00000  Uiso   1.00
C971   C     0.37553   0.73413   0.77133   0.00000  Uiso   1.00
H972   H     0.38597   0.70168   0.79313   0.00000  Uiso   1.00
H973   H     0.33932   0.73707   0.77637   0.00000  Uiso   1.00
H974   H     0.38003   0.72315   0.72123   0.00000  Uiso   1.00
C975   C     0.12447   0.93254   0.89536   0.00000  Uiso   1.00
H976   H     0.11414   0.96496   0.87343   0.00000  Uiso   1.00
H977   H     0.11985   0.94361   0.94543   0.00000  Uiso   1.00
H978   H     0.16070   0.92956   0.89053   0.00000  Uiso   1.00
C979   C     0.04040   0.69199   0.74372   0.00000  Uiso   1.00
H980   H     0.01511   0.99268   0.72288   0.00000  Uiso   1.00
H981   H     0.06018   0.69996   0.70622   0.00000  Uiso   1.00
H982   H     0.06246   0.67802   0.77800   0.00000  Uiso   1.00
C983   C     0.45959   0.97473   0.92279   0.00000  Uiso   1.00
H984   H     0.48488   0.67406   0.94358   0.00000  Uiso   1.00
H985   H     0.43751   0.98867   0.88850   0.00000  Uiso   1.00
H986   H     0.43983   0.96679   0.96032   0.00000  Uiso   1.00
C987   C     0.74852   0.73323   0.81775   0.00000  Uiso   1.00
C988   C     0.75148   0.93343   0.84892   0.00000  Uiso   1.00
C989   C     0.51917   0.74177   0.77479   0.00000  Uiso   1.00
C990   C     0.98082   0.92494   0.89175   0.00000  Uiso   1.00
C991   C     0.74795   0.67724   0.80897   0.00000  Uiso   1.00
C992   C     0.75205   0.98943   0.85769   0.00000  Uiso   1.00
C993   C     0.66469   0.83438   0.83445   0.00000  Uiso   1.00
C994   C     0.83531   0.83229   0.83222   0.00000  Uiso   1.00
C995   C     0.90864   0.87631   0.85983   0.00000  Uiso   1.00
C996   C     0.59136   0.79038   0.80679   0.00000  Uiso   1.00
C997   C     0.88327   0.83066   0.83005   0.00000  Uiso   1.00
C998   C     0.61673   0.83602   0.83661   0.00000  Uiso   1.00
C999   C     0.90352   0.78466   0.80102   0.00000  Uiso   1.00
C1000  C     0.59647   0.88202   0.86563   0.00000  Uiso   1.00
C1001  C     0.95071   0.78596   0.80195   0.00000  Uiso   1.00
C1002  C     0.54929   0.88074   0.86463   0.00000  Uiso   1.00
C1003  C     0.97646   0.83278   0.83249   0.00000  Uiso   1.00
C1004  C     0.52353   0.83393   0.83410   0.00000  Uiso   1.00
C1005  C     0.95518   0.87837   0.86154   0.00000  Uiso   1.00
C1006  C     0.54482   0.78834   0.80505   0.00000  Uiso   1.00
C1007  C     0.97269   0.74129   0.77347   0.00000  Uiso   1.00
C1008  C     0.52730   0.92543   0.89306   0.00000  Uiso   1.00
Cu1009 Cu    0.75500   0.83913   0.89479   0.00000  Uiso   1.00
Cu1010 Cu    0.74499   0.82754   0.77187   0.00000  Uiso   1.00
H1011  H     0.89123   0.91035   0.88165   0.00000  Uiso   1.00
H1012  H     0.60877   0.75634   0.78498   0.00000  Uiso   1.00
H1013  H     0.95392   0.70528   0.74966   0.00000  Uiso   1.00
H1014  H     0.54607   0.96146   0.91683   0.00000  Uiso   1.00
H1015  H     0.74420   0.98665   0.76204   0.00000  Uiso   1.00
H1016  H     0.75580   0.68002   0.90462   0.00000  Uiso   1.00
H1017  H     0.71505   0.79262   0.98287   0.00000  Uiso   1.00
H1018  H     0.78495   0.87404   0.68379   0.00000  Uiso   1.00
N1019  N     0.73744   0.81881   0.67951   0.00000  Uiso   1.00
N1020  N     0.76255   0.84786   0.98716   0.00000  Uiso   1.00
O1021  O     0.75325   0.76204   0.87326   0.00000  Uiso   1.00
O1022  O     0.74674   0.90462   0.79341   0.00000  Uiso   1.00
O1023  O     0.74480   0.75226   0.76945   0.00000  Uiso   1.00
O1024  O     0.75520   0.91441   0.89721   0.00000  Uiso   1.00
O1025  O     0.68935   0.83821   0.88524   0.00000  Uiso   1.00
O1026  O     0.81064   0.82845   0.78143   0.00000  Uiso   1.00
O1027  O     0.68090   0.82843   0.78143   0.00000  Uiso   1.00
O1028  O     0.81910   0.83824   0.88523   0.00000  Uiso   1.00
C1029  C     0.87553   0.73413   0.77133   0.00000  Uiso   1.00
H1030  H     0.88597   0.70168   0.79313   0.00000  Uiso   1.00
H1031  H     0.83932   0.73707   0.77637   0.00000  Uiso   1.00
H1032  H     0.88003   0.72315   0.72123   0.00000  Uiso   1.00
C1033  C     0.62447   0.93254   0.89536   0.00000  Uiso   1.00
H1034  H     0.61414   0.96496   0.87343   0.00000  Uiso   1.00
H1035  H     0.61985   0.94361   0.94543   0.00000  Uiso   1.00
H1036  H     0.66070   0.92956   0.89053   0.00000  Uiso   1.00
C1037  C     0.54040   0.69199   0.74372   0.00000  Uiso   1.00
H1038  H     0.51511   0.99268   0.72288   0.00000  Uiso   1.00
H1039  H     0.56018   0.69996   0.70622   0.00000  Uiso   1.00
H1040  H     0.56246   0.67802   0.77800   0.00000  Uiso   1.00
C1041  C     0.95959   0.97473   0.92279   0.00000  Uiso   1.00
H1042  H     0.98488   0.67406   0.94358   0.00000  Uiso   1.00
H1043  H     0.93751   0.98867   0.88850   0.00000  Uiso   1.00
H1044  H     0.93983   0.96679   0.96032   0.00000  Uiso   1.00
loop_
_geom_bond_atom_site_label_1
_geom_bond_atom_site_label_2
_geom_bond_distance
_geom_bond_site_symmetry_2
_ccdc_geom_bond_type
C1     C5      1.424   .     S
C1     O37     1.284   .     A
C1     O35     1.292   .     A
C2     O38     1.284   .     A
C2     O36     1.292   .     A
C2     C6      1.424   .     S
C3     C20     1.414   .     A
C3     C51     1.513   .     S
C3     C79     1.394   1_455 S
C4     C55     1.513   .     S
C4     C19     1.414   .     A
C4     C80     1.394   .     S
C5     C238    1.326   1_545 S
C5     H261    1.088   1_545 S
C6     C121    1.326   .     S
C6     H146    1.088   .     S
C7     C12     1.447   .     S
C7     O39     1.294   .     A
C7     O41     1.291   .     A
C8     C11     1.447   .     S
C8     O42     1.291   .     A
C8     O40     1.294   .     A
C9     H25     1.083   .     S
C9     C11     1.390   .     A
C9     C19     1.394   .     A
C10    H26     1.083   .     S
C10    C12     1.390   .     A
C10    C20     1.394   .     A
C11    C13     1.410   .     A
C12    C14     1.410   .     A
C13    C15     1.415   .     A
C13    C43     1.521   .     S
C14    C47     1.521   .     S
C14    C16     1.415   .     A
C15    C21     1.407   .     A
C15    C17     1.422   .     A
C16    C18     1.422   .     A
C16    C22     1.407   .     A
C17    C19     1.417   .     A
C17    C76     1.411   .     S
C18    C20     1.417   .     A
C18    C75     1.411   1_455 S
C21    H27     1.081   .     S
C21    C61     1.394   .     S
C22    H28     1.081   .     S
C22    C62     1.394   1_455 S
Cu23   O38     1.946   .     S
Cu23   O35     1.951   .     S
Cu23   Cu24    2.689   .     S
Cu23   O42     1.952   .     S
Cu23   O39     1.967   .     S
Cu23   N34     2.020   .     S
Cu24   N33     2.020   .     S
Cu24   O37     1.946   .     S
Cu24   O41     1.952   .     S
Cu24   O36     1.951   .     S
Cu24   O40     1.967   .     S
H29    C121    1.088   .     S
H30    C238    1.088   1_545 S
H31    N381    1.029   .     S
H32    N730    1.029   1_554 S
N33    H727    1.029   1_554 S
N33    N730    1.294   1_554 S
N34    N381    1.294   .     S
N34    H380    1.029   .     S
C43    H44     1.111   .     S
C43    H46     1.110   .     S
C43    H45     1.105   .     S
C47    H48     1.111   .     S
C47    H49     1.110   .     S
C47    H50     1.105   .     S
C51    H54     1.111   .     S
C51    H53     1.110   .     S
C51    H284    1.111   1_545 S
H52    C167    1.111   .     S
C55    H57     1.111   .     S
C55    H58     1.110   .     S
C55    H172    1.111   .     S
H56    C287    1.111   1_545 S
C59    C63     1.424   .     S
C59    O95     1.284   .     A
C59    O93     1.292   .     A
C60    O96     1.284   .     A
C60    O94     1.292   .     A
C60    C64     1.424   .     S
C61    C78     1.414   .     A
C61    C109    1.513   .     S
C62    C113    1.513   .     S
C62    C77     1.414   .     A
C62    C22     1.394   1_655 S
C63    C296    1.326   1_545 S
C63    H319    1.088   1_545 S
C64    C179    1.326   .     S
C64    H204    1.088   .     S
C65    C70     1.447   .     S
C65    O97     1.294   .     A
C65    O99     1.291   .     A
C66    C69     1.447   .     S
C66    O100    1.291   .     A
C66    O98     1.294   .     A
C67    H83     1.083   .     S
C67    C69     1.390   .     A
C67    C77     1.394   .     A
C68    H84     1.083   .     S
C68    C70     1.390   .     A
C68    C78     1.394   .     A
C69    C71     1.410   .     A
C70    C72     1.410   .     A
C71    C73     1.415   .     A
C71    C101    1.521   .     S
C72    C105    1.521   .     S
C72    C74     1.415   .     A
C73    C79     1.407   .     A
C73    C75     1.422   .     A
C74    C76     1.422   .     A
C74    C80     1.407   .     A
C75    C77     1.417   .     A
C75    C18     1.411   1_655 S
C76    C78     1.417   .     A
C79    H85     1.081   .     S
C79    C3      1.394   1_655 S
C80    H86     1.081   .     S
Cu81   O96     1.946   .     S
Cu81   O93     1.951   .     S
Cu81   Cu82    2.689   .     S
Cu81   O100    1.952   .     S
Cu81   O97     1.967   .     S
Cu81   N92     2.020   .     S
Cu82   N91     2.020   .     S
Cu82   O95     1.946   .     S
Cu82   O99     1.952   .     S
Cu82   O94     1.951   .     S
Cu82   O98     1.967   .     S
H87    C179    1.088   .     S
H88    C296    1.088   1_545 S
H89    N439    1.029   .     S
H90    N788    1.029   1_554 S
N91    H785    1.029   1_554 S
N91    N788    1.294   1_554 S
N92    N439    1.294   .     S
N92    H438    1.029   .     S
C101   H102    1.111   .     S
C101   H104    1.110   .     S
C101   H103    1.105   .     S
C105   H106    1.111   .     S
C105   H107    1.110   .     S
C105   H108    1.105   .     S
C109   H112    1.111   .     S
C109   H111    1.110   .     S
C109   H342    1.111   1_545 S
H110   C225    1.111   .     S
C113   H115    1.111   .     S
C113   H116    1.110   .     S
C113   H230    1.111   .     S
H114   C345    1.111   1_545 S
C117   C121    1.424   .     S
C117   O153    1.284   .     A
C117   O151    1.292   .     A
C118   O154    1.284   .     A
C118   O152    1.292   .     A
C118   C122    1.424   .     S
C119   C136    1.414   .     A
C119   C167    1.513   .     S
C119   C195    1.394   1_455 S
C120   C171    1.513   .     S
C120   C135    1.414   .     A
C120   C196    1.394   .     S
C122   C237    1.326   .     S
C122   H262    1.088   .     S
C123   C128    1.447   .     S
C123   O155    1.294   .     A
C123   O157    1.291   .     A
C124   C127    1.447   .     S
C124   O158    1.291   .     A
C124   O156    1.294   .     A
C125   H141    1.083   .     S
C125   C127    1.390   .     A
C125   C135    1.394   .     A
C126   H142    1.083   .     S
C126   C128    1.390   .     A
C126   C136    1.394   .     A
C127   C129    1.410   .     A
C128   C130    1.410   .     A
C129   C131    1.415   .     A
C129   C159    1.521   .     S
C130   C163    1.521   .     S
C130   C132    1.415   .     A
C131   C137    1.407   .     A
C131   C133    1.422   .     A
C132   C134    1.422   .     A
C132   C138    1.407   .     A
C133   C135    1.417   .     A
C133   C192    1.411   .     S
C134   C136    1.417   .     A
C134   C191    1.411   1_455 S
C137   H143    1.081   .     S
C137   C177    1.394   .     S
C138   H144    1.081   .     S
C138   C178    1.394   1_455 S
Cu139  O154    1.946   .     S
Cu139  O151    1.951   .     S
Cu139  Cu140   2.689   .     S
Cu139  O158    1.952   .     S
Cu139  O155    1.967   .     S
Cu139  N150    2.020   .     S
Cu140  N149    2.020   .     S
Cu140  O153    1.946   .     S
Cu140  O157    1.952   .     S
Cu140  O152    1.951   .     S
Cu140  O156    1.967   .     S
H145   C237    1.088   .     S
H147   N497    1.029   .     S
H148   N846    1.029   1_554 S
N149   H843    1.029   1_554 S
N149   N846    1.294   1_554 S
N150   N497    1.294   .     S
N150   H496    1.029   .     S
C159   H160    1.111   .     S
C159   H162    1.110   .     S
C159   H161    1.105   .     S
C163   H164    1.111   .     S
C163   H165    1.110   .     S
C163   H166    1.105   .     S
C167   H170    1.111   .     S
C167   H169    1.110   .     S
H168   C283    1.111   .     S
C171   H173    1.111   .     S
C171   H174    1.110   .     S
C171   H288    1.111   .     S
C175   C179    1.424   .     S
C175   O211    1.284   .     A
C175   O209    1.292   .     A
C176   O212    1.284   .     A
C176   O210    1.292   .     A
C176   C180    1.424   .     S
C177   C194    1.414   .     A
C177   C225    1.513   .     S
C178   C229    1.513   .     S
C178   C193    1.414   .     A
C178   C138    1.394   1_655 S
C180   C295    1.326   .     S
C180   H320    1.088   .     S
C181   C186    1.447   .     S
C181   O213    1.294   .     A
C181   O215    1.291   .     A
C182   C185    1.447   .     S
C182   O216    1.291   .     A
C182   O214    1.294   .     A
C183   H199    1.083   .     S
C183   C185    1.390   .     A
C183   C193    1.394   .     A
C184   H200    1.083   .     S
C184   C186    1.390   .     A
C184   C194    1.394   .     A
C185   C187    1.410   .     A
C186   C188    1.410   .     A
C187   C189    1.415   .     A
C187   C217    1.521   .     S
C188   C221    1.521   .     S
C188   C190    1.415   .     A
C189   C195    1.407   .     A
C189   C191    1.422   .     A
C190   C192    1.422   .     A
C190   C196    1.407   .     A
C191   C193    1.417   .     A
C191   C134    1.411   1_655 S
C192   C194    1.417   .     A
C195   H201    1.081   .     S
C195   C119    1.394   1_655 S
C196   H202    1.081   .     S
Cu197  O212    1.946   .     S
Cu197  O209    1.951   .     S
Cu197  Cu198   2.689   .     S
Cu197  O216    1.952   .     S
Cu197  O213    1.967   .     S
Cu197  N208    2.020   .     S
Cu198  N207    2.020   .     S
Cu198  O211    1.946   .     S
Cu198  O215    1.952   .     S
Cu198  O210    1.951   .     S
Cu198  O214    1.967   .     S
H203   C295    1.088   .     S
H205   N555    1.029   .     S
H206   N904    1.029   1_554 S
N207   H901    1.029   1_554 S
N207   N904    1.294   1_554 S
N208   N555    1.294   .     S
N208   H554    1.029   .     S
C217   H218    1.111   .     S
C217   H220    1.110   .     S
C217   H219    1.105   .     S
C221   H222    1.111   .     S
C221   H223    1.110   .     S
C221   H224    1.105   .     S
C225   H228    1.111   .     S
C225   H227    1.110   .     S
H226   C341    1.111   .     S
C229   H231    1.111   .     S
C229   H232    1.110   .     S
C229   H346    1.111   .     S
C233   C237    1.424   .     S
C233   O269    1.284   .     A
C233   O267    1.292   .     A
C234   O270    1.284   .     A
C234   O268    1.292   .     A
C234   C238    1.424   .     S
C235   C252    1.414   .     A
C235   C283    1.513   .     S
C235   C311    1.394   1_455 S
C236   C287    1.513   .     S
C236   C251    1.414   .     A
C236   C312    1.394   .     S
C238   C5      1.326   1_565 S
C238   H30     1.088   1_565 S
C239   C244    1.447   .     S
C239   O271    1.294   .     A
C239   O273    1.291   .     A
C240   C243    1.447   .     S
C240   O274    1.291   .     A
C240   O272    1.294   .     A
C241   H257    1.083   .     S
C241   C243    1.390   .     A
C241   C251    1.394   .     A
C242   H258    1.083   .     S
C242   C244    1.390   .     A
C242   C252    1.394   .     A
C243   C245    1.410   .     A
C244   C246    1.410   .     A
C245   C247    1.415   .     A
C245   C275    1.521   .     S
C246   C279    1.521   .     S
C246   C248    1.415   .     A
C247   C253    1.407   .     A
C247   C249    1.422   .     A
C248   C250    1.422   .     A
C248   C254    1.407   .     A
C249   C251    1.417   .     A
C249   C308    1.411   .     S
C250   C252    1.417   .     A
C250   C307    1.411   1_455 S
C253   H259    1.081   .     S
C253   C293    1.394   .     S
C254   H260    1.081   .     S
C254   C294    1.394   1_455 S
Cu255  O270    1.946   .     S
Cu255  O267    1.951   .     S
Cu255  Cu256   2.689   .     S
Cu255  O274    1.952   .     S
Cu255  O271    1.967   .     S
Cu255  N266    2.020   .     S
Cu256  N265    2.020   .     S
Cu256  O269    1.946   .     S
Cu256  O273    1.952   .     S
Cu256  O268    1.951   .     S
Cu256  O272    1.967   .     S
H261   C5      1.088   1_565 S
H263   N613    1.029   .     S
H264   N962    1.029   1_554 S
N265   H959    1.029   1_554 S
N265   N962    1.294   1_554 S
N266   N613    1.294   .     S
N266   H612    1.029   .     S
C275   H276    1.111   .     S
C275   H278    1.110   .     S
C275   H277    1.105   .     S
C279   H280    1.111   .     S
C279   H281    1.110   .     S
C279   H282    1.105   .     S
C283   H286    1.111   .     S
C283   H285    1.110   .     S
H284   C51     1.111   1_565 S
C287   H289    1.111   .     S
C287   H290    1.110   .     S
C287   H56     1.111   1_565 S
C291   C295    1.424   .     S
C291   O327    1.284   .     A
C291   O325    1.292   .     A
C292   O328    1.284   .     A
C292   O326    1.292   .     A
C292   C296    1.424   .     S
C293   C310    1.414   .     A
C293   C341    1.513   .     S
C294   C345    1.513   .     S
C294   C309    1.414   .     A
C294   C254    1.394   1_655 S
C296   C63     1.326   1_565 S
C296   H88     1.088   1_565 S
C297   C302    1.447   .     S
C297   O329    1.294   .     A
C297   O331    1.291   .     A
C298   C301    1.447   .     S
C298   O332    1.291   .     A
C298   O330    1.294   .     A
C299   H315    1.083   .     S
C299   C301    1.390   .     A
C299   C309    1.394   .     A
C300   H316    1.083   .     S
C300   C302    1.390   .     A
C300   C310    1.394   .     A
C301   C303    1.410   .     A
C302   C304    1.410   .     A
C303   C305    1.415   .     A
C303   C333    1.521   .     S
C304   C337    1.521   .     S
C304   C306    1.415   .     A
C305   C311    1.407   .     A
C305   C307    1.422   .     A
C306   C308    1.422   .     A
C306   C312    1.407   .     A
C307   C309    1.417   .     A
C307   C250    1.411   1_655 S
C308   C310    1.417   .     A
C311   H317    1.081   .     S
C311   C235    1.394   1_655 S
C312   H318    1.081   .     S
Cu313  O328    1.946   .     S
Cu313  O325    1.951   .     S
Cu313  Cu314   2.689   .     S
Cu313  O332    1.952   .     S
Cu313  O329    1.967   .     S
Cu313  N324    2.020   .     S
Cu314  N323    2.020   .     S
Cu314  O327    1.946   .     S
Cu314  O331    1.952   .     S
Cu314  O326    1.951   .     S
Cu314  O330    1.967   .     S
H319   C63     1.088   1_565 S
H321   N671    1.029   .     S
H322   N1020   1.029   1_554 S
N323   H1017   1.029   1_554 S
N323   N1020   1.294   1_554 S
N324   N671    1.294   .     S
N324   H670    1.029   .     S
C333   H334    1.111   .     S
C333   H336    1.110   .     S
C333   H335    1.105   .     S
C337   H338    1.111   .     S
C337   H339    1.110   .     S
C337   H340    1.105   .     S
C341   H344    1.111   .     S
C341   H343    1.110   .     S
H342   C109    1.111   1_565 S
C345   H347    1.111   .     S
C345   H348    1.110   .     S
C345   H114    1.111   1_565 S
C349   C353    1.424   .     S
C349   O385    1.284   .     A
C349   O383    1.292   .     A
C350   O386    1.284   .     A
C350   O384    1.292   .     A
C350   C354    1.424   .     S
C351   C368    1.414   .     A
C351   C399    1.513   .     S
C351   C427    1.394   1_455 S
C352   C403    1.513   .     S
C352   C367    1.414   .     A
C352   C428    1.394   .     S
C353   C586    1.326   1_545 S
C353   H609    1.088   1_545 S
C354   C469    1.326   .     S
C354   H494    1.088   .     S
C355   C360    1.447   .     S
C355   O387    1.294   .     A
C355   O389    1.291   .     A
C356   C359    1.447   .     S
C356   O390    1.291   .     A
C356   O388    1.294   .     A
C357   H373    1.083   .     S
C357   C359    1.390   .     A
C357   C367    1.394   .     A
C358   H374    1.083   .     S
C358   C360    1.390   .     A
C358   C368    1.394   .     A
C359   C361    1.410   .     A
C360   C362    1.410   .     A
C361   C363    1.415   .     A
C361   C391    1.521   .     S
C362   C395    1.521   .     S
C362   C364    1.415   .     A
C363   C369    1.407   .     A
C363   C365    1.422   .     A
C364   C366    1.422   .     A
C364   C370    1.407   .     A
C365   C367    1.417   .     A
C365   C424    1.411   .     S
C366   C368    1.417   .     A
C366   C423    1.411   1_455 S
C369   H375    1.081   .     S
C369   C409    1.394   .     S
C370   H376    1.081   .     S
C370   C410    1.394   1_455 S
Cu371  O386    1.946   .     S
Cu371  O383    1.951   .     S
Cu371  Cu372   2.689   .     S
Cu371  O390    1.952   .     S
Cu371  O387    1.967   .     S
Cu371  N382    2.020   .     S
Cu372  N381    2.020   .     S
Cu372  O385    1.946   .     S
Cu372  O389    1.952   .     S
Cu372  O384    1.951   .     S
Cu372  O388    1.967   .     S
H377   C469    1.088   .     S
H378   C586    1.088   1_545 S
H379   N729    1.029   .     S
N382   N729    1.294   .     S
N382   H728    1.029   .     S
C391   H392    1.111   .     S
C391   H394    1.110   .     S
C391   H393    1.105   .     S
C395   H396    1.111   .     S
C395   H397    1.110   .     S
C395   H398    1.105   .     S
C399   H402    1.111   .     S
C399   H401    1.110   .     S
C399   H632    1.111   1_545 S
H400   C515    1.111   .     S
C403   H405    1.111   .     S
C403   H406    1.110   .     S
C403   H520    1.111   .     S
H404   C635    1.111   1_545 S
C407   C411    1.424   .     S
C407   O443    1.284   .     A
C407   O441    1.292   .     A
C408   O444    1.284   .     A
C408   O442    1.292   .     A
C408   C412    1.424   .     S
C409   C426    1.414   .     A
C409   C457    1.513   .     S
C410   C461    1.513   .     S
C410   C425    1.414   .     A
C410   C370    1.394   1_655 S
C411   C644    1.326   1_545 S
C411   H667    1.088   1_545 S
C412   C527    1.326   .     S
C412   H552    1.088   .     S
C413   C418    1.447   .     S
C413   O445    1.294   .     A
C413   O447    1.291   .     A
C414   C417    1.447   .     S
C414   O448    1.291   .     A
C414   O446    1.294   .     A
C415   H431    1.083   .     S
C415   C417    1.390   .     A
C415   C425    1.394   .     A
C416   H432    1.083   .     S
C416   C418    1.390   .     A
C416   C426    1.394   .     A
C417   C419    1.410   .     A
C418   C420    1.410   .     A
C419   C421    1.415   .     A
C419   C449    1.521   .     S
C420   C453    1.521   .     S
C420   C422    1.415   .     A
C421   C427    1.407   .     A
C421   C423    1.422   .     A
C422   C424    1.422   .     A
C422   C428    1.407   .     A
C423   C425    1.417   .     A
C423   C366    1.411   1_655 S
C424   C426    1.417   .     A
C427   H433    1.081   .     S
C427   C351    1.394   1_655 S
C428   H434    1.081   .     S
Cu429  O444    1.946   .     S
Cu429  O441    1.951   .     S
Cu429  Cu430   2.689   .     S
Cu429  O448    1.952   .     S
Cu429  O445    1.967   .     S
Cu429  N440    2.020   .     S
Cu430  N439    2.020   .     S
Cu430  O443    1.946   .     S
Cu430  O447    1.952   .     S
Cu430  O442    1.951   .     S
Cu430  O446    1.967   .     S
H435   C527    1.088   .     S
H436   C644    1.088   1_545 S
H437   N787    1.029   .     S
N440   N787    1.294   .     S
N440   H786    1.029   .     S
C449   H450    1.111   .     S
C449   H452    1.110   .     S
C449   H451    1.105   .     S
C453   H454    1.111   .     S
C453   H455    1.110   .     S
C453   H456    1.105   .     S
C457   H460    1.111   .     S
C457   H459    1.110   .     S
C457   H690    1.111   1_545 S
H458   C573    1.111   .     S
C461   H463    1.111   .     S
C461   H464    1.110   .     S
C461   H578    1.111   .     S
H462   C693    1.111   1_545 S
C465   C469    1.424   .     S
C465   O501    1.284   .     A
C465   O499    1.292   .     A
C466   O502    1.284   .     A
C466   O500    1.292   .     A
C466   C470    1.424   .     S
C467   C484    1.414   .     A
C467   C515    1.513   .     S
C467   C543    1.394   1_455 S
C468   C519    1.513   .     S
C468   C483    1.414   .     A
C468   C544    1.394   .     S
C470   C585    1.326   .     S
C470   H610    1.088   .     S
C471   C476    1.447   .     S
C471   O503    1.294   .     A
C471   O505    1.291   .     A
C472   C475    1.447   .     S
C472   O506    1.291   .     A
C472   O504    1.294   .     A
C473   H489    1.083   .     S
C473   C475    1.390   .     A
C473   C483    1.394   .     A
C474   H490    1.083   .     S
C474   C476    1.390   .     A
C474   C484    1.394   .     A
C475   C477    1.410   .     A
C476   C478    1.410   .     A
C477   C479    1.415   .     A
C477   C507    1.521   .     S
C478   C511    1.521   .     S
C478   C480    1.415   .     A
C479   C485    1.407   .     A
C479   C481    1.422   .     A
C480   C482    1.422   .     A
C480   C486    1.407   .     A
C481   C483    1.417   .     A
C481   C540    1.411   .     S
C482   C484    1.417   .     A
C482   C539    1.411   1_455 S
C485   H491    1.081   .     S
C485   C525    1.394   .     S
C486   H492    1.081   .     S
C486   C526    1.394   1_455 S
Cu487  O502    1.946   .     S
Cu487  O499    1.951   .     S
Cu487  Cu488   2.689   .     S
Cu487  O506    1.952   .     S
Cu487  O503    1.967   .     S
Cu487  N498    2.020   .     S
Cu488  N497    2.020   .     S
Cu488  O501    1.946   .     S
Cu488  O505    1.952   .     S
Cu488  O500    1.951   .     S
Cu488  O504    1.967   .     S
H493   C585    1.088   .     S
H495   N845    1.029   .     S
N498   N845    1.294   .     S
N498   H844    1.029   .     S
C507   H508    1.111   .     S
C507   H510    1.110   .     S
C507   H509    1.105   .     S
C511   H512    1.111   .     S
C511   H513    1.110   .     S
C511   H514    1.105   .     S
C515   H518    1.111   .     S
C515   H517    1.110   .     S
H516   C631    1.111   .     S
C519   H521    1.111   .     S
C519   H522    1.110   .     S
C519   H636    1.111   .     S
C523   C527    1.424   .     S
C523   O559    1.284   .     A
C523   O557    1.292   .     A
C524   O560    1.284   .     A
C524   O558    1.292   .     A
C524   C528    1.424   .     S
C525   C542    1.414   .     A
C525   C573    1.513   .     S
C526   C577    1.513   .     S
C526   C541    1.414   .     A
C526   C486    1.394   1_655 S
C528   C643    1.326   .     S
C528   H668    1.088   .     S
C529   C534    1.447   .     S
C529   O561    1.294   .     A
C529   O563    1.291   .     A
C530   C533    1.447   .     S
C530   O564    1.291   .     A
C530   O562    1.294   .     A
C531   H547    1.083   .     S
C531   C533    1.390   .     A
C531   C541    1.394   .     A
C532   H548    1.083   .     S
C532   C534    1.390   .     A
C532   C542    1.394   .     A
C533   C535    1.410   .     A
C534   C536    1.410   .     A
C535   C537    1.415   .     A
C535   C565    1.521   .     S
C536   C569    1.521   .     S
C536   C538    1.415   .     A
C537   C543    1.407   .     A
C537   C539    1.422   .     A
C538   C540    1.422   .     A
C538   C544    1.407   .     A
C539   C541    1.417   .     A
C539   C482    1.411   1_655 S
C540   C542    1.417   .     A
C543   H549    1.081   .     S
C543   C467    1.394   1_655 S
C544   H550    1.081   .     S
Cu545  O560    1.946   .     S
Cu545  O557    1.951   .     S
Cu545  Cu546   2.689   .     S
Cu545  O564    1.952   .     S
Cu545  O561    1.967   .     S
Cu545  N556    2.020   .     S
Cu546  N555    2.020   .     S
Cu546  O559    1.946   .     S
Cu546  O563    1.952   .     S
Cu546  O558    1.951   .     S
Cu546  O562    1.967   .     S
H551   C643    1.088   .     S
H553   N903    1.029   .     S
N556   N903    1.294   .     S
N556   H902    1.029   .     S
C565   H566    1.111   .     S
C565   H568    1.110   .     S
C565   H567    1.105   .     S
C569   H570    1.111   .     S
C569   H571    1.110   .     S
C569   H572    1.105   .     S
C573   H576    1.111   .     S
C573   H575    1.110   .     S
H574   C689    1.111   .     S
C577   H579    1.111   .     S
C577   H580    1.110   .     S
C577   H694    1.111   .     S
C581   C585    1.424   .     S
C581   O617    1.284   .     A
C581   O615    1.292   .     A
C582   O618    1.284   .     A
C582   O616    1.292   .     A
C582   C586    1.424   .     S
C583   C600    1.414   .     A
C583   C631    1.513   .     S
C583   C659    1.394   1_455 S
C584   C635    1.513   .     S
C584   C599    1.414   .     A
C584   C660    1.394   .     S
C586   C353    1.326   1_565 S
C586   H378    1.088   1_565 S
C587   C592    1.447   .     S
C587   O619    1.294   .     A
C587   O621    1.291   .     A
C588   C591    1.447   .     S
C588   O622    1.291   .     A
C588   O620    1.294   .     A
C589   H605    1.083   .     S
C589   C591    1.390   .     A
C589   C599    1.394   .     A
C590   H606    1.083   .     S
C590   C592    1.390   .     A
C590   C600    1.394   .     A
C591   C593    1.410   .     A
C592   C594    1.410   .     A
C593   C595    1.415   .     A
C593   C623    1.521   .     S
C594   C627    1.521   .     S
C594   C596    1.415   .     A
C595   C601    1.407   .     A
C595   C597    1.422   .     A
C596   C598    1.422   .     A
C596   C602    1.407   .     A
C597   C599    1.417   .     A
C597   C656    1.411   .     S
C598   C600    1.417   .     A
C598   C655    1.411   1_455 S
C601   H607    1.081   .     S
C601   C641    1.394   .     S
C602   H608    1.081   .     S
C602   C642    1.394   1_455 S
Cu603  O618    1.946   .     S
Cu603  O615    1.951   .     S
Cu603  Cu604   2.689   .     S
Cu603  O622    1.952   .     S
Cu603  O619    1.967   .     S
Cu603  N614    2.020   .     S
Cu604  N613    2.020   .     S
Cu604  O617    1.946   .     S
Cu604  O621    1.952   .     S
Cu604  O616    1.951   .     S
Cu604  O620    1.967   .     S
H609   C353    1.088   1_565 S
H611   N961    1.029   .     S
N614   N961    1.294   .     S
N614   H960    1.029   .     S
C623   H624    1.111   .     S
C623   H626    1.110   .     S
C623   H625    1.105   .     S
C627   H628    1.111   .     S
C627   H629    1.110   .     S
C627   H630    1.105   .     S
C631   H634    1.111   .     S
C631   H633    1.110   .     S
H632   C399    1.111   1_565 S
C635   H637    1.111   .     S
C635   H638    1.110   .     S
C635   H404    1.111   1_565 S
C639   C643    1.424   .     S
C639   O675    1.284   .     A
C639   O673    1.292   .     A
C640   O676    1.284   .     A
C640   O674    1.292   .     A
C640   C644    1.424   .     S
C641   C658    1.414   .     A
C641   C689    1.513   .     S
C642   C693    1.513   .     S
C642   C657    1.414   .     A
C642   C602    1.394   1_655 S
C644   C411    1.326   1_565 S
C644   H436    1.088   1_565 S
C645   C650    1.447   .     S
C645   O677    1.294   .     A
C645   O679    1.291   .     A
C646   C649    1.447   .     S
C646   O680    1.291   .     A
C646   O678    1.294   .     A
C647   H663    1.083   .     S
C647   C649    1.390   .     A
C647   C657    1.394   .     A
C648   H664    1.083   .     S
C648   C650    1.390   .     A
C648   C658    1.394   .     A
C649   C651    1.410   .     A
C650   C652    1.410   .     A
C651   C653    1.415   .     A
C651   C681    1.521   .     S
C652   C685    1.521   .     S
C652   C654    1.415   .     A
C653   C659    1.407   .     A
C653   C655    1.422   .     A
C654   C656    1.422   .     A
C654   C660    1.407   .     A
C655   C657    1.417   .     A
C655   C598    1.411   1_655 S
C656   C658    1.417   .     A
C659   H665    1.081   .     S
C659   C583    1.394   1_655 S
C660   H666    1.081   .     S
Cu661  O676    1.946   .     S
Cu661  O673    1.951   .     S
Cu661  Cu662   2.689   .     S
Cu661  O680    1.952   .     S
Cu661  O677    1.967   .     S
Cu661  N672    2.020   .     S
Cu662  N671    2.020   .     S
Cu662  O675    1.946   .     S
Cu662  O679    1.952   .     S
Cu662  O674    1.951   .     S
Cu662  O678    1.967   .     S
H667   C411    1.088   1_565 S
H669   N1019   1.029   .     S
N672   N1019   1.294   .     S
N672   H1018   1.029   .     S
C681   H682    1.111   .     S
C681   H684    1.110   .     S
C681   H683    1.105   .     S
C685   H686    1.111   .     S
C685   H687    1.110   .     S
C685   H688    1.105   .     S
C689   H692    1.111   .     S
C689   H691    1.110   .     S
H690   C457    1.111   1_565 S
C693   H695    1.111   .     S
C693   H696    1.110   .     S
C693   H462    1.111   1_565 S
C697   C701    1.424   .     S
C697   O733    1.284   .     A
C697   O731    1.292   .     A
C698   O734    1.284   .     A
C698   O732    1.292   .     A
C698   C702    1.424   .     S
C699   C716    1.414   .     A
C699   C747    1.513   .     S
C699   C775    1.394   1_455 S
C700   C751    1.513   .     S
C700   C715    1.414   .     A
C700   C776    1.394   .     S
C701   C934    1.326   1_545 S
C701   H957    1.088   1_545 S
C702   C817    1.326   .     S
C702   H842    1.088   .     S
C703   C708    1.447   .     S
C703   O735    1.294   .     A
C703   O737    1.291   .     A
C704   C707    1.447   .     S
C704   O738    1.291   .     A
C704   O736    1.294   .     A
C705   H721    1.083   .     S
C705   C707    1.390   .     A
C705   C715    1.394   .     A
C706   H722    1.083   .     S
C706   C708    1.390   .     A
C706   C716    1.394   .     A
C707   C709    1.410   .     A
C708   C710    1.410   .     A
C709   C711    1.415   .     A
C709   C739    1.521   .     S
C710   C743    1.521   .     S
C710   C712    1.415   .     A
C711   C717    1.407   .     A
C711   C713    1.422   .     A
C712   C714    1.422   .     A
C712   C718    1.407   .     A
C713   C715    1.417   .     A
C713   C772    1.411   .     S
C714   C716    1.417   .     A
C714   C771    1.411   1_455 S
C717   H723    1.081   .     S
C717   C757    1.394   .     S
C718   H724    1.081   .     S
C718   C758    1.394   1_455 S
Cu719  O734    1.946   .     S
Cu719  O731    1.951   .     S
Cu719  Cu720   2.689   .     S
Cu719  O738    1.952   .     S
Cu719  O735    1.967   .     S
Cu719  N730    2.020   .     S
Cu720  N729    2.020   .     S
Cu720  O733    1.946   .     S
Cu720  O737    1.952   .     S
Cu720  O732    1.951   .     S
Cu720  O736    1.967   .     S
H725   C817    1.088   .     S
H726   C934    1.088   1_545 S
H727   N33     1.029   1_556 S
N730   N33     1.294   1_556 S
N730   H32     1.029   1_556 S
C739   H740    1.111   .     S
C739   H742    1.110   .     S
C739   H741    1.105   .     S
C743   H744    1.111   .     S
C743   H745    1.110   .     S
C743   H746    1.105   .     S
C747   H750    1.111   .     S
C747   H749    1.110   .     S
C747   H980    1.111   1_545 S
H748   C863    1.111   .     S
C751   H753    1.111   .     S
C751   H754    1.110   .     S
C751   H868    1.111   .     S
H752   C983    1.111   1_545 S
C755   C759    1.424   .     S
C755   O791    1.284   .     A
C755   O789    1.292   .     A
C756   O792    1.284   .     A
C756   O790    1.292   .     A
C756   C760    1.424   .     S
C757   C774    1.414   .     A
C757   C805    1.513   .     S
C758   C809    1.513   .     S
C758   C773    1.414   .     A
C758   C718    1.394   1_655 S
C759   C992    1.326   1_545 S
C759   H1015   1.088   1_545 S
C760   C875    1.326   .     S
C760   H900    1.088   .     S
C761   C766    1.447   .     S
C761   O793    1.294   .     A
C761   O795    1.291   .     A
C762   C765    1.447   .     S
C762   O796    1.291   .     A
C762   O794    1.294   .     A
C763   H779    1.083   .     S
C763   C765    1.390   .     A
C763   C773    1.394   .     A
C764   H780    1.083   .     S
C764   C766    1.390   .     A
C764   C774    1.394   .     A
C765   C767    1.410   .     A
C766   C768    1.410   .     A
C767   C769    1.415   .     A
C767   C797    1.521   .     S
C768   C801    1.521   .     S
C768   C770    1.415   .     A
C769   C775    1.407   .     A
C769   C771    1.422   .     A
C770   C772    1.422   .     A
C770   C776    1.407   .     A
C771   C773    1.417   .     A
C771   C714    1.411   1_655 S
C772   C774    1.417   .     A
C775   H781    1.081   .     S
C775   C699    1.394   1_655 S
C776   H782    1.081   .     S
Cu777  O792    1.946   .     S
Cu777  O789    1.951   .     S
Cu777  Cu778   2.689   .     S
Cu777  O796    1.952   .     S
Cu777  O793    1.967   .     S
Cu777  N788    2.020   .     S
Cu778  N787    2.020   .     S
Cu778  O791    1.946   .     S
Cu778  O795    1.952   .     S
Cu778  O790    1.951   .     S
Cu778  O794    1.967   .     S
H783   C875    1.088   .     S
H784   C992    1.088   1_545 S
H785   N91     1.029   1_556 S
N788   N91     1.294   1_556 S
N788   H90     1.029   1_556 S
C797   H798    1.111   .     S
C797   H800    1.110   .     S
C797   H799    1.105   .     S
C801   H802    1.111   .     S
C801   H803    1.110   .     S
C801   H804    1.105   .     S
C805   H808    1.111   .     S
C805   H807    1.110   .     S
C805   H1038   1.111   1_545 S
H806   C921    1.111   .     S
C809   H811    1.111   .     S
C809   H812    1.110   .     S
C809   H926    1.111   .     S
H810   C1041   1.111   1_545 S
C813   C817    1.424   .     S
C813   O849    1.284   .     A
C813   O847    1.292   .     A
C814   O850    1.284   .     A
C814   O848    1.292   .     A
C814   C818    1.424   .     S
C815   C832    1.414   .     A
C815   C863    1.513   .     S
C815   C891    1.394   1_455 S
C816   C867    1.513   .     S
C816   C831    1.414   .     A
C816   C892    1.394   .     S
C818   C933    1.326   .     S
C818   H958    1.088   .     S
C819   C824    1.447   .     S
C819   O851    1.294   .     A
C819   O853    1.291   .     A
C820   C823    1.447   .     S
C820   O854    1.291   .     A
C820   O852    1.294   .     A
C821   H837    1.083   .     S
C821   C823    1.390   .     A
C821   C831    1.394   .     A
C822   H838    1.083   .     S
C822   C824    1.390   .     A
C822   C832    1.394   .     A
C823   C825    1.410   .     A
C824   C826    1.410   .     A
C825   C827    1.415   .     A
C825   C855    1.521   .     S
C826   C859    1.521   .     S
C826   C828    1.415   .     A
C827   C833    1.407   .     A
C827   C829    1.422   .     A
C828   C830    1.422   .     A
C828   C834    1.407   .     A
C829   C831    1.417   .     A
C829   C888    1.411   .     S
C830   C832    1.417   .     A
C830   C887    1.411   1_455 S
C833   H839    1.081   .     S
C833   C873    1.394   .     S
C834   H840    1.081   .     S
C834   C874    1.394   1_455 S
Cu835  O850    1.946   .     S
Cu835  O847    1.951   .     S
Cu835  Cu836   2.689   .     S
Cu835  O854    1.952   .     S
Cu835  O851    1.967   .     S
Cu835  N846    2.020   .     S
Cu836  N845    2.020   .     S
Cu836  O849    1.946   .     S
Cu836  O853    1.952   .     S
Cu836  O848    1.951   .     S
Cu836  O852    1.967   .     S
H841   C933    1.088   .     S
H843   N149    1.029   1_556 S
N846   N149    1.294   1_556 S
N846   H148    1.029   1_556 S
C855   H856    1.111   .     S
C855   H858    1.110   .     S
C855   H857    1.105   .     S
C859   H860    1.111   .     S
C859   H861    1.110   .     S
C859   H862    1.105   .     S
C863   H866    1.111   .     S
C863   H865    1.110   .     S
H864   C979    1.111   .     S
C867   H869    1.111   .     S
C867   H870    1.110   .     S
C867   H984    1.111   .     S
C871   C875    1.424   .     S
C871   O907    1.284   .     A
C871   O905    1.292   .     A
C872   O908    1.284   .     A
C872   O906    1.292   .     A
C872   C876    1.424   .     S
C873   C890    1.414   .     A
C873   C921    1.513   .     S
C874   C925    1.513   .     S
C874   C889    1.414   .     A
C874   C834    1.394   1_655 S
C876   C991    1.326   .     S
C876   H1016   1.088   .     S
C877   C882    1.447   .     S
C877   O909    1.294   .     A
C877   O911    1.291   .     A
C878   C881    1.447   .     S
C878   O912    1.291   .     A
C878   O910    1.294   .     A
C879   H895    1.083   .     S
C879   C881    1.390   .     A
C879   C889    1.394   .     A
C880   H896    1.083   .     S
C880   C882    1.390   .     A
C880   C890    1.394   .     A
C881   C883    1.410   .     A
C882   C884    1.410   .     A
C883   C885    1.415   .     A
C883   C913    1.521   .     S
C884   C917    1.521   .     S
C884   C886    1.415   .     A
C885   C891    1.407   .     A
C885   C887    1.422   .     A
C886   C888    1.422   .     A
C886   C892    1.407   .     A
C887   C889    1.417   .     A
C887   C830    1.411   1_655 S
C888   C890    1.417   .     A
C891   H897    1.081   .     S
C891   C815    1.394   1_655 S
C892   H898    1.081   .     S
Cu893  O908    1.946   .     S
Cu893  O905    1.951   .     S
Cu893  Cu894   2.689   .     S
Cu893  O912    1.952   .     S
Cu893  O909    1.967   .     S
Cu893  N904    2.020   .     S
Cu894  N903    2.020   .     S
Cu894  O907    1.946   .     S
Cu894  O911    1.952   .     S
Cu894  O906    1.951   .     S
Cu894  O910    1.967   .     S
H899   C991    1.088   .     S
H901   N207    1.029   1_556 S
N904   N207    1.294   1_556 S
N904   H206    1.029   1_556 S
C913   H914    1.111   .     S
C913   H916    1.110   .     S
C913   H915    1.105   .     S
C917   H918    1.111   .     S
C917   H919    1.110   .     S
C917   H920    1.105   .     S
C921   H924    1.111   .     S
C921   H923    1.110   .     S
H922   C1037   1.111   .     S
C925   H927    1.111   .     S
C925   H928    1.110   .     S
C925   H1042   1.111   .     S
C929   C933    1.424   .     S
C929   O965    1.284   .     A
C929   O963    1.292   .     A
C930   O966    1.284   .     A
C930   O964    1.292   .     A
C930   C934    1.424   .     S
C931   C948    1.414   .     A
C931   C979    1.513   .     S
C931   C1007   1.394   1_455 S
C932   C983    1.513   .     S
C932   C947    1.414   .     A
C932   C1008   1.394   .     S
C934   C701    1.326   1_565 S
C934   H726    1.088   1_565 S
C935   C940    1.447   .     S
C935   O967    1.294   .     A
C935   O969    1.291   .     A
C936   C939    1.447   .     S
C936   O970    1.291   .     A
C936   O968    1.294   .     A
C937   H953    1.083   .     S
C937   C939    1.390   .     A
C937   C947    1.394   .     A
C938   H954    1.083   .     S
C938   C940    1.390   .     A
C938   C948    1.394   .     A
C939   C941    1.410   .     A
C940   C942    1.410   .     A
C941   C943    1.415   .     A
C941   C971    1.521   .     S
C942   C975    1.521   .     S
C942   C944    1.415   .     A
C943   C949    1.407   .     A
C943   C945    1.422   .     A
C944   C946    1.422   .     A
C944   C950    1.407   .     A
C945   C947    1.417   .     A
C945   C1004   1.411   .     S
C946   C948    1.417   .     A
C946   C1003   1.411   1_455 S
C949   H955    1.081   .     S
C949   C989    1.394   .     S
C950   H956    1.081   .     S
C950   C990    1.394   1_455 S
Cu951  O966    1.946   .     S
Cu951  O963    1.951   .     S
Cu951  Cu952   2.689   .     S
Cu951  O970    1.952   .     S
Cu951  O967    1.967   .     S
Cu951  N962    2.020   .     S
Cu952  N961    2.020   .     S
Cu952  O965    1.946   .     S
Cu952  O969    1.952   .     S
Cu952  O964    1.951   .     S
Cu952  O968    1.967   .     S
H957   C701    1.088   1_565 S
H959   N265    1.029   1_556 S
N962   N265    1.294   1_556 S
N962   H264    1.029   1_556 S
C971   H972    1.111   .     S
C971   H974    1.110   .     S
C971   H973    1.105   .     S
C975   H976    1.111   .     S
C975   H977    1.110   .     S
C975   H978    1.105   .     S
C979   H982    1.111   .     S
C979   H981    1.110   .     S
H980   C747    1.111   1_565 S
C983   H985    1.111   .     S
C983   H986    1.110   .     S
C983   H752    1.111   1_565 S
C987   C991    1.424   .     S
C987   O1023   1.284   .     A
C987   O1021   1.292   .     A
C988   O1024   1.284   .     A
C988   O1022   1.292   .     A
C988   C992    1.424   .     S
C989   C1006   1.414   .     A
C989   C1037   1.513   .     S
C990   C1041   1.513   .     S
C990   C1005   1.414   .     A
C990   C950    1.394   1_655 S
C992   C759    1.326   1_565 S
C992   H784    1.088   1_565 S
C993   C998    1.447   .     S
C993   O1025   1.294   .     A
C993   O1027   1.291   .     A
C994   C997    1.447   .     S
C994   O1028   1.291   .     A
C994   O1026   1.294   .     A
C995   H1011   1.083   .     S
C995   C997    1.390   .     A
C995   C1005   1.394   .     A
C996   H1012   1.083   .     S
C996   C998    1.390   .     A
C996   C1006   1.394   .     A
C997   C999    1.410   .     A
C998   C1000   1.410   .     A
C999   C1001   1.415   .     A
C999   C1029   1.521   .     S
C1000  C1033   1.521   .     S
C1000  C1002   1.415   .     A
C1001  C1007   1.407   .     A
C1001  C1003   1.422   .     A
C1002  C1004   1.422   .     A
C1002  C1008   1.407   .     A
C1003  C1005   1.417   .     A
C1003  C946    1.411   1_655 S
C1004  C1006   1.417   .     A
C1007  H1013   1.081   .     S
C1007  C931    1.394   1_655 S
C1008  H1014   1.081   .     S
Cu1009 O1024   1.946   .     S
Cu1009 O1021   1.951   .     S
Cu1009 Cu1010  2.689   .     S
Cu1009 O1028   1.952   .     S
Cu1009 O1025   1.967   .     S
Cu1009 N1020   2.020   .     S
Cu1010 N1019   2.020   .     S
Cu1010 O1023   1.946   .     S
Cu1010 O1027   1.952   .     S
Cu1010 O1022   1.951   .     S
Cu1010 O1026   1.967   .     S
H1015  C759    1.088   1_565 S
H1017  N323    1.029   1_556 S
N1020  N323    1.294   1_556 S
N1020  H322    1.029   1_556 S
C1029  H1030   1.111   .     S
C1029  H1032   1.110   .     S
C1029  H1031   1.105   .     S
C1033  H1034   1.111   .     S
C1033  H1035   1.110   .     S
C1033  H1036   1.105   .     S
C1037  H1040   1.111   .     S
C1037  H1039   1.110   .     S
H1038  C805    1.111   1_565 S
C1041  H1043   1.111   .     S
C1041  H1044   1.110   .     S
C1041  H810    1.111   1_565 S
