data_str_m2_o1_o10_pcu_sym.206
_audit_creation_date              2020-01-03
_audit_creation_method            'Materials Studio'
_symmetry_space_group_name_H-M    'P1'
_symmetry_Int_Tables_number       1
_symmetry_cell_setting            triclinic
loop_
_symmetry_equiv_pos_as_xyz
  x,y,z
_cell_length_a                    26.1687
_cell_length_b                    32.5703
_cell_length_c                    28.8253
_cell_angle_alpha                 89.9169
_cell_angle_beta                  97.0097
_cell_angle_gamma                 92.1020
loop_
_atom_site_label
_atom_site_type_symbol
_atom_site_fract_x
_atom_site_fract_y
_atom_site_fract_z
_atom_site_U_iso_or_equiv
_atom_site_adp_type
_atom_site_occupancy
O1     O     0.16666   0.10655   0.20625   0.00000  Uiso   1.00
O2     O     0.16667   0.22678   0.12709   0.00000  Uiso   1.00
O3     O     0.16666   0.10654   0.12706   0.00000  Uiso   1.00
O4     O     0.16667   0.22679   0.20628   0.00000  Uiso   1.00
C5     C     0.16740   0.08747   0.16682   0.00000  Uiso   1.00
C6     C     0.16593   0.24586   0.16651   0.00000  Uiso   1.00
O7     O     0.09161   0.16667   0.19712   0.00000  Uiso   1.00
O8     O     0.24172   0.16666   0.13621   0.00000  Uiso   1.00
O9     O     0.09161   0.16666   0.11793   0.00000  Uiso   1.00
O10    O     0.24172   0.16667   0.21540   0.00000  Uiso   1.00
C11    C     0.06821   0.16555   0.15533   0.00000  Uiso   1.00
C12    C     0.26512   0.16779   0.17801   0.00000  Uiso   1.00
Cu13   Cu    0.16667   0.16667   0.21355   0.00000  Uiso   1.00
Cu14   Cu    0.16667   0.16666   0.11978   0.00000  Uiso   1.00
N15    N     0.16668   0.16668   0.28403   0.00000  Uiso   1.00
N16    N     0.16665   0.16666   0.04931   0.00000  Uiso   1.00
C17    C     0.01387   0.15651   0.15229   0.00000  Uiso   1.00
C18    C     0.31946   0.17684   0.18105   0.00000  Uiso   1.00
C19    C     0.15890   0.02136   0.12461   0.00000  Uiso   1.00
C20    C     0.17443   0.31197   0.20872   0.00000  Uiso   1.00
H21    H     0.15311   0.03730   0.09163   0.00000  Uiso   1.00
H22    H     0.18022   0.29604   0.24170   0.00000  Uiso   1.00
C23    C     0.15683   0.31221   0.12407   0.00000  Uiso   1.00
C24    C     0.17650   0.02112   0.20927   0.00000  Uiso   1.00
C25    C     0.16538   0.29051   0.16628   0.00000  Uiso   1.00
C26    C     0.16796   0.04282   0.16705   0.00000  Uiso   1.00
C27    C     0.12946   0.14497   0.02044   0.00000  Uiso   1.00
C28    C     0.20387   0.18836   0.31289   0.00000  Uiso   1.00
C29    C     0.12981   0.14460   0.30444   0.00000  Uiso   1.00
C30    C     0.20352   0.18873   0.02889   0.00000  Uiso   1.00
N31    N     0.32826   0.11851   0.12978   0.00000  Uiso   1.00
O32    O     0.29673   0.11871   0.09125   0.00000  Uiso   1.00
O33    O     0.01729   0.08457   0.14256   0.00000  Uiso   1.00
N34    N     0.00506   0.21485   0.20357   0.00000  Uiso   1.00
O35    O     0.03666   0.21464   0.24205   0.00000  Uiso   1.00
O36    O     0.31591   0.24875   0.19090   0.00000  Uiso   1.00
F37    F     0.14529   0.29273   0.08231   0.00000  Uiso   1.00
F38    F     0.18804   0.04061   0.25103   0.00000  Uiso   1.00
N39    N     0.08842   0.12331   0.03939   0.00000  Uiso   1.00
O40    O     0.04297   0.13879   0.03414   0.00000  Uiso   1.00
O41    O     0.09213   0.08432   0.04805   0.00000  Uiso   1.00
N42    N     0.24491   0.21003   0.29394   0.00000  Uiso   1.00
O43    O     0.29036   0.19456   0.29919   0.00000  Uiso   1.00
O44    O     0.24120   0.24902   0.28530   0.00000  Uiso   1.00
N45    N     0.09197   0.11958   0.27638   0.00000  Uiso   1.00
O46    O     0.04449   0.13087   0.27008   0.00000  Uiso   1.00
O47    O     0.10112   0.08121   0.26985   0.00000  Uiso   1.00
N48    N     0.24136   0.21375   0.05695   0.00000  Uiso   1.00
O49    O     0.28884   0.20247   0.06325   0.00000  Uiso   1.00
O50    O     0.23221   0.25213   0.06348   0.00000  Uiso   1.00
O51    O     0.50000   0.10655   0.20625   0.00000  Uiso   1.00
O52    O     0.50000   0.22678   0.12709   0.00000  Uiso   1.00
O53    O     0.50000   0.10654   0.12706   0.00000  Uiso   1.00
O54    O     0.50000   0.22679   0.20628   0.00000  Uiso   1.00
C55    C     0.50074   0.08747   0.16682   0.00000  Uiso   1.00
C56    C     0.49926   0.24586   0.16651   0.00000  Uiso   1.00
O57    O     0.42495   0.16667   0.19712   0.00000  Uiso   1.00
O58    O     0.57505   0.16666   0.13621   0.00000  Uiso   1.00
O59    O     0.42494   0.16666   0.11793   0.00000  Uiso   1.00
O60    O     0.57506   0.16667   0.21540   0.00000  Uiso   1.00
C61    C     0.40155   0.16555   0.15533   0.00000  Uiso   1.00
C62    C     0.59845   0.16779   0.17801   0.00000  Uiso   1.00
Cu63   Cu    0.50000   0.16667   0.21355   0.00000  Uiso   1.00
Cu64   Cu    0.50000   0.16666   0.11978   0.00000  Uiso   1.00
N65    N     0.50001   0.16668   0.28403   0.00000  Uiso   1.00
N66    N     0.49999   0.16666   0.04931   0.00000  Uiso   1.00
C67    C     0.34720   0.15651   0.15229   0.00000  Uiso   1.00
C68    C     0.65279   0.17684   0.18105   0.00000  Uiso   1.00
C69    C     0.49224   0.02136   0.12461   0.00000  Uiso   1.00
C70    C     0.50776   0.31197   0.20872   0.00000  Uiso   1.00
H71    H     0.48644   0.03730   0.09163   0.00000  Uiso   1.00
H72    H     0.51355   0.29604   0.24170   0.00000  Uiso   1.00
C73    C     0.49016   0.31221   0.12407   0.00000  Uiso   1.00
C74    C     0.50983   0.02112   0.20927   0.00000  Uiso   1.00
C75    C     0.49871   0.29051   0.16628   0.00000  Uiso   1.00
C76    C     0.50129   0.04282   0.16705   0.00000  Uiso   1.00
C77    C     0.46279   0.14497   0.02044   0.00000  Uiso   1.00
C78    C     0.53721   0.18836   0.31289   0.00000  Uiso   1.00
C79    C     0.46315   0.14460   0.30444   0.00000  Uiso   1.00
C80    C     0.53685   0.18873   0.02889   0.00000  Uiso   1.00
N81    N     0.66160   0.11851   0.12978   0.00000  Uiso   1.00
O82    O     0.63006   0.11871   0.09125   0.00000  Uiso   1.00
O83    O     0.35062   0.08457   0.14256   0.00000  Uiso   1.00
N84    N     0.33839   0.21485   0.20357   0.00000  Uiso   1.00
O85    O     0.37000   0.21464   0.24205   0.00000  Uiso   1.00
O86    O     0.64925   0.24875   0.19090   0.00000  Uiso   1.00
F87    F     0.47863   0.29273   0.08231   0.00000  Uiso   1.00
F88    F     0.52137   0.04061   0.25103   0.00000  Uiso   1.00
N89    N     0.42175   0.12331   0.03939   0.00000  Uiso   1.00
O90    O     0.37630   0.13879   0.03414   0.00000  Uiso   1.00
O91    O     0.42546   0.08432   0.04805   0.00000  Uiso   1.00
N92    N     0.57824   0.21003   0.29394   0.00000  Uiso   1.00
O93    O     0.62370   0.19456   0.29919   0.00000  Uiso   1.00
O94    O     0.57453   0.24902   0.28530   0.00000  Uiso   1.00
N95    N     0.42531   0.11958   0.27638   0.00000  Uiso   1.00
O96    O     0.37782   0.13087   0.27008   0.00000  Uiso   1.00
O97    O     0.43445   0.08121   0.26985   0.00000  Uiso   1.00
N98    N     0.57469   0.21375   0.05695   0.00000  Uiso   1.00
O99    O     0.62218   0.20247   0.06325   0.00000  Uiso   1.00
O100   O     0.56554   0.25213   0.06348   0.00000  Uiso   1.00
O101   O     0.83333   0.10655   0.20625   0.00000  Uiso   1.00
O102   O     0.83334   0.22678   0.12709   0.00000  Uiso   1.00
O103   O     0.83333   0.10654   0.12706   0.00000  Uiso   1.00
O104   O     0.83334   0.22679   0.20628   0.00000  Uiso   1.00
C105   C     0.83407   0.08747   0.16682   0.00000  Uiso   1.00
C106   C     0.83259   0.24586   0.16651   0.00000  Uiso   1.00
O107   O     0.75828   0.16667   0.19712   0.00000  Uiso   1.00
O108   O     0.90839   0.16666   0.13621   0.00000  Uiso   1.00
O109   O     0.75828   0.16666   0.11793   0.00000  Uiso   1.00
O110   O     0.90839   0.16667   0.21540   0.00000  Uiso   1.00
C111   C     0.73488   0.16555   0.15533   0.00000  Uiso   1.00
C112   C     0.93178   0.16779   0.17801   0.00000  Uiso   1.00
Cu113  Cu    0.83333   0.16667   0.21355   0.00000  Uiso   1.00
Cu114  Cu    0.83333   0.16666   0.11978   0.00000  Uiso   1.00
N115   N     0.83335   0.16668   0.28403   0.00000  Uiso   1.00
N116   N     0.83332   0.16666   0.04931   0.00000  Uiso   1.00
C117   C     0.68054   0.15651   0.15229   0.00000  Uiso   1.00
C118   C     0.98613   0.17684   0.18105   0.00000  Uiso   1.00
C119   C     0.82557   0.02136   0.12461   0.00000  Uiso   1.00
C120   C     0.84109   0.31197   0.20872   0.00000  Uiso   1.00
H121   H     0.81978   0.03730   0.09163   0.00000  Uiso   1.00
H122   H     0.84689   0.29604   0.24170   0.00000  Uiso   1.00
C123   C     0.82350   0.31221   0.12407   0.00000  Uiso   1.00
C124   C     0.84317   0.02112   0.20927   0.00000  Uiso   1.00
C125   C     0.83204   0.29051   0.16628   0.00000  Uiso   1.00
C126   C     0.83462   0.04282   0.16705   0.00000  Uiso   1.00
C127   C     0.79613   0.14497   0.02044   0.00000  Uiso   1.00
C128   C     0.87054   0.18836   0.31289   0.00000  Uiso   1.00
C129   C     0.79648   0.14460   0.30444   0.00000  Uiso   1.00
C130   C     0.87019   0.18873   0.02889   0.00000  Uiso   1.00
N131   N     0.99493   0.11851   0.12978   0.00000  Uiso   1.00
O132   O     0.96340   0.11871   0.09125   0.00000  Uiso   1.00
O133   O     0.68396   0.08457   0.14256   0.00000  Uiso   1.00
N134   N     0.67172   0.21485   0.20357   0.00000  Uiso   1.00
O135   O     0.70333   0.21464   0.24205   0.00000  Uiso   1.00
O136   O     0.98258   0.24875   0.19090   0.00000  Uiso   1.00
F137   F     0.81196   0.29273   0.08231   0.00000  Uiso   1.00
F138   F     0.85470   0.04061   0.25103   0.00000  Uiso   1.00
N139   N     0.75509   0.12331   0.03939   0.00000  Uiso   1.00
O140   O     0.70963   0.13879   0.03414   0.00000  Uiso   1.00
O141   O     0.75880   0.08432   0.04805   0.00000  Uiso   1.00
N142   N     0.91158   0.21003   0.29394   0.00000  Uiso   1.00
O143   O     0.95703   0.19456   0.29919   0.00000  Uiso   1.00
O144   O     0.90786   0.24902   0.28530   0.00000  Uiso   1.00
N145   N     0.75864   0.11958   0.27638   0.00000  Uiso   1.00
O146   O     0.71116   0.13087   0.27008   0.00000  Uiso   1.00
O147   O     0.76778   0.08121   0.26985   0.00000  Uiso   1.00
N148   N     0.90802   0.21375   0.05695   0.00000  Uiso   1.00
O149   O     0.95551   0.20247   0.06325   0.00000  Uiso   1.00
O150   O     0.89887   0.25213   0.06348   0.00000  Uiso   1.00
O151   O     0.16666   0.43989   0.20625   0.00000  Uiso   1.00
O152   O     0.16667   0.56011   0.12709   0.00000  Uiso   1.00
O153   O     0.16666   0.43988   0.12706   0.00000  Uiso   1.00
O154   O     0.16667   0.56012   0.20628   0.00000  Uiso   1.00
C155   C     0.16740   0.42081   0.16682   0.00000  Uiso   1.00
C156   C     0.16593   0.57919   0.16651   0.00000  Uiso   1.00
O157   O     0.09161   0.50000   0.19712   0.00000  Uiso   1.00
O158   O     0.24172   0.50000   0.13621   0.00000  Uiso   1.00
O159   O     0.09161   0.49999   0.11793   0.00000  Uiso   1.00
O160   O     0.24172   0.50001   0.21540   0.00000  Uiso   1.00
C161   C     0.06821   0.49888   0.15533   0.00000  Uiso   1.00
C162   C     0.26512   0.50113   0.17801   0.00000  Uiso   1.00
Cu163  Cu    0.16667   0.50001   0.21355   0.00000  Uiso   1.00
Cu164  Cu    0.16667   0.49999   0.11978   0.00000  Uiso   1.00
N165   N     0.16668   0.50001   0.28403   0.00000  Uiso   1.00
N166   N     0.16665   0.49999   0.04931   0.00000  Uiso   1.00
C167   C     0.01387   0.48984   0.15229   0.00000  Uiso   1.00
C168   C     0.31946   0.51018   0.18105   0.00000  Uiso   1.00
C169   C     0.15890   0.35470   0.12461   0.00000  Uiso   1.00
C170   C     0.17443   0.64530   0.20872   0.00000  Uiso   1.00
H171   H     0.15311   0.37063   0.09163   0.00000  Uiso   1.00
H172   H     0.18022   0.62937   0.24170   0.00000  Uiso   1.00
C173   C     0.15683   0.64555   0.12407   0.00000  Uiso   1.00
C174   C     0.17650   0.35445   0.20927   0.00000  Uiso   1.00
C175   C     0.16538   0.62385   0.16628   0.00000  Uiso   1.00
C176   C     0.16796   0.37615   0.16705   0.00000  Uiso   1.00
C177   C     0.12946   0.47831   0.02044   0.00000  Uiso   1.00
C178   C     0.20387   0.52170   0.31289   0.00000  Uiso   1.00
C179   C     0.12981   0.47793   0.30444   0.00000  Uiso   1.00
C180   C     0.20352   0.52207   0.02889   0.00000  Uiso   1.00
N181   N     0.32826   0.45184   0.12978   0.00000  Uiso   1.00
O182   O     0.29673   0.45205   0.09125   0.00000  Uiso   1.00
O183   O     0.01729   0.41791   0.14256   0.00000  Uiso   1.00
N184   N     0.00506   0.54818   0.20357   0.00000  Uiso   1.00
O185   O     0.03666   0.54797   0.24205   0.00000  Uiso   1.00
O186   O     0.31591   0.58209   0.19090   0.00000  Uiso   1.00
F187   F     0.14529   0.62606   0.08231   0.00000  Uiso   1.00
F188   F     0.18804   0.37394   0.25103   0.00000  Uiso   1.00
N189   N     0.08842   0.45665   0.03939   0.00000  Uiso   1.00
O190   O     0.04297   0.47212   0.03414   0.00000  Uiso   1.00
O191   O     0.09213   0.41766   0.04805   0.00000  Uiso   1.00
N192   N     0.24491   0.54336   0.29394   0.00000  Uiso   1.00
O193   O     0.29036   0.52789   0.29919   0.00000  Uiso   1.00
O194   O     0.24120   0.58235   0.28530   0.00000  Uiso   1.00
N195   N     0.09197   0.45292   0.27638   0.00000  Uiso   1.00
O196   O     0.04449   0.46421   0.27008   0.00000  Uiso   1.00
O197   O     0.10112   0.41454   0.26985   0.00000  Uiso   1.00
N198   N     0.24136   0.54709   0.05695   0.00000  Uiso   1.00
O199   O     0.28884   0.53580   0.06325   0.00000  Uiso   1.00
O200   O     0.23221   0.58546   0.06348   0.00000  Uiso   1.00
O201   O     0.50000   0.43989   0.20625   0.00000  Uiso   1.00
O202   O     0.50000   0.56011   0.12709   0.00000  Uiso   1.00
O203   O     0.50000   0.43988   0.12706   0.00000  Uiso   1.00
O204   O     0.50000   0.56012   0.20628   0.00000  Uiso   1.00
C205   C     0.50074   0.42081   0.16682   0.00000  Uiso   1.00
C206   C     0.49926   0.57919   0.16651   0.00000  Uiso   1.00
O207   O     0.42495   0.50000   0.19712   0.00000  Uiso   1.00
O208   O     0.57505   0.50000   0.13621   0.00000  Uiso   1.00
O209   O     0.42494   0.49999   0.11793   0.00000  Uiso   1.00
O210   O     0.57506   0.50001   0.21540   0.00000  Uiso   1.00
C211   C     0.40155   0.49888   0.15533   0.00000  Uiso   1.00
C212   C     0.59845   0.50113   0.17801   0.00000  Uiso   1.00
Cu213  Cu    0.50000   0.50001   0.21355   0.00000  Uiso   1.00
Cu214  Cu    0.50000   0.49999   0.11978   0.00000  Uiso   1.00
N215   N     0.50001   0.50001   0.28403   0.00000  Uiso   1.00
N216   N     0.49999   0.49999   0.04931   0.00000  Uiso   1.00
C217   C     0.34720   0.48984   0.15229   0.00000  Uiso   1.00
C218   C     0.65279   0.51018   0.18105   0.00000  Uiso   1.00
C219   C     0.49224   0.35470   0.12461   0.00000  Uiso   1.00
C220   C     0.50776   0.64530   0.20872   0.00000  Uiso   1.00
H221   H     0.48644   0.37063   0.09163   0.00000  Uiso   1.00
H222   H     0.51355   0.62937   0.24170   0.00000  Uiso   1.00
C223   C     0.49016   0.64555   0.12407   0.00000  Uiso   1.00
C224   C     0.50983   0.35445   0.20927   0.00000  Uiso   1.00
C225   C     0.49871   0.62385   0.16628   0.00000  Uiso   1.00
C226   C     0.50129   0.37615   0.16705   0.00000  Uiso   1.00
C227   C     0.46279   0.47831   0.02044   0.00000  Uiso   1.00
C228   C     0.53721   0.52170   0.31289   0.00000  Uiso   1.00
C229   C     0.46315   0.47793   0.30444   0.00000  Uiso   1.00
C230   C     0.53685   0.52207   0.02889   0.00000  Uiso   1.00
N231   N     0.66160   0.45184   0.12978   0.00000  Uiso   1.00
O232   O     0.63006   0.45205   0.09125   0.00000  Uiso   1.00
O233   O     0.35062   0.41791   0.14256   0.00000  Uiso   1.00
N234   N     0.33839   0.54818   0.20357   0.00000  Uiso   1.00
O235   O     0.37000   0.54797   0.24205   0.00000  Uiso   1.00
O236   O     0.64925   0.58209   0.19090   0.00000  Uiso   1.00
F237   F     0.47863   0.62606   0.08231   0.00000  Uiso   1.00
F238   F     0.52137   0.37394   0.25103   0.00000  Uiso   1.00
N239   N     0.42175   0.45665   0.03939   0.00000  Uiso   1.00
O240   O     0.37630   0.47212   0.03414   0.00000  Uiso   1.00
O241   O     0.42546   0.41766   0.04805   0.00000  Uiso   1.00
N242   N     0.57824   0.54336   0.29394   0.00000  Uiso   1.00
O243   O     0.62370   0.52789   0.29919   0.00000  Uiso   1.00
O244   O     0.57453   0.58235   0.28530   0.00000  Uiso   1.00
N245   N     0.42531   0.45292   0.27638   0.00000  Uiso   1.00
O246   O     0.37782   0.46421   0.27008   0.00000  Uiso   1.00
O247   O     0.43445   0.41454   0.26985   0.00000  Uiso   1.00
N248   N     0.57469   0.54709   0.05695   0.00000  Uiso   1.00
O249   O     0.62218   0.53580   0.06325   0.00000  Uiso   1.00
O250   O     0.56554   0.58546   0.06348   0.00000  Uiso   1.00
O251   O     0.83333   0.43989   0.20625   0.00000  Uiso   1.00
O252   O     0.83334   0.56011   0.12709   0.00000  Uiso   1.00
O253   O     0.83333   0.43988   0.12706   0.00000  Uiso   1.00
O254   O     0.83334   0.56012   0.20628   0.00000  Uiso   1.00
C255   C     0.83407   0.42081   0.16682   0.00000  Uiso   1.00
C256   C     0.83259   0.57919   0.16651   0.00000  Uiso   1.00
O257   O     0.75828   0.50000   0.19712   0.00000  Uiso   1.00
O258   O     0.90839   0.50000   0.13621   0.00000  Uiso   1.00
O259   O     0.75828   0.49999   0.11793   0.00000  Uiso   1.00
O260   O     0.90839   0.50001   0.21540   0.00000  Uiso   1.00
C261   C     0.73488   0.49888   0.15533   0.00000  Uiso   1.00
C262   C     0.93178   0.50113   0.17801   0.00000  Uiso   1.00
Cu263  Cu    0.83333   0.50001   0.21355   0.00000  Uiso   1.00
Cu264  Cu    0.83333   0.49999   0.11978   0.00000  Uiso   1.00
N265   N     0.83335   0.50001   0.28403   0.00000  Uiso   1.00
N266   N     0.83332   0.49999   0.04931   0.00000  Uiso   1.00
C267   C     0.68054   0.48984   0.15229   0.00000  Uiso   1.00
C268   C     0.98613   0.51018   0.18105   0.00000  Uiso   1.00
C269   C     0.82557   0.35470   0.12461   0.00000  Uiso   1.00
C270   C     0.84109   0.64530   0.20872   0.00000  Uiso   1.00
H271   H     0.81978   0.37063   0.09163   0.00000  Uiso   1.00
H272   H     0.84689   0.62937   0.24170   0.00000  Uiso   1.00
C273   C     0.82350   0.64555   0.12407   0.00000  Uiso   1.00
C274   C     0.84317   0.35445   0.20927   0.00000  Uiso   1.00
C275   C     0.83204   0.62385   0.16628   0.00000  Uiso   1.00
C276   C     0.83462   0.37615   0.16705   0.00000  Uiso   1.00
C277   C     0.79613   0.47831   0.02044   0.00000  Uiso   1.00
C278   C     0.87054   0.52170   0.31289   0.00000  Uiso   1.00
C279   C     0.79648   0.47793   0.30444   0.00000  Uiso   1.00
C280   C     0.87019   0.52207   0.02889   0.00000  Uiso   1.00
N281   N     0.99493   0.45184   0.12978   0.00000  Uiso   1.00
O282   O     0.96340   0.45205   0.09125   0.00000  Uiso   1.00
O283   O     0.68396   0.41791   0.14256   0.00000  Uiso   1.00
N284   N     0.67172   0.54818   0.20357   0.00000  Uiso   1.00
O285   O     0.70333   0.54797   0.24205   0.00000  Uiso   1.00
O286   O     0.98258   0.58209   0.19090   0.00000  Uiso   1.00
F287   F     0.81196   0.62606   0.08231   0.00000  Uiso   1.00
F288   F     0.85470   0.37394   0.25103   0.00000  Uiso   1.00
N289   N     0.75509   0.45665   0.03939   0.00000  Uiso   1.00
O290   O     0.70963   0.47212   0.03414   0.00000  Uiso   1.00
O291   O     0.75880   0.41766   0.04805   0.00000  Uiso   1.00
N292   N     0.91158   0.54336   0.29394   0.00000  Uiso   1.00
O293   O     0.95703   0.52789   0.29919   0.00000  Uiso   1.00
O294   O     0.90786   0.58235   0.28530   0.00000  Uiso   1.00
N295   N     0.75864   0.45292   0.27638   0.00000  Uiso   1.00
O296   O     0.71116   0.46421   0.27008   0.00000  Uiso   1.00
O297   O     0.76778   0.41454   0.26985   0.00000  Uiso   1.00
N298   N     0.90802   0.54709   0.05695   0.00000  Uiso   1.00
O299   O     0.95551   0.53580   0.06325   0.00000  Uiso   1.00
O300   O     0.89887   0.58546   0.06348   0.00000  Uiso   1.00
O301   O     0.16666   0.77322   0.20625   0.00000  Uiso   1.00
O302   O     0.16667   0.89345   0.12709   0.00000  Uiso   1.00
O303   O     0.16666   0.77321   0.12706   0.00000  Uiso   1.00
O304   O     0.16667   0.89346   0.20628   0.00000  Uiso   1.00
C305   C     0.16740   0.75414   0.16682   0.00000  Uiso   1.00
C306   C     0.16593   0.91253   0.16651   0.00000  Uiso   1.00
O307   O     0.09161   0.83334   0.19712   0.00000  Uiso   1.00
O308   O     0.24172   0.83333   0.13621   0.00000  Uiso   1.00
O309   O     0.09161   0.83333   0.11793   0.00000  Uiso   1.00
O310   O     0.24172   0.83334   0.21540   0.00000  Uiso   1.00
C311   C     0.06821   0.83221   0.15533   0.00000  Uiso   1.00
C312   C     0.26512   0.83446   0.17801   0.00000  Uiso   1.00
Cu313  Cu    0.16667   0.83334   0.21355   0.00000  Uiso   1.00
Cu314  Cu    0.16667   0.83333   0.11978   0.00000  Uiso   1.00
N315   N     0.16668   0.83334   0.28403   0.00000  Uiso   1.00
N316   N     0.16665   0.83332   0.04931   0.00000  Uiso   1.00
C317   C     0.01387   0.82318   0.15229   0.00000  Uiso   1.00
C318   C     0.31946   0.84351   0.18105   0.00000  Uiso   1.00
C319   C     0.15890   0.68803   0.12461   0.00000  Uiso   1.00
C320   C     0.17443   0.97864   0.20872   0.00000  Uiso   1.00
H321   H     0.15311   0.70396   0.09163   0.00000  Uiso   1.00
H322   H     0.18022   0.96270   0.24170   0.00000  Uiso   1.00
C323   C     0.15683   0.97888   0.12407   0.00000  Uiso   1.00
C324   C     0.17650   0.68779   0.20927   0.00000  Uiso   1.00
C325   C     0.16538   0.95718   0.16628   0.00000  Uiso   1.00
C326   C     0.16796   0.70949   0.16705   0.00000  Uiso   1.00
C327   C     0.12946   0.81164   0.02044   0.00000  Uiso   1.00
C328   C     0.20387   0.85503   0.31289   0.00000  Uiso   1.00
C329   C     0.12981   0.81127   0.30444   0.00000  Uiso   1.00
C330   C     0.20352   0.85540   0.02889   0.00000  Uiso   1.00
N331   N     0.32826   0.78517   0.12978   0.00000  Uiso   1.00
O332   O     0.29673   0.78538   0.09125   0.00000  Uiso   1.00
O333   O     0.01729   0.75124   0.14256   0.00000  Uiso   1.00
N334   N     0.00506   0.88151   0.20357   0.00000  Uiso   1.00
O335   O     0.03666   0.88131   0.24205   0.00000  Uiso   1.00
O336   O     0.31591   0.91542   0.19090   0.00000  Uiso   1.00
F337   F     0.14529   0.95939   0.08231   0.00000  Uiso   1.00
F338   F     0.18804   0.70727   0.25103   0.00000  Uiso   1.00
N339   N     0.08842   0.78998   0.03939   0.00000  Uiso   1.00
O340   O     0.04297   0.80545   0.03414   0.00000  Uiso   1.00
O341   O     0.09213   0.75099   0.04805   0.00000  Uiso   1.00
N342   N     0.24491   0.87669   0.29394   0.00000  Uiso   1.00
O343   O     0.29036   0.86122   0.29919   0.00000  Uiso   1.00
O344   O     0.24120   0.91568   0.28530   0.00000  Uiso   1.00
N345   N     0.09197   0.78625   0.27638   0.00000  Uiso   1.00
O346   O     0.04449   0.79754   0.27008   0.00000  Uiso   1.00
O347   O     0.10112   0.74787   0.26985   0.00000  Uiso   1.00
N348   N     0.24136   0.88042   0.05695   0.00000  Uiso   1.00
O349   O     0.28884   0.86914   0.06325   0.00000  Uiso   1.00
O350   O     0.23221   0.91879   0.06348   0.00000  Uiso   1.00
O351   O     0.50000   0.77322   0.20625   0.00000  Uiso   1.00
O352   O     0.50000   0.89345   0.12709   0.00000  Uiso   1.00
O353   O     0.50000   0.77321   0.12706   0.00000  Uiso   1.00
O354   O     0.50000   0.89346   0.20628   0.00000  Uiso   1.00
C355   C     0.50074   0.75414   0.16682   0.00000  Uiso   1.00
C356   C     0.49926   0.91253   0.16651   0.00000  Uiso   1.00
O357   O     0.42495   0.83334   0.19712   0.00000  Uiso   1.00
O358   O     0.57505   0.83333   0.13621   0.00000  Uiso   1.00
O359   O     0.42494   0.83333   0.11793   0.00000  Uiso   1.00
O360   O     0.57506   0.83334   0.21540   0.00000  Uiso   1.00
C361   C     0.40155   0.83221   0.15533   0.00000  Uiso   1.00
C362   C     0.59845   0.83446   0.17801   0.00000  Uiso   1.00
Cu363  Cu    0.50000   0.83334   0.21355   0.00000  Uiso   1.00
Cu364  Cu    0.50000   0.83333   0.11978   0.00000  Uiso   1.00
N365   N     0.50001   0.83334   0.28403   0.00000  Uiso   1.00
N366   N     0.49999   0.83332   0.04931   0.00000  Uiso   1.00
C367   C     0.34720   0.82318   0.15229   0.00000  Uiso   1.00
C368   C     0.65279   0.84351   0.18105   0.00000  Uiso   1.00
C369   C     0.49224   0.68803   0.12461   0.00000  Uiso   1.00
C370   C     0.50776   0.97864   0.20872   0.00000  Uiso   1.00
H371   H     0.48644   0.70396   0.09163   0.00000  Uiso   1.00
H372   H     0.51355   0.96270   0.24170   0.00000  Uiso   1.00
C373   C     0.49016   0.97888   0.12407   0.00000  Uiso   1.00
C374   C     0.50983   0.68779   0.20927   0.00000  Uiso   1.00
C375   C     0.49871   0.95718   0.16628   0.00000  Uiso   1.00
C376   C     0.50129   0.70949   0.16705   0.00000  Uiso   1.00
C377   C     0.46279   0.81164   0.02044   0.00000  Uiso   1.00
C378   C     0.53721   0.85503   0.31289   0.00000  Uiso   1.00
C379   C     0.46315   0.81127   0.30444   0.00000  Uiso   1.00
C380   C     0.53685   0.85540   0.02889   0.00000  Uiso   1.00
N381   N     0.66160   0.78517   0.12978   0.00000  Uiso   1.00
O382   O     0.63006   0.78538   0.09125   0.00000  Uiso   1.00
O383   O     0.35062   0.75124   0.14256   0.00000  Uiso   1.00
N384   N     0.33839   0.88151   0.20357   0.00000  Uiso   1.00
O385   O     0.37000   0.88131   0.24205   0.00000  Uiso   1.00
O386   O     0.64925   0.91542   0.19090   0.00000  Uiso   1.00
F387   F     0.47863   0.95939   0.08231   0.00000  Uiso   1.00
F388   F     0.52137   0.70727   0.25103   0.00000  Uiso   1.00
N389   N     0.42175   0.78998   0.03939   0.00000  Uiso   1.00
O390   O     0.37630   0.80545   0.03414   0.00000  Uiso   1.00
O391   O     0.42546   0.75099   0.04805   0.00000  Uiso   1.00
N392   N     0.57824   0.87669   0.29394   0.00000  Uiso   1.00
O393   O     0.62370   0.86122   0.29919   0.00000  Uiso   1.00
O394   O     0.57453   0.91568   0.28530   0.00000  Uiso   1.00
N395   N     0.42531   0.78625   0.27638   0.00000  Uiso   1.00
O396   O     0.37782   0.79754   0.27008   0.00000  Uiso   1.00
O397   O     0.43445   0.74787   0.26985   0.00000  Uiso   1.00
N398   N     0.57469   0.88042   0.05695   0.00000  Uiso   1.00
O399   O     0.62218   0.86914   0.06325   0.00000  Uiso   1.00
O400   O     0.56554   0.91879   0.06348   0.00000  Uiso   1.00
O401   O     0.83333   0.77322   0.20625   0.00000  Uiso   1.00
O402   O     0.83334   0.89345   0.12709   0.00000  Uiso   1.00
O403   O     0.83333   0.77321   0.12706   0.00000  Uiso   1.00
O404   O     0.83334   0.89346   0.20628   0.00000  Uiso   1.00
C405   C     0.83407   0.75414   0.16682   0.00000  Uiso   1.00
C406   C     0.83259   0.91253   0.16651   0.00000  Uiso   1.00
O407   O     0.75828   0.83334   0.19712   0.00000  Uiso   1.00
O408   O     0.90839   0.83333   0.13621   0.00000  Uiso   1.00
O409   O     0.75828   0.83333   0.11793   0.00000  Uiso   1.00
O410   O     0.90839   0.83334   0.21540   0.00000  Uiso   1.00
C411   C     0.73488   0.83221   0.15533   0.00000  Uiso   1.00
C412   C     0.93178   0.83446   0.17801   0.00000  Uiso   1.00
Cu413  Cu    0.83333   0.83334   0.21355   0.00000  Uiso   1.00
Cu414  Cu    0.83333   0.83333   0.11978   0.00000  Uiso   1.00
N415   N     0.83335   0.83334   0.28403   0.00000  Uiso   1.00
N416   N     0.83332   0.83332   0.04931   0.00000  Uiso   1.00
C417   C     0.68054   0.82318   0.15229   0.00000  Uiso   1.00
C418   C     0.98613   0.84351   0.18105   0.00000  Uiso   1.00
C419   C     0.82557   0.68803   0.12461   0.00000  Uiso   1.00
C420   C     0.84109   0.97864   0.20872   0.00000  Uiso   1.00
H421   H     0.81978   0.70396   0.09163   0.00000  Uiso   1.00
H422   H     0.84689   0.96270   0.24170   0.00000  Uiso   1.00
C423   C     0.82350   0.97888   0.12407   0.00000  Uiso   1.00
C424   C     0.84317   0.68779   0.20927   0.00000  Uiso   1.00
C425   C     0.83204   0.95718   0.16628   0.00000  Uiso   1.00
C426   C     0.83462   0.70949   0.16705   0.00000  Uiso   1.00
C427   C     0.79613   0.81164   0.02044   0.00000  Uiso   1.00
C428   C     0.87054   0.85503   0.31289   0.00000  Uiso   1.00
C429   C     0.79648   0.81127   0.30444   0.00000  Uiso   1.00
C430   C     0.87019   0.85540   0.02889   0.00000  Uiso   1.00
N431   N     0.99493   0.78517   0.12978   0.00000  Uiso   1.00
O432   O     0.96340   0.78538   0.09125   0.00000  Uiso   1.00
O433   O     0.68396   0.75124   0.14256   0.00000  Uiso   1.00
N434   N     0.67172   0.88151   0.20357   0.00000  Uiso   1.00
O435   O     0.70333   0.88131   0.24205   0.00000  Uiso   1.00
O436   O     0.98258   0.91542   0.19090   0.00000  Uiso   1.00
F437   F     0.81196   0.95939   0.08231   0.00000  Uiso   1.00
F438   F     0.85470   0.70727   0.25103   0.00000  Uiso   1.00
N439   N     0.75509   0.78998   0.03939   0.00000  Uiso   1.00
O440   O     0.70963   0.80545   0.03414   0.00000  Uiso   1.00
O441   O     0.75880   0.75099   0.04805   0.00000  Uiso   1.00
N442   N     0.91158   0.87669   0.29394   0.00000  Uiso   1.00
O443   O     0.95703   0.86122   0.29919   0.00000  Uiso   1.00
O444   O     0.90786   0.91568   0.28530   0.00000  Uiso   1.00
N445   N     0.75864   0.78625   0.27638   0.00000  Uiso   1.00
O446   O     0.71116   0.79754   0.27008   0.00000  Uiso   1.00
O447   O     0.76778   0.74787   0.26985   0.00000  Uiso   1.00
N448   N     0.90802   0.88042   0.05695   0.00000  Uiso   1.00
O449   O     0.95551   0.86914   0.06325   0.00000  Uiso   1.00
O450   O     0.89887   0.91879   0.06348   0.00000  Uiso   1.00
O451   O     0.16666   0.10655   0.53958   0.00000  Uiso   1.00
O452   O     0.16667   0.22678   0.46042   0.00000  Uiso   1.00
O453   O     0.16666   0.10654   0.46039   0.00000  Uiso   1.00
O454   O     0.16667   0.22679   0.53961   0.00000  Uiso   1.00
C455   C     0.16740   0.08747   0.50015   0.00000  Uiso   1.00
C456   C     0.16593   0.24586   0.49985   0.00000  Uiso   1.00
O457   O     0.09161   0.16667   0.53046   0.00000  Uiso   1.00
O458   O     0.24172   0.16666   0.46954   0.00000  Uiso   1.00
O459   O     0.09161   0.16666   0.45127   0.00000  Uiso   1.00
O460   O     0.24172   0.16667   0.54873   0.00000  Uiso   1.00
C461   C     0.06821   0.16555   0.48866   0.00000  Uiso   1.00
C462   C     0.26512   0.16779   0.51134   0.00000  Uiso   1.00
Cu463  Cu    0.16667   0.16667   0.54689   0.00000  Uiso   1.00
Cu464  Cu    0.16667   0.16666   0.45311   0.00000  Uiso   1.00
N465   N     0.16668   0.16668   0.61736   0.00000  Uiso   1.00
N466   N     0.16665   0.16666   0.38264   0.00000  Uiso   1.00
C467   C     0.01387   0.15651   0.48562   0.00000  Uiso   1.00
C468   C     0.31946   0.17684   0.51438   0.00000  Uiso   1.00
C469   C     0.15890   0.02136   0.45795   0.00000  Uiso   1.00
C470   C     0.17443   0.31197   0.54205   0.00000  Uiso   1.00
H471   H     0.15311   0.03730   0.42497   0.00000  Uiso   1.00
H472   H     0.18022   0.29604   0.57503   0.00000  Uiso   1.00
C473   C     0.15683   0.31221   0.45740   0.00000  Uiso   1.00
C474   C     0.17650   0.02112   0.54260   0.00000  Uiso   1.00
C475   C     0.16538   0.29051   0.49962   0.00000  Uiso   1.00
C476   C     0.16796   0.04282   0.50038   0.00000  Uiso   1.00
C477   C     0.12946   0.14497   0.35378   0.00000  Uiso   1.00
C478   C     0.20387   0.18836   0.64622   0.00000  Uiso   1.00
C479   C     0.12981   0.14460   0.63778   0.00000  Uiso   1.00
C480   C     0.20352   0.18873   0.36223   0.00000  Uiso   1.00
N481   N     0.32826   0.11851   0.46311   0.00000  Uiso   1.00
O482   O     0.29673   0.11871   0.42458   0.00000  Uiso   1.00
O483   O     0.01729   0.08457   0.47589   0.00000  Uiso   1.00
N484   N     0.00506   0.21485   0.53690   0.00000  Uiso   1.00
O485   O     0.03666   0.21464   0.57539   0.00000  Uiso   1.00
O486   O     0.31591   0.24875   0.52423   0.00000  Uiso   1.00
F487   F     0.14529   0.29273   0.41564   0.00000  Uiso   1.00
F488   F     0.18804   0.04061   0.58436   0.00000  Uiso   1.00
N489   N     0.08842   0.12331   0.37273   0.00000  Uiso   1.00
O490   O     0.04297   0.13879   0.36747   0.00000  Uiso   1.00
O491   O     0.09213   0.08432   0.38138   0.00000  Uiso   1.00
N492   N     0.24491   0.21003   0.62727   0.00000  Uiso   1.00
O493   O     0.29036   0.19456   0.63252   0.00000  Uiso   1.00
O494   O     0.24120   0.24902   0.61863   0.00000  Uiso   1.00
N495   N     0.09197   0.11958   0.60971   0.00000  Uiso   1.00
O496   O     0.04449   0.13087   0.60341   0.00000  Uiso   1.00
O497   O     0.10112   0.08121   0.60318   0.00000  Uiso   1.00
N498   N     0.24136   0.21375   0.39029   0.00000  Uiso   1.00
O499   O     0.28884   0.20247   0.39658   0.00000  Uiso   1.00
O500   O     0.23221   0.25213   0.39682   0.00000  Uiso   1.00
O501   O     0.50000   0.10655   0.53958   0.00000  Uiso   1.00
O502   O     0.50000   0.22678   0.46042   0.00000  Uiso   1.00
O503   O     0.50000   0.10654   0.46039   0.00000  Uiso   1.00
O504   O     0.50000   0.22679   0.53961   0.00000  Uiso   1.00
C505   C     0.50074   0.08747   0.50015   0.00000  Uiso   1.00
C506   C     0.49926   0.24586   0.49985   0.00000  Uiso   1.00
O507   O     0.42495   0.16667   0.53046   0.00000  Uiso   1.00
O508   O     0.57505   0.16666   0.46954   0.00000  Uiso   1.00
O509   O     0.42494   0.16666   0.45127   0.00000  Uiso   1.00
O510   O     0.57506   0.16667   0.54873   0.00000  Uiso   1.00
C511   C     0.40155   0.16555   0.48866   0.00000  Uiso   1.00
C512   C     0.59845   0.16779   0.51134   0.00000  Uiso   1.00
Cu513  Cu    0.50000   0.16667   0.54689   0.00000  Uiso   1.00
Cu514  Cu    0.50000   0.16666   0.45311   0.00000  Uiso   1.00
N515   N     0.50001   0.16668   0.61736   0.00000  Uiso   1.00
N516   N     0.49999   0.16666   0.38264   0.00000  Uiso   1.00
C517   C     0.34720   0.15651   0.48562   0.00000  Uiso   1.00
C518   C     0.65279   0.17684   0.51438   0.00000  Uiso   1.00
C519   C     0.49224   0.02136   0.45795   0.00000  Uiso   1.00
C520   C     0.50776   0.31197   0.54205   0.00000  Uiso   1.00
H521   H     0.48644   0.03730   0.42497   0.00000  Uiso   1.00
H522   H     0.51355   0.29604   0.57503   0.00000  Uiso   1.00
C523   C     0.49016   0.31221   0.45740   0.00000  Uiso   1.00
C524   C     0.50983   0.02112   0.54260   0.00000  Uiso   1.00
C525   C     0.49871   0.29051   0.49962   0.00000  Uiso   1.00
C526   C     0.50129   0.04282   0.50038   0.00000  Uiso   1.00
C527   C     0.46279   0.14497   0.35378   0.00000  Uiso   1.00
C528   C     0.53721   0.18836   0.64622   0.00000  Uiso   1.00
C529   C     0.46315   0.14460   0.63778   0.00000  Uiso   1.00
C530   C     0.53685   0.18873   0.36223   0.00000  Uiso   1.00
N531   N     0.66160   0.11851   0.46311   0.00000  Uiso   1.00
O532   O     0.63006   0.11871   0.42458   0.00000  Uiso   1.00
O533   O     0.35062   0.08457   0.47589   0.00000  Uiso   1.00
N534   N     0.33839   0.21485   0.53690   0.00000  Uiso   1.00
O535   O     0.37000   0.21464   0.57539   0.00000  Uiso   1.00
O536   O     0.64925   0.24875   0.52423   0.00000  Uiso   1.00
F537   F     0.47863   0.29273   0.41564   0.00000  Uiso   1.00
F538   F     0.52137   0.04061   0.58436   0.00000  Uiso   1.00
N539   N     0.42175   0.12331   0.37273   0.00000  Uiso   1.00
O540   O     0.37630   0.13879   0.36747   0.00000  Uiso   1.00
O541   O     0.42546   0.08432   0.38138   0.00000  Uiso   1.00
N542   N     0.57824   0.21003   0.62727   0.00000  Uiso   1.00
O543   O     0.62370   0.19456   0.63252   0.00000  Uiso   1.00
O544   O     0.57453   0.24902   0.61863   0.00000  Uiso   1.00
N545   N     0.42531   0.11958   0.60971   0.00000  Uiso   1.00
O546   O     0.37782   0.13087   0.60341   0.00000  Uiso   1.00
O547   O     0.43445   0.08121   0.60318   0.00000  Uiso   1.00
N548   N     0.57469   0.21375   0.39029   0.00000  Uiso   1.00
O549   O     0.62218   0.20247   0.39658   0.00000  Uiso   1.00
O550   O     0.56554   0.25213   0.39682   0.00000  Uiso   1.00
O551   O     0.83333   0.10655   0.53958   0.00000  Uiso   1.00
O552   O     0.83334   0.22678   0.46042   0.00000  Uiso   1.00
O553   O     0.83333   0.10654   0.46039   0.00000  Uiso   1.00
O554   O     0.83334   0.22679   0.53961   0.00000  Uiso   1.00
C555   C     0.83407   0.08747   0.50015   0.00000  Uiso   1.00
C556   C     0.83259   0.24586   0.49985   0.00000  Uiso   1.00
O557   O     0.75828   0.16667   0.53046   0.00000  Uiso   1.00
O558   O     0.90839   0.16666   0.46954   0.00000  Uiso   1.00
O559   O     0.75828   0.16666   0.45127   0.00000  Uiso   1.00
O560   O     0.90839   0.16667   0.54873   0.00000  Uiso   1.00
C561   C     0.73488   0.16555   0.48866   0.00000  Uiso   1.00
C562   C     0.93178   0.16779   0.51134   0.00000  Uiso   1.00
Cu563  Cu    0.83333   0.16667   0.54689   0.00000  Uiso   1.00
Cu564  Cu    0.83333   0.16666   0.45311   0.00000  Uiso   1.00
N565   N     0.83335   0.16668   0.61736   0.00000  Uiso   1.00
N566   N     0.83332   0.16666   0.38264   0.00000  Uiso   1.00
C567   C     0.68054   0.15651   0.48562   0.00000  Uiso   1.00
C568   C     0.98613   0.17684   0.51438   0.00000  Uiso   1.00
C569   C     0.82557   0.02136   0.45795   0.00000  Uiso   1.00
C570   C     0.84109   0.31197   0.54205   0.00000  Uiso   1.00
H571   H     0.81978   0.03730   0.42497   0.00000  Uiso   1.00
H572   H     0.84689   0.29604   0.57503   0.00000  Uiso   1.00
C573   C     0.82350   0.31221   0.45740   0.00000  Uiso   1.00
C574   C     0.84317   0.02112   0.54260   0.00000  Uiso   1.00
C575   C     0.83204   0.29051   0.49962   0.00000  Uiso   1.00
C576   C     0.83462   0.04282   0.50038   0.00000  Uiso   1.00
C577   C     0.79613   0.14497   0.35378   0.00000  Uiso   1.00
C578   C     0.87054   0.18836   0.64622   0.00000  Uiso   1.00
C579   C     0.79648   0.14460   0.63778   0.00000  Uiso   1.00
C580   C     0.87019   0.18873   0.36223   0.00000  Uiso   1.00
N581   N     0.99493   0.11851   0.46311   0.00000  Uiso   1.00
O582   O     0.96340   0.11871   0.42458   0.00000  Uiso   1.00
O583   O     0.68396   0.08457   0.47589   0.00000  Uiso   1.00
N584   N     0.67172   0.21485   0.53690   0.00000  Uiso   1.00
O585   O     0.70333   0.21464   0.57539   0.00000  Uiso   1.00
O586   O     0.98258   0.24875   0.52423   0.00000  Uiso   1.00
F587   F     0.81196   0.29273   0.41564   0.00000  Uiso   1.00
F588   F     0.85470   0.04061   0.58436   0.00000  Uiso   1.00
N589   N     0.75509   0.12331   0.37273   0.00000  Uiso   1.00
O590   O     0.70963   0.13879   0.36747   0.00000  Uiso   1.00
O591   O     0.75880   0.08432   0.38138   0.00000  Uiso   1.00
N592   N     0.91158   0.21003   0.62727   0.00000  Uiso   1.00
O593   O     0.95703   0.19456   0.63252   0.00000  Uiso   1.00
O594   O     0.90786   0.24902   0.61863   0.00000  Uiso   1.00
N595   N     0.75864   0.11958   0.60971   0.00000  Uiso   1.00
O596   O     0.71116   0.13087   0.60341   0.00000  Uiso   1.00
O597   O     0.76778   0.08121   0.60318   0.00000  Uiso   1.00
N598   N     0.90802   0.21375   0.39029   0.00000  Uiso   1.00
O599   O     0.95551   0.20247   0.39658   0.00000  Uiso   1.00
O600   O     0.89887   0.25213   0.39682   0.00000  Uiso   1.00
O601   O     0.16666   0.43989   0.53958   0.00000  Uiso   1.00
O602   O     0.16667   0.56011   0.46042   0.00000  Uiso   1.00
O603   O     0.16666   0.43988   0.46039   0.00000  Uiso   1.00
O604   O     0.16667   0.56012   0.53961   0.00000  Uiso   1.00
C605   C     0.16740   0.42081   0.50015   0.00000  Uiso   1.00
C606   C     0.16593   0.57919   0.49985   0.00000  Uiso   1.00
O607   O     0.09161   0.50000   0.53046   0.00000  Uiso   1.00
O608   O     0.24172   0.50000   0.46954   0.00000  Uiso   1.00
O609   O     0.09161   0.49999   0.45127   0.00000  Uiso   1.00
O610   O     0.24172   0.50001   0.54873   0.00000  Uiso   1.00
C611   C     0.06821   0.49888   0.48866   0.00000  Uiso   1.00
C612   C     0.26512   0.50113   0.51134   0.00000  Uiso   1.00
Cu613  Cu    0.16667   0.50001   0.54689   0.00000  Uiso   1.00
Cu614  Cu    0.16667   0.49999   0.45311   0.00000  Uiso   1.00
N615   N     0.16668   0.50001   0.61736   0.00000  Uiso   1.00
N616   N     0.16665   0.49999   0.38264   0.00000  Uiso   1.00
C617   C     0.01387   0.48984   0.48562   0.00000  Uiso   1.00
C618   C     0.31946   0.51018   0.51438   0.00000  Uiso   1.00
C619   C     0.15890   0.35470   0.45795   0.00000  Uiso   1.00
C620   C     0.17443   0.64530   0.54205   0.00000  Uiso   1.00
H621   H     0.15311   0.37063   0.42497   0.00000  Uiso   1.00
H622   H     0.18022   0.62937   0.57503   0.00000  Uiso   1.00
C623   C     0.15683   0.64555   0.45740   0.00000  Uiso   1.00
C624   C     0.17650   0.35445   0.54260   0.00000  Uiso   1.00
C625   C     0.16538   0.62385   0.49962   0.00000  Uiso   1.00
C626   C     0.16796   0.37615   0.50038   0.00000  Uiso   1.00
C627   C     0.12946   0.47831   0.35378   0.00000  Uiso   1.00
C628   C     0.20387   0.52170   0.64622   0.00000  Uiso   1.00
C629   C     0.12981   0.47793   0.63778   0.00000  Uiso   1.00
C630   C     0.20352   0.52207   0.36223   0.00000  Uiso   1.00
N631   N     0.32826   0.45184   0.46311   0.00000  Uiso   1.00
O632   O     0.29673   0.45205   0.42458   0.00000  Uiso   1.00
O633   O     0.01729   0.41791   0.47589   0.00000  Uiso   1.00
N634   N     0.00506   0.54818   0.53690   0.00000  Uiso   1.00
O635   O     0.03666   0.54797   0.57539   0.00000  Uiso   1.00
O636   O     0.31591   0.58209   0.52423   0.00000  Uiso   1.00
F637   F     0.14529   0.62606   0.41564   0.00000  Uiso   1.00
F638   F     0.18804   0.37394   0.58436   0.00000  Uiso   1.00
N639   N     0.08842   0.45665   0.37273   0.00000  Uiso   1.00
O640   O     0.04297   0.47212   0.36747   0.00000  Uiso   1.00
O641   O     0.09213   0.41766   0.38138   0.00000  Uiso   1.00
N642   N     0.24491   0.54336   0.62727   0.00000  Uiso   1.00
O643   O     0.29036   0.52789   0.63252   0.00000  Uiso   1.00
O644   O     0.24120   0.58235   0.61863   0.00000  Uiso   1.00
N645   N     0.09197   0.45292   0.60971   0.00000  Uiso   1.00
O646   O     0.04449   0.46421   0.60341   0.00000  Uiso   1.00
O647   O     0.10112   0.41454   0.60318   0.00000  Uiso   1.00
N648   N     0.24136   0.54709   0.39029   0.00000  Uiso   1.00
O649   O     0.28884   0.53580   0.39658   0.00000  Uiso   1.00
O650   O     0.23221   0.58546   0.39682   0.00000  Uiso   1.00
O651   O     0.50000   0.43989   0.53958   0.00000  Uiso   1.00
O652   O     0.50000   0.56011   0.46042   0.00000  Uiso   1.00
O653   O     0.50000   0.43988   0.46039   0.00000  Uiso   1.00
O654   O     0.50000   0.56012   0.53961   0.00000  Uiso   1.00
C655   C     0.50074   0.42081   0.50015   0.00000  Uiso   1.00
C656   C     0.49926   0.57919   0.49985   0.00000  Uiso   1.00
O657   O     0.42495   0.50000   0.53046   0.00000  Uiso   1.00
O658   O     0.57505   0.50000   0.46954   0.00000  Uiso   1.00
O659   O     0.42494   0.49999   0.45127   0.00000  Uiso   1.00
O660   O     0.57506   0.50001   0.54873   0.00000  Uiso   1.00
C661   C     0.40155   0.49888   0.48866   0.00000  Uiso   1.00
C662   C     0.59845   0.50113   0.51134   0.00000  Uiso   1.00
Cu663  Cu    0.50000   0.50001   0.54689   0.00000  Uiso   1.00
Cu664  Cu    0.50000   0.49999   0.45311   0.00000  Uiso   1.00
N665   N     0.50001   0.50001   0.61736   0.00000  Uiso   1.00
N666   N     0.49999   0.49999   0.38264   0.00000  Uiso   1.00
C667   C     0.34720   0.48984   0.48562   0.00000  Uiso   1.00
C668   C     0.65279   0.51018   0.51438   0.00000  Uiso   1.00
C669   C     0.49224   0.35470   0.45795   0.00000  Uiso   1.00
C670   C     0.50776   0.64530   0.54205   0.00000  Uiso   1.00
H671   H     0.48644   0.37063   0.42497   0.00000  Uiso   1.00
H672   H     0.51355   0.62937   0.57503   0.00000  Uiso   1.00
C673   C     0.49016   0.64555   0.45740   0.00000  Uiso   1.00
C674   C     0.50983   0.35445   0.54260   0.00000  Uiso   1.00
C675   C     0.49871   0.62385   0.49962   0.00000  Uiso   1.00
C676   C     0.50129   0.37615   0.50038   0.00000  Uiso   1.00
C677   C     0.46279   0.47831   0.35378   0.00000  Uiso   1.00
C678   C     0.53721   0.52170   0.64622   0.00000  Uiso   1.00
C679   C     0.46315   0.47793   0.63778   0.00000  Uiso   1.00
C680   C     0.53685   0.52207   0.36223   0.00000  Uiso   1.00
N681   N     0.66160   0.45184   0.46311   0.00000  Uiso   1.00
O682   O     0.63006   0.45205   0.42458   0.00000  Uiso   1.00
O683   O     0.35062   0.41791   0.47589   0.00000  Uiso   1.00
N684   N     0.33839   0.54818   0.53690   0.00000  Uiso   1.00
O685   O     0.37000   0.54797   0.57539   0.00000  Uiso   1.00
O686   O     0.64925   0.58209   0.52423   0.00000  Uiso   1.00
F687   F     0.47863   0.62606   0.41564   0.00000  Uiso   1.00
F688   F     0.52137   0.37394   0.58436   0.00000  Uiso   1.00
N689   N     0.42175   0.45665   0.37273   0.00000  Uiso   1.00
O690   O     0.37630   0.47212   0.36747   0.00000  Uiso   1.00
O691   O     0.42546   0.41766   0.38138   0.00000  Uiso   1.00
N692   N     0.57824   0.54336   0.62727   0.00000  Uiso   1.00
O693   O     0.62370   0.52789   0.63252   0.00000  Uiso   1.00
O694   O     0.57453   0.58235   0.61863   0.00000  Uiso   1.00
N695   N     0.42531   0.45292   0.60971   0.00000  Uiso   1.00
O696   O     0.37782   0.46421   0.60341   0.00000  Uiso   1.00
O697   O     0.43445   0.41454   0.60318   0.00000  Uiso   1.00
N698   N     0.57469   0.54709   0.39029   0.00000  Uiso   1.00
O699   O     0.62218   0.53580   0.39658   0.00000  Uiso   1.00
O700   O     0.56554   0.58546   0.39682   0.00000  Uiso   1.00
O701   O     0.83333   0.43989   0.53958   0.00000  Uiso   1.00
O702   O     0.83334   0.56011   0.46042   0.00000  Uiso   1.00
O703   O     0.83333   0.43988   0.46039   0.00000  Uiso   1.00
O704   O     0.83334   0.56012   0.53961   0.00000  Uiso   1.00
C705   C     0.83407   0.42081   0.50015   0.00000  Uiso   1.00
C706   C     0.83259   0.57919   0.49985   0.00000  Uiso   1.00
O707   O     0.75828   0.50000   0.53046   0.00000  Uiso   1.00
O708   O     0.90839   0.50000   0.46954   0.00000  Uiso   1.00
O709   O     0.75828   0.49999   0.45127   0.00000  Uiso   1.00
O710   O     0.90839   0.50001   0.54873   0.00000  Uiso   1.00
C711   C     0.73488   0.49888   0.48866   0.00000  Uiso   1.00
C712   C     0.93178   0.50113   0.51134   0.00000  Uiso   1.00
Cu713  Cu    0.83333   0.50001   0.54689   0.00000  Uiso   1.00
Cu714  Cu    0.83333   0.49999   0.45311   0.00000  Uiso   1.00
N715   N     0.83335   0.50001   0.61736   0.00000  Uiso   1.00
N716   N     0.83332   0.49999   0.38264   0.00000  Uiso   1.00
C717   C     0.68054   0.48984   0.48562   0.00000  Uiso   1.00
C718   C     0.98613   0.51018   0.51438   0.00000  Uiso   1.00
C719   C     0.82557   0.35470   0.45795   0.00000  Uiso   1.00
C720   C     0.84109   0.64530   0.54205   0.00000  Uiso   1.00
H721   H     0.81978   0.37063   0.42497   0.00000  Uiso   1.00
H722   H     0.84689   0.62937   0.57503   0.00000  Uiso   1.00
C723   C     0.82350   0.64555   0.45740   0.00000  Uiso   1.00
C724   C     0.84317   0.35445   0.54260   0.00000  Uiso   1.00
C725   C     0.83204   0.62385   0.49962   0.00000  Uiso   1.00
C726   C     0.83462   0.37615   0.50038   0.00000  Uiso   1.00
C727   C     0.79613   0.47831   0.35378   0.00000  Uiso   1.00
C728   C     0.87054   0.52170   0.64622   0.00000  Uiso   1.00
C729   C     0.79648   0.47793   0.63778   0.00000  Uiso   1.00
C730   C     0.87019   0.52207   0.36223   0.00000  Uiso   1.00
N731   N     0.99493   0.45184   0.46311   0.00000  Uiso   1.00
O732   O     0.96340   0.45205   0.42458   0.00000  Uiso   1.00
O733   O     0.68396   0.41791   0.47589   0.00000  Uiso   1.00
N734   N     0.67172   0.54818   0.53690   0.00000  Uiso   1.00
O735   O     0.70333   0.54797   0.57539   0.00000  Uiso   1.00
O736   O     0.98258   0.58209   0.52423   0.00000  Uiso   1.00
F737   F     0.81196   0.62606   0.41564   0.00000  Uiso   1.00
F738   F     0.85470   0.37394   0.58436   0.00000  Uiso   1.00
N739   N     0.75509   0.45665   0.37273   0.00000  Uiso   1.00
O740   O     0.70963   0.47212   0.36747   0.00000  Uiso   1.00
O741   O     0.75880   0.41766   0.38138   0.00000  Uiso   1.00
N742   N     0.91158   0.54336   0.62727   0.00000  Uiso   1.00
O743   O     0.95703   0.52789   0.63252   0.00000  Uiso   1.00
O744   O     0.90786   0.58235   0.61863   0.00000  Uiso   1.00
N745   N     0.75864   0.45292   0.60971   0.00000  Uiso   1.00
O746   O     0.71116   0.46421   0.60341   0.00000  Uiso   1.00
O747   O     0.76778   0.41454   0.60318   0.00000  Uiso   1.00
N748   N     0.90802   0.54709   0.39029   0.00000  Uiso   1.00
O749   O     0.95551   0.53580   0.39658   0.00000  Uiso   1.00
O750   O     0.89887   0.58546   0.39682   0.00000  Uiso   1.00
O751   O     0.16666   0.77322   0.53958   0.00000  Uiso   1.00
O752   O     0.16667   0.89345   0.46042   0.00000  Uiso   1.00
O753   O     0.16666   0.77321   0.46039   0.00000  Uiso   1.00
O754   O     0.16667   0.89346   0.53961   0.00000  Uiso   1.00
C755   C     0.16740   0.75414   0.50015   0.00000  Uiso   1.00
C756   C     0.16593   0.91253   0.49985   0.00000  Uiso   1.00
O757   O     0.09161   0.83334   0.53046   0.00000  Uiso   1.00
O758   O     0.24172   0.83333   0.46954   0.00000  Uiso   1.00
O759   O     0.09161   0.83333   0.45127   0.00000  Uiso   1.00
O760   O     0.24172   0.83334   0.54873   0.00000  Uiso   1.00
C761   C     0.06821   0.83221   0.48866   0.00000  Uiso   1.00
C762   C     0.26512   0.83446   0.51134   0.00000  Uiso   1.00
Cu763  Cu    0.16667   0.83334   0.54689   0.00000  Uiso   1.00
Cu764  Cu    0.16667   0.83333   0.45311   0.00000  Uiso   1.00
N765   N     0.16668   0.83334   0.61736   0.00000  Uiso   1.00
N766   N     0.16665   0.83332   0.38264   0.00000  Uiso   1.00
C767   C     0.01387   0.82318   0.48562   0.00000  Uiso   1.00
C768   C     0.31946   0.84351   0.51438   0.00000  Uiso   1.00
C769   C     0.15890   0.68803   0.45795   0.00000  Uiso   1.00
C770   C     0.17443   0.97864   0.54205   0.00000  Uiso   1.00
H771   H     0.15311   0.70396   0.42497   0.00000  Uiso   1.00
H772   H     0.18022   0.96270   0.57503   0.00000  Uiso   1.00
C773   C     0.15683   0.97888   0.45740   0.00000  Uiso   1.00
C774   C     0.17650   0.68779   0.54260   0.00000  Uiso   1.00
C775   C     0.16538   0.95718   0.49962   0.00000  Uiso   1.00
C776   C     0.16796   0.70949   0.50038   0.00000  Uiso   1.00
C777   C     0.12946   0.81164   0.35378   0.00000  Uiso   1.00
C778   C     0.20387   0.85503   0.64622   0.00000  Uiso   1.00
C779   C     0.12981   0.81127   0.63778   0.00000  Uiso   1.00
C780   C     0.20352   0.85540   0.36223   0.00000  Uiso   1.00
N781   N     0.32826   0.78517   0.46311   0.00000  Uiso   1.00
O782   O     0.29673   0.78538   0.42458   0.00000  Uiso   1.00
O783   O     0.01729   0.75124   0.47589   0.00000  Uiso   1.00
N784   N     0.00506   0.88151   0.53690   0.00000  Uiso   1.00
O785   O     0.03666   0.88131   0.57539   0.00000  Uiso   1.00
O786   O     0.31591   0.91542   0.52423   0.00000  Uiso   1.00
F787   F     0.14529   0.95939   0.41564   0.00000  Uiso   1.00
F788   F     0.18804   0.70727   0.58436   0.00000  Uiso   1.00
N789   N     0.08842   0.78998   0.37273   0.00000  Uiso   1.00
O790   O     0.04297   0.80545   0.36747   0.00000  Uiso   1.00
O791   O     0.09213   0.75099   0.38138   0.00000  Uiso   1.00
N792   N     0.24491   0.87669   0.62727   0.00000  Uiso   1.00
O793   O     0.29036   0.86122   0.63252   0.00000  Uiso   1.00
O794   O     0.24120   0.91568   0.61863   0.00000  Uiso   1.00
N795   N     0.09197   0.78625   0.60971   0.00000  Uiso   1.00
O796   O     0.04449   0.79754   0.60341   0.00000  Uiso   1.00
O797   O     0.10112   0.74787   0.60318   0.00000  Uiso   1.00
N798   N     0.24136   0.88042   0.39029   0.00000  Uiso   1.00
O799   O     0.28884   0.86914   0.39658   0.00000  Uiso   1.00
O800   O     0.23221   0.91879   0.39682   0.00000  Uiso   1.00
O801   O     0.50000   0.77322   0.53958   0.00000  Uiso   1.00
O802   O     0.50000   0.89345   0.46042   0.00000  Uiso   1.00
O803   O     0.50000   0.77321   0.46039   0.00000  Uiso   1.00
O804   O     0.50000   0.89346   0.53961   0.00000  Uiso   1.00
C805   C     0.50074   0.75414   0.50015   0.00000  Uiso   1.00
C806   C     0.49926   0.91253   0.49985   0.00000  Uiso   1.00
O807   O     0.42495   0.83334   0.53046   0.00000  Uiso   1.00
O808   O     0.57505   0.83333   0.46954   0.00000  Uiso   1.00
O809   O     0.42494   0.83333   0.45127   0.00000  Uiso   1.00
O810   O     0.57506   0.83334   0.54873   0.00000  Uiso   1.00
C811   C     0.40155   0.83221   0.48866   0.00000  Uiso   1.00
C812   C     0.59845   0.83446   0.51134   0.00000  Uiso   1.00
Cu813  Cu    0.50000   0.83334   0.54689   0.00000  Uiso   1.00
Cu814  Cu    0.50000   0.83333   0.45311   0.00000  Uiso   1.00
N815   N     0.50001   0.83334   0.61736   0.00000  Uiso   1.00
N816   N     0.49999   0.83332   0.38264   0.00000  Uiso   1.00
C817   C     0.34720   0.82318   0.48562   0.00000  Uiso   1.00
C818   C     0.65279   0.84351   0.51438   0.00000  Uiso   1.00
C819   C     0.49224   0.68803   0.45795   0.00000  Uiso   1.00
C820   C     0.50776   0.97864   0.54205   0.00000  Uiso   1.00
H821   H     0.48644   0.70396   0.42497   0.00000  Uiso   1.00
H822   H     0.51355   0.96270   0.57503   0.00000  Uiso   1.00
C823   C     0.49016   0.97888   0.45740   0.00000  Uiso   1.00
C824   C     0.50983   0.68779   0.54260   0.00000  Uiso   1.00
C825   C     0.49871   0.95718   0.49962   0.00000  Uiso   1.00
C826   C     0.50129   0.70949   0.50038   0.00000  Uiso   1.00
C827   C     0.46279   0.81164   0.35378   0.00000  Uiso   1.00
C828   C     0.53721   0.85503   0.64622   0.00000  Uiso   1.00
C829   C     0.46315   0.81127   0.63778   0.00000  Uiso   1.00
C830   C     0.53685   0.85540   0.36223   0.00000  Uiso   1.00
N831   N     0.66160   0.78517   0.46311   0.00000  Uiso   1.00
O832   O     0.63006   0.78538   0.42458   0.00000  Uiso   1.00
O833   O     0.35062   0.75124   0.47589   0.00000  Uiso   1.00
N834   N     0.33839   0.88151   0.53690   0.00000  Uiso   1.00
O835   O     0.37000   0.88131   0.57539   0.00000  Uiso   1.00
O836   O     0.64925   0.91542   0.52423   0.00000  Uiso   1.00
F837   F     0.47863   0.95939   0.41564   0.00000  Uiso   1.00
F838   F     0.52137   0.70727   0.58436   0.00000  Uiso   1.00
N839   N     0.42175   0.78998   0.37273   0.00000  Uiso   1.00
O840   O     0.37630   0.80545   0.36747   0.00000  Uiso   1.00
O841   O     0.42546   0.75099   0.38138   0.00000  Uiso   1.00
N842   N     0.57824   0.87669   0.62727   0.00000  Uiso   1.00
O843   O     0.62370   0.86122   0.63252   0.00000  Uiso   1.00
O844   O     0.57453   0.91568   0.61863   0.00000  Uiso   1.00
N845   N     0.42531   0.78625   0.60971   0.00000  Uiso   1.00
O846   O     0.37782   0.79754   0.60341   0.00000  Uiso   1.00
O847   O     0.43445   0.74787   0.60318   0.00000  Uiso   1.00
N848   N     0.57469   0.88042   0.39029   0.00000  Uiso   1.00
O849   O     0.62218   0.86914   0.39658   0.00000  Uiso   1.00
O850   O     0.56554   0.91879   0.39682   0.00000  Uiso   1.00
O851   O     0.83333   0.77322   0.53958   0.00000  Uiso   1.00
O852   O     0.83334   0.89345   0.46042   0.00000  Uiso   1.00
O853   O     0.83333   0.77321   0.46039   0.00000  Uiso   1.00
O854   O     0.83334   0.89346   0.53961   0.00000  Uiso   1.00
C855   C     0.83407   0.75414   0.50015   0.00000  Uiso   1.00
C856   C     0.83259   0.91253   0.49985   0.00000  Uiso   1.00
O857   O     0.75828   0.83334   0.53046   0.00000  Uiso   1.00
O858   O     0.90839   0.83333   0.46954   0.00000  Uiso   1.00
O859   O     0.75828   0.83333   0.45127   0.00000  Uiso   1.00
O860   O     0.90839   0.83334   0.54873   0.00000  Uiso   1.00
C861   C     0.73488   0.83221   0.48866   0.00000  Uiso   1.00
C862   C     0.93178   0.83446   0.51134   0.00000  Uiso   1.00
Cu863  Cu    0.83333   0.83334   0.54689   0.00000  Uiso   1.00
Cu864  Cu    0.83333   0.83333   0.45311   0.00000  Uiso   1.00
N865   N     0.83335   0.83334   0.61736   0.00000  Uiso   1.00
N866   N     0.83332   0.83332   0.38264   0.00000  Uiso   1.00
C867   C     0.68054   0.82318   0.48562   0.00000  Uiso   1.00
C868   C     0.98613   0.84351   0.51438   0.00000  Uiso   1.00
C869   C     0.82557   0.68803   0.45795   0.00000  Uiso   1.00
C870   C     0.84109   0.97864   0.54205   0.00000  Uiso   1.00
H871   H     0.81978   0.70396   0.42497   0.00000  Uiso   1.00
H872   H     0.84689   0.96270   0.57503   0.00000  Uiso   1.00
C873   C     0.82350   0.97888   0.45740   0.00000  Uiso   1.00
C874   C     0.84317   0.68779   0.54260   0.00000  Uiso   1.00
C875   C     0.83204   0.95718   0.49962   0.00000  Uiso   1.00
C876   C     0.83462   0.70949   0.50038   0.00000  Uiso   1.00
C877   C     0.79613   0.81164   0.35378   0.00000  Uiso   1.00
C878   C     0.87054   0.85503   0.64622   0.00000  Uiso   1.00
C879   C     0.79648   0.81127   0.63778   0.00000  Uiso   1.00
C880   C     0.87019   0.85540   0.36223   0.00000  Uiso   1.00
N881   N     0.99493   0.78517   0.46311   0.00000  Uiso   1.00
O882   O     0.96340   0.78538   0.42458   0.00000  Uiso   1.00
O883   O     0.68396   0.75124   0.47589   0.00000  Uiso   1.00
N884   N     0.67172   0.88151   0.53690   0.00000  Uiso   1.00
O885   O     0.70333   0.88131   0.57539   0.00000  Uiso   1.00
O886   O     0.98258   0.91542   0.52423   0.00000  Uiso   1.00
F887   F     0.81196   0.95939   0.41564   0.00000  Uiso   1.00
F888   F     0.85470   0.70727   0.58436   0.00000  Uiso   1.00
N889   N     0.75509   0.78998   0.37273   0.00000  Uiso   1.00
O890   O     0.70963   0.80545   0.36747   0.00000  Uiso   1.00
O891   O     0.75880   0.75099   0.38138   0.00000  Uiso   1.00
N892   N     0.91158   0.87669   0.62727   0.00000  Uiso   1.00
O893   O     0.95703   0.86122   0.63252   0.00000  Uiso   1.00
O894   O     0.90786   0.91568   0.61863   0.00000  Uiso   1.00
N895   N     0.75864   0.78625   0.60971   0.00000  Uiso   1.00
O896   O     0.71116   0.79754   0.60341   0.00000  Uiso   1.00
O897   O     0.76778   0.74787   0.60318   0.00000  Uiso   1.00
N898   N     0.90802   0.88042   0.39029   0.00000  Uiso   1.00
O899   O     0.95551   0.86914   0.39658   0.00000  Uiso   1.00
O900   O     0.89887   0.91879   0.39682   0.00000  Uiso   1.00
O901   O     0.16666   0.10655   0.87291   0.00000  Uiso   1.00
O902   O     0.16667   0.22678   0.79375   0.00000  Uiso   1.00
O903   O     0.16666   0.10654   0.79372   0.00000  Uiso   1.00
O904   O     0.16667   0.22679   0.87294   0.00000  Uiso   1.00
C905   C     0.16740   0.08747   0.83349   0.00000  Uiso   1.00
C906   C     0.16593   0.24586   0.83318   0.00000  Uiso   1.00
O907   O     0.09161   0.16667   0.86379   0.00000  Uiso   1.00
O908   O     0.24172   0.16666   0.80288   0.00000  Uiso   1.00
O909   O     0.09161   0.16666   0.78460   0.00000  Uiso   1.00
O910   O     0.24172   0.16667   0.88207   0.00000  Uiso   1.00
C911   C     0.06821   0.16555   0.82199   0.00000  Uiso   1.00
C912   C     0.26512   0.16779   0.84468   0.00000  Uiso   1.00
Cu913  Cu    0.16667   0.16667   0.88022   0.00000  Uiso   1.00
Cu914  Cu    0.16667   0.16666   0.78645   0.00000  Uiso   1.00
N915   N     0.16668   0.16668   0.95069   0.00000  Uiso   1.00
N916   N     0.16665   0.16666   0.71597   0.00000  Uiso   1.00
C917   C     0.01387   0.15651   0.81896   0.00000  Uiso   1.00
C918   C     0.31946   0.17684   0.84772   0.00000  Uiso   1.00
C919   C     0.15890   0.02136   0.79128   0.00000  Uiso   1.00
C920   C     0.17443   0.31197   0.87539   0.00000  Uiso   1.00
H921   H     0.15311   0.03730   0.75830   0.00000  Uiso   1.00
H922   H     0.18022   0.29604   0.90837   0.00000  Uiso   1.00
C923   C     0.15683   0.31221   0.79073   0.00000  Uiso   1.00
C924   C     0.17650   0.02112   0.87593   0.00000  Uiso   1.00
C925   C     0.16538   0.29051   0.83295   0.00000  Uiso   1.00
C926   C     0.16796   0.04282   0.83372   0.00000  Uiso   1.00
C927   C     0.12946   0.14497   0.68711   0.00000  Uiso   1.00
C928   C     0.20387   0.18836   0.97956   0.00000  Uiso   1.00
C929   C     0.12981   0.14460   0.97111   0.00000  Uiso   1.00
C930   C     0.20352   0.18873   0.69556   0.00000  Uiso   1.00
N931   N     0.32826   0.11851   0.79644   0.00000  Uiso   1.00
O932   O     0.29673   0.11871   0.75791   0.00000  Uiso   1.00
O933   O     0.01729   0.08457   0.80923   0.00000  Uiso   1.00
N934   N     0.00506   0.21485   0.87024   0.00000  Uiso   1.00
O935   O     0.03666   0.21464   0.90872   0.00000  Uiso   1.00
O936   O     0.31591   0.24875   0.85757   0.00000  Uiso   1.00
F937   F     0.14529   0.29273   0.74897   0.00000  Uiso   1.00
F938   F     0.18804   0.04061   0.91769   0.00000  Uiso   1.00
N939   N     0.08842   0.12331   0.70606   0.00000  Uiso   1.00
O940   O     0.04297   0.13879   0.70080   0.00000  Uiso   1.00
O941   O     0.09213   0.08432   0.71471   0.00000  Uiso   1.00
N942   N     0.24491   0.21003   0.96060   0.00000  Uiso   1.00
O943   O     0.29036   0.19456   0.96585   0.00000  Uiso   1.00
O944   O     0.24120   0.24902   0.95197   0.00000  Uiso   1.00
N945   N     0.09197   0.11958   0.94305   0.00000  Uiso   1.00
O946   O     0.04449   0.13087   0.93675   0.00000  Uiso   1.00
O947   O     0.10112   0.08121   0.93652   0.00000  Uiso   1.00
N948   N     0.24136   0.21375   0.72362   0.00000  Uiso   1.00
O949   O     0.28884   0.20247   0.72992   0.00000  Uiso   1.00
O950   O     0.23221   0.25213   0.73015   0.00000  Uiso   1.00
O951   O     0.50000   0.10655   0.87291   0.00000  Uiso   1.00
O952   O     0.50000   0.22678   0.79375   0.00000  Uiso   1.00
O953   O     0.50000   0.10654   0.79372   0.00000  Uiso   1.00
O954   O     0.50000   0.22679   0.87294   0.00000  Uiso   1.00
C955   C     0.50074   0.08747   0.83349   0.00000  Uiso   1.00
C956   C     0.49926   0.24586   0.83318   0.00000  Uiso   1.00
O957   O     0.42495   0.16667   0.86379   0.00000  Uiso   1.00
O958   O     0.57505   0.16666   0.80288   0.00000  Uiso   1.00
O959   O     0.42494   0.16666   0.78460   0.00000  Uiso   1.00
O960   O     0.57506   0.16667   0.88207   0.00000  Uiso   1.00
C961   C     0.40155   0.16555   0.82199   0.00000  Uiso   1.00
C962   C     0.59845   0.16779   0.84468   0.00000  Uiso   1.00
Cu963  Cu    0.50000   0.16667   0.88022   0.00000  Uiso   1.00
Cu964  Cu    0.50000   0.16666   0.78645   0.00000  Uiso   1.00
N965   N     0.50001   0.16668   0.95069   0.00000  Uiso   1.00
N966   N     0.49999   0.16666   0.71597   0.00000  Uiso   1.00
C967   C     0.34720   0.15651   0.81896   0.00000  Uiso   1.00
C968   C     0.65279   0.17684   0.84772   0.00000  Uiso   1.00
C969   C     0.49224   0.02136   0.79128   0.00000  Uiso   1.00
C970   C     0.50776   0.31197   0.87539   0.00000  Uiso   1.00
H971   H     0.48644   0.03730   0.75830   0.00000  Uiso   1.00
H972   H     0.51355   0.29604   0.90837   0.00000  Uiso   1.00
C973   C     0.49016   0.31221   0.79073   0.00000  Uiso   1.00
C974   C     0.50983   0.02112   0.87593   0.00000  Uiso   1.00
C975   C     0.49871   0.29051   0.83295   0.00000  Uiso   1.00
C976   C     0.50129   0.04282   0.83372   0.00000  Uiso   1.00
C977   C     0.46279   0.14497   0.68711   0.00000  Uiso   1.00
C978   C     0.53721   0.18836   0.97956   0.00000  Uiso   1.00
C979   C     0.46315   0.14460   0.97111   0.00000  Uiso   1.00
C980   C     0.53685   0.18873   0.69556   0.00000  Uiso   1.00
N981   N     0.66160   0.11851   0.79644   0.00000  Uiso   1.00
O982   O     0.63006   0.11871   0.75791   0.00000  Uiso   1.00
O983   O     0.35062   0.08457   0.80923   0.00000  Uiso   1.00
N984   N     0.33839   0.21485   0.87024   0.00000  Uiso   1.00
O985   O     0.37000   0.21464   0.90872   0.00000  Uiso   1.00
O986   O     0.64925   0.24875   0.85757   0.00000  Uiso   1.00
F987   F     0.47863   0.29273   0.74897   0.00000  Uiso   1.00
F988   F     0.52137   0.04061   0.91769   0.00000  Uiso   1.00
N989   N     0.42175   0.12331   0.70606   0.00000  Uiso   1.00
O990   O     0.37630   0.13879   0.70080   0.00000  Uiso   1.00
O991   O     0.42546   0.08432   0.71471   0.00000  Uiso   1.00
N992   N     0.57824   0.21003   0.96060   0.00000  Uiso   1.00
O993   O     0.62370   0.19456   0.96585   0.00000  Uiso   1.00
O994   O     0.57453   0.24902   0.95197   0.00000  Uiso   1.00
N995   N     0.42531   0.11958   0.94305   0.00000  Uiso   1.00
O996   O     0.37782   0.13087   0.93675   0.00000  Uiso   1.00
O997   O     0.43445   0.08121   0.93652   0.00000  Uiso   1.00
N998   N     0.57469   0.21375   0.72362   0.00000  Uiso   1.00
O999   O     0.62218   0.20247   0.72992   0.00000  Uiso   1.00
O1000  O     0.56554   0.25213   0.73015   0.00000  Uiso   1.00
O1001  O     0.83333   0.10655   0.87291   0.00000  Uiso   1.00
O1002  O     0.83334   0.22678   0.79375   0.00000  Uiso   1.00
O1003  O     0.83333   0.10654   0.79372   0.00000  Uiso   1.00
O1004  O     0.83334   0.22679   0.87294   0.00000  Uiso   1.00
C1005  C     0.83407   0.08747   0.83349   0.00000  Uiso   1.00
C1006  C     0.83259   0.24586   0.83318   0.00000  Uiso   1.00
O1007  O     0.75828   0.16667   0.86379   0.00000  Uiso   1.00
O1008  O     0.90839   0.16666   0.80288   0.00000  Uiso   1.00
O1009  O     0.75828   0.16666   0.78460   0.00000  Uiso   1.00
O1010  O     0.90839   0.16667   0.88207   0.00000  Uiso   1.00
C1011  C     0.73488   0.16555   0.82199   0.00000  Uiso   1.00
C1012  C     0.93178   0.16779   0.84468   0.00000  Uiso   1.00
Cu1013 Cu    0.83333   0.16667   0.88022   0.00000  Uiso   1.00
Cu1014 Cu    0.83333   0.16666   0.78645   0.00000  Uiso   1.00
N1015  N     0.83335   0.16668   0.95069   0.00000  Uiso   1.00
N1016  N     0.83332   0.16666   0.71597   0.00000  Uiso   1.00
C1017  C     0.68054   0.15651   0.81896   0.00000  Uiso   1.00
C1018  C     0.98613   0.17684   0.84772   0.00000  Uiso   1.00
C1019  C     0.82557   0.02136   0.79128   0.00000  Uiso   1.00
C1020  C     0.84109   0.31197   0.87539   0.00000  Uiso   1.00
H1021  H     0.81978   0.03730   0.75830   0.00000  Uiso   1.00
H1022  H     0.84689   0.29604   0.90837   0.00000  Uiso   1.00
C1023  C     0.82350   0.31221   0.79073   0.00000  Uiso   1.00
C1024  C     0.84317   0.02112   0.87593   0.00000  Uiso   1.00
C1025  C     0.83204   0.29051   0.83295   0.00000  Uiso   1.00
C1026  C     0.83462   0.04282   0.83372   0.00000  Uiso   1.00
C1027  C     0.79613   0.14497   0.68711   0.00000  Uiso   1.00
C1028  C     0.87054   0.18836   0.97956   0.00000  Uiso   1.00
C1029  C     0.79648   0.14460   0.97111   0.00000  Uiso   1.00
C1030  C     0.87019   0.18873   0.69556   0.00000  Uiso   1.00
N1031  N     0.99493   0.11851   0.79644   0.00000  Uiso   1.00
O1032  O     0.96340   0.11871   0.75791   0.00000  Uiso   1.00
O1033  O     0.68396   0.08457   0.80923   0.00000  Uiso   1.00
N1034  N     0.67172   0.21485   0.87024   0.00000  Uiso   1.00
O1035  O     0.70333   0.21464   0.90872   0.00000  Uiso   1.00
O1036  O     0.98258   0.24875   0.85757   0.00000  Uiso   1.00
F1037  F     0.81196   0.29273   0.74897   0.00000  Uiso   1.00
F1038  F     0.85470   0.04061   0.91769   0.00000  Uiso   1.00
N1039  N     0.75509   0.12331   0.70606   0.00000  Uiso   1.00
O1040  O     0.70963   0.13879   0.70080   0.00000  Uiso   1.00
O1041  O     0.75880   0.08432   0.71471   0.00000  Uiso   1.00
N1042  N     0.91158   0.21003   0.96060   0.00000  Uiso   1.00
O1043  O     0.95703   0.19456   0.96585   0.00000  Uiso   1.00
O1044  O     0.90786   0.24902   0.95197   0.00000  Uiso   1.00
N1045  N     0.75864   0.11958   0.94305   0.00000  Uiso   1.00
O1046  O     0.71116   0.13087   0.93675   0.00000  Uiso   1.00
O1047  O     0.76778   0.08121   0.93652   0.00000  Uiso   1.00
N1048  N     0.90802   0.21375   0.72362   0.00000  Uiso   1.00
O1049  O     0.95551   0.20247   0.72992   0.00000  Uiso   1.00
O1050  O     0.89887   0.25213   0.73015   0.00000  Uiso   1.00
O1051  O     0.16666   0.43989   0.87291   0.00000  Uiso   1.00
O1052  O     0.16667   0.56011   0.79375   0.00000  Uiso   1.00
O1053  O     0.16666   0.43988   0.79372   0.00000  Uiso   1.00
O1054  O     0.16667   0.56012   0.87294   0.00000  Uiso   1.00
C1055  C     0.16740   0.42081   0.83349   0.00000  Uiso   1.00
C1056  C     0.16593   0.57919   0.83318   0.00000  Uiso   1.00
O1057  O     0.09161   0.50000   0.86379   0.00000  Uiso   1.00
O1058  O     0.24172   0.50000   0.80288   0.00000  Uiso   1.00
O1059  O     0.09161   0.49999   0.78460   0.00000  Uiso   1.00
O1060  O     0.24172   0.50001   0.88207   0.00000  Uiso   1.00
C1061  C     0.06821   0.49888   0.82199   0.00000  Uiso   1.00
C1062  C     0.26512   0.50113   0.84468   0.00000  Uiso   1.00
Cu1063 Cu    0.16667   0.50001   0.88022   0.00000  Uiso   1.00
Cu1064 Cu    0.16667   0.49999   0.78645   0.00000  Uiso   1.00
N1065  N     0.16668   0.50001   0.95069   0.00000  Uiso   1.00
N1066  N     0.16665   0.49999   0.71597   0.00000  Uiso   1.00
C1067  C     0.01387   0.48984   0.81896   0.00000  Uiso   1.00
C1068  C     0.31946   0.51018   0.84772   0.00000  Uiso   1.00
C1069  C     0.15890   0.35470   0.79128   0.00000  Uiso   1.00
C1070  C     0.17443   0.64530   0.87539   0.00000  Uiso   1.00
H1071  H     0.15311   0.37063   0.75830   0.00000  Uiso   1.00
H1072  H     0.18022   0.62937   0.90837   0.00000  Uiso   1.00
C1073  C     0.15683   0.64555   0.79073   0.00000  Uiso   1.00
C1074  C     0.17650   0.35445   0.87593   0.00000  Uiso   1.00
C1075  C     0.16538   0.62385   0.83295   0.00000  Uiso   1.00
C1076  C     0.16796   0.37615   0.83372   0.00000  Uiso   1.00
C1077  C     0.12946   0.47831   0.68711   0.00000  Uiso   1.00
C1078  C     0.20387   0.52170   0.97956   0.00000  Uiso   1.00
C1079  C     0.12981   0.47793   0.97111   0.00000  Uiso   1.00
C1080  C     0.20352   0.52207   0.69556   0.00000  Uiso   1.00
N1081  N     0.32826   0.45184   0.79644   0.00000  Uiso   1.00
O1082  O     0.29673   0.45205   0.75791   0.00000  Uiso   1.00
O1083  O     0.01729   0.41791   0.80923   0.00000  Uiso   1.00
N1084  N     0.00506   0.54818   0.87024   0.00000  Uiso   1.00
O1085  O     0.03666   0.54797   0.90872   0.00000  Uiso   1.00
O1086  O     0.31591   0.58209   0.85757   0.00000  Uiso   1.00
F1087  F     0.14529   0.62606   0.74897   0.00000  Uiso   1.00
F1088  F     0.18804   0.37394   0.91769   0.00000  Uiso   1.00
N1089  N     0.08842   0.45665   0.70606   0.00000  Uiso   1.00
O1090  O     0.04297   0.47212   0.70080   0.00000  Uiso   1.00
O1091  O     0.09213   0.41766   0.71471   0.00000  Uiso   1.00
N1092  N     0.24491   0.54336   0.96060   0.00000  Uiso   1.00
O1093  O     0.29036   0.52789   0.96585   0.00000  Uiso   1.00
O1094  O     0.24120   0.58235   0.95197   0.00000  Uiso   1.00
N1095  N     0.09197   0.45292   0.94305   0.00000  Uiso   1.00
O1096  O     0.04449   0.46421   0.93675   0.00000  Uiso   1.00
O1097  O     0.10112   0.41454   0.93652   0.00000  Uiso   1.00
N1098  N     0.24136   0.54709   0.72362   0.00000  Uiso   1.00
O1099  O     0.28884   0.53580   0.72992   0.00000  Uiso   1.00
O1100  O     0.23221   0.58546   0.73015   0.00000  Uiso   1.00
O1101  O     0.50000   0.43989   0.87291   0.00000  Uiso   1.00
O1102  O     0.50000   0.56011   0.79375   0.00000  Uiso   1.00
O1103  O     0.50000   0.43988   0.79372   0.00000  Uiso   1.00
O1104  O     0.50000   0.56012   0.87294   0.00000  Uiso   1.00
C1105  C     0.50074   0.42081   0.83349   0.00000  Uiso   1.00
C1106  C     0.49926   0.57919   0.83318   0.00000  Uiso   1.00
O1107  O     0.42495   0.50000   0.86379   0.00000  Uiso   1.00
O1108  O     0.57505   0.50000   0.80288   0.00000  Uiso   1.00
O1109  O     0.42494   0.49999   0.78460   0.00000  Uiso   1.00
O1110  O     0.57506   0.50001   0.88207   0.00000  Uiso   1.00
C1111  C     0.40155   0.49888   0.82199   0.00000  Uiso   1.00
C1112  C     0.59845   0.50113   0.84468   0.00000  Uiso   1.00
Cu1113 Cu    0.50000   0.50001   0.88022   0.00000  Uiso   1.00
Cu1114 Cu    0.50000   0.49999   0.78645   0.00000  Uiso   1.00
N1115  N     0.50001   0.50001   0.95069   0.00000  Uiso   1.00
N1116  N     0.49999   0.49999   0.71597   0.00000  Uiso   1.00
C1117  C     0.34720   0.48984   0.81896   0.00000  Uiso   1.00
C1118  C     0.65279   0.51018   0.84772   0.00000  Uiso   1.00
C1119  C     0.49224   0.35470   0.79128   0.00000  Uiso   1.00
C1120  C     0.50776   0.64530   0.87539   0.00000  Uiso   1.00
H1121  H     0.48644   0.37063   0.75830   0.00000  Uiso   1.00
H1122  H     0.51355   0.62937   0.90837   0.00000  Uiso   1.00
C1123  C     0.49016   0.64555   0.79073   0.00000  Uiso   1.00
C1124  C     0.50983   0.35445   0.87593   0.00000  Uiso   1.00
C1125  C     0.49871   0.62385   0.83295   0.00000  Uiso   1.00
C1126  C     0.50129   0.37615   0.83372   0.00000  Uiso   1.00
C1127  C     0.46279   0.47831   0.68711   0.00000  Uiso   1.00
C1128  C     0.53721   0.52170   0.97956   0.00000  Uiso   1.00
C1129  C     0.46315   0.47793   0.97111   0.00000  Uiso   1.00
C1130  C     0.53685   0.52207   0.69556   0.00000  Uiso   1.00
N1131  N     0.66160   0.45184   0.79644   0.00000  Uiso   1.00
O1132  O     0.63006   0.45205   0.75791   0.00000  Uiso   1.00
O1133  O     0.35062   0.41791   0.80923   0.00000  Uiso   1.00
N1134  N     0.33839   0.54818   0.87024   0.00000  Uiso   1.00
O1135  O     0.37000   0.54797   0.90872   0.00000  Uiso   1.00
O1136  O     0.64925   0.58209   0.85757   0.00000  Uiso   1.00
F1137  F     0.47863   0.62606   0.74897   0.00000  Uiso   1.00
F1138  F     0.52137   0.37394   0.91769   0.00000  Uiso   1.00
N1139  N     0.42175   0.45665   0.70606   0.00000  Uiso   1.00
O1140  O     0.37630   0.47212   0.70080   0.00000  Uiso   1.00
O1141  O     0.42546   0.41766   0.71471   0.00000  Uiso   1.00
N1142  N     0.57824   0.54336   0.96060   0.00000  Uiso   1.00
O1143  O     0.62370   0.52789   0.96585   0.00000  Uiso   1.00
O1144  O     0.57453   0.58235   0.95197   0.00000  Uiso   1.00
N1145  N     0.42531   0.45292   0.94305   0.00000  Uiso   1.00
O1146  O     0.37782   0.46421   0.93675   0.00000  Uiso   1.00
O1147  O     0.43445   0.41454   0.93652   0.00000  Uiso   1.00
N1148  N     0.57469   0.54709   0.72362   0.00000  Uiso   1.00
O1149  O     0.62218   0.53580   0.72992   0.00000  Uiso   1.00
O1150  O     0.56554   0.58546   0.73015   0.00000  Uiso   1.00
O1151  O     0.83333   0.43989   0.87291   0.00000  Uiso   1.00
O1152  O     0.83334   0.56011   0.79375   0.00000  Uiso   1.00
O1153  O     0.83333   0.43988   0.79372   0.00000  Uiso   1.00
O1154  O     0.83334   0.56012   0.87294   0.00000  Uiso   1.00
C1155  C     0.83407   0.42081   0.83349   0.00000  Uiso   1.00
C1156  C     0.83259   0.57919   0.83318   0.00000  Uiso   1.00
O1157  O     0.75828   0.50000   0.86379   0.00000  Uiso   1.00
O1158  O     0.90839   0.50000   0.80288   0.00000  Uiso   1.00
O1159  O     0.75828   0.49999   0.78460   0.00000  Uiso   1.00
O1160  O     0.90839   0.50001   0.88207   0.00000  Uiso   1.00
C1161  C     0.73488   0.49888   0.82199   0.00000  Uiso   1.00
C1162  C     0.93178   0.50113   0.84468   0.00000  Uiso   1.00
Cu1163 Cu    0.83333   0.50001   0.88022   0.00000  Uiso   1.00
Cu1164 Cu    0.83333   0.49999   0.78645   0.00000  Uiso   1.00
N1165  N     0.83335   0.50001   0.95069   0.00000  Uiso   1.00
N1166  N     0.83332   0.49999   0.71597   0.00000  Uiso   1.00
C1167  C     0.68054   0.48984   0.81896   0.00000  Uiso   1.00
C1168  C     0.98613   0.51018   0.84772   0.00000  Uiso   1.00
C1169  C     0.82557   0.35470   0.79128   0.00000  Uiso   1.00
C1170  C     0.84109   0.64530   0.87539   0.00000  Uiso   1.00
H1171  H     0.81978   0.37063   0.75830   0.00000  Uiso   1.00
H1172  H     0.84689   0.62937   0.90837   0.00000  Uiso   1.00
C1173  C     0.82350   0.64555   0.79073   0.00000  Uiso   1.00
C1174  C     0.84317   0.35445   0.87593   0.00000  Uiso   1.00
C1175  C     0.83204   0.62385   0.83295   0.00000  Uiso   1.00
C1176  C     0.83462   0.37615   0.83372   0.00000  Uiso   1.00
C1177  C     0.79613   0.47831   0.68711   0.00000  Uiso   1.00
C1178  C     0.87054   0.52170   0.97956   0.00000  Uiso   1.00
C1179  C     0.79648   0.47793   0.97111   0.00000  Uiso   1.00
C1180  C     0.87019   0.52207   0.69556   0.00000  Uiso   1.00
N1181  N     0.99493   0.45184   0.79644   0.00000  Uiso   1.00
O1182  O     0.96340   0.45205   0.75791   0.00000  Uiso   1.00
O1183  O     0.68396   0.41791   0.80923   0.00000  Uiso   1.00
N1184  N     0.67172   0.54818   0.87024   0.00000  Uiso   1.00
O1185  O     0.70333   0.54797   0.90872   0.00000  Uiso   1.00
O1186  O     0.98258   0.58209   0.85757   0.00000  Uiso   1.00
F1187  F     0.81196   0.62606   0.74897   0.00000  Uiso   1.00
F1188  F     0.85470   0.37394   0.91769   0.00000  Uiso   1.00
N1189  N     0.75509   0.45665   0.70606   0.00000  Uiso   1.00
O1190  O     0.70963   0.47212   0.70080   0.00000  Uiso   1.00
O1191  O     0.75880   0.41766   0.71471   0.00000  Uiso   1.00
N1192  N     0.91158   0.54336   0.96060   0.00000  Uiso   1.00
O1193  O     0.95703   0.52789   0.96585   0.00000  Uiso   1.00
O1194  O     0.90786   0.58235   0.95197   0.00000  Uiso   1.00
N1195  N     0.75864   0.45292   0.94305   0.00000  Uiso   1.00
O1196  O     0.71116   0.46421   0.93675   0.00000  Uiso   1.00
O1197  O     0.76778   0.41454   0.93652   0.00000  Uiso   1.00
N1198  N     0.90802   0.54709   0.72362   0.00000  Uiso   1.00
O1199  O     0.95551   0.53580   0.72992   0.00000  Uiso   1.00
O1200  O     0.89887   0.58546   0.73015   0.00000  Uiso   1.00
O1201  O     0.16666   0.77322   0.87291   0.00000  Uiso   1.00
O1202  O     0.16667   0.89345   0.79375   0.00000  Uiso   1.00
O1203  O     0.16666   0.77321   0.79372   0.00000  Uiso   1.00
O1204  O     0.16667   0.89346   0.87294   0.00000  Uiso   1.00
C1205  C     0.16740   0.75414   0.83349   0.00000  Uiso   1.00
C1206  C     0.16593   0.91253   0.83318   0.00000  Uiso   1.00
O1207  O     0.09161   0.83334   0.86379   0.00000  Uiso   1.00
O1208  O     0.24172   0.83333   0.80288   0.00000  Uiso   1.00
O1209  O     0.09161   0.83333   0.78460   0.00000  Uiso   1.00
O1210  O     0.24172   0.83334   0.88207   0.00000  Uiso   1.00
C1211  C     0.06821   0.83221   0.82199   0.00000  Uiso   1.00
C1212  C     0.26512   0.83446   0.84468   0.00000  Uiso   1.00
Cu1213 Cu    0.16667   0.83334   0.88022   0.00000  Uiso   1.00
Cu1214 Cu    0.16667   0.83333   0.78645   0.00000  Uiso   1.00
N1215  N     0.16668   0.83334   0.95069   0.00000  Uiso   1.00
N1216  N     0.16665   0.83332   0.71597   0.00000  Uiso   1.00
C1217  C     0.01387   0.82318   0.81896   0.00000  Uiso   1.00
C1218  C     0.31946   0.84351   0.84772   0.00000  Uiso   1.00
C1219  C     0.15890   0.68803   0.79128   0.00000  Uiso   1.00
C1220  C     0.17443   0.97864   0.87539   0.00000  Uiso   1.00
H1221  H     0.15311   0.70396   0.75830   0.00000  Uiso   1.00
H1222  H     0.18022   0.96270   0.90837   0.00000  Uiso   1.00
C1223  C     0.15683   0.97888   0.79073   0.00000  Uiso   1.00
C1224  C     0.17650   0.68779   0.87593   0.00000  Uiso   1.00
C1225  C     0.16538   0.95718   0.83295   0.00000  Uiso   1.00
C1226  C     0.16796   0.70949   0.83372   0.00000  Uiso   1.00
C1227  C     0.12946   0.81164   0.68711   0.00000  Uiso   1.00
C1228  C     0.20387   0.85503   0.97956   0.00000  Uiso   1.00
C1229  C     0.12981   0.81127   0.97111   0.00000  Uiso   1.00
C1230  C     0.20352   0.85540   0.69556   0.00000  Uiso   1.00
N1231  N     0.32826   0.78517   0.79644   0.00000  Uiso   1.00
O1232  O     0.29673   0.78538   0.75791   0.00000  Uiso   1.00
O1233  O     0.01729   0.75124   0.80923   0.00000  Uiso   1.00
N1234  N     0.00506   0.88151   0.87024   0.00000  Uiso   1.00
O1235  O     0.03666   0.88131   0.90872   0.00000  Uiso   1.00
O1236  O     0.31591   0.91542   0.85757   0.00000  Uiso   1.00
F1237  F     0.14529   0.95939   0.74897   0.00000  Uiso   1.00
F1238  F     0.18804   0.70727   0.91769   0.00000  Uiso   1.00
N1239  N     0.08842   0.78998   0.70606   0.00000  Uiso   1.00
O1240  O     0.04297   0.80545   0.70080   0.00000  Uiso   1.00
O1241  O     0.09213   0.75099   0.71471   0.00000  Uiso   1.00
N1242  N     0.24491   0.87669   0.96060   0.00000  Uiso   1.00
O1243  O     0.29036   0.86122   0.96585   0.00000  Uiso   1.00
O1244  O     0.24120   0.91568   0.95197   0.00000  Uiso   1.00
N1245  N     0.09197   0.78625   0.94305   0.00000  Uiso   1.00
O1246  O     0.04449   0.79754   0.93675   0.00000  Uiso   1.00
O1247  O     0.10112   0.74787   0.93652   0.00000  Uiso   1.00
N1248  N     0.24136   0.88042   0.72362   0.00000  Uiso   1.00
O1249  O     0.28884   0.86914   0.72992   0.00000  Uiso   1.00
O1250  O     0.23221   0.91879   0.73015   0.00000  Uiso   1.00
O1251  O     0.50000   0.77322   0.87291   0.00000  Uiso   1.00
O1252  O     0.50000   0.89345   0.79375   0.00000  Uiso   1.00
O1253  O     0.50000   0.77321   0.79372   0.00000  Uiso   1.00
O1254  O     0.50000   0.89346   0.87294   0.00000  Uiso   1.00
C1255  C     0.50074   0.75414   0.83349   0.00000  Uiso   1.00
C1256  C     0.49926   0.91253   0.83318   0.00000  Uiso   1.00
O1257  O     0.42495   0.83334   0.86379   0.00000  Uiso   1.00
O1258  O     0.57505   0.83333   0.80288   0.00000  Uiso   1.00
O1259  O     0.42494   0.83333   0.78460   0.00000  Uiso   1.00
O1260  O     0.57506   0.83334   0.88207   0.00000  Uiso   1.00
C1261  C     0.40155   0.83221   0.82199   0.00000  Uiso   1.00
C1262  C     0.59845   0.83446   0.84468   0.00000  Uiso   1.00
Cu1263 Cu    0.50000   0.83334   0.88022   0.00000  Uiso   1.00
Cu1264 Cu    0.50000   0.83333   0.78645   0.00000  Uiso   1.00
N1265  N     0.50001   0.83334   0.95069   0.00000  Uiso   1.00
N1266  N     0.49999   0.83332   0.71597   0.00000  Uiso   1.00
C1267  C     0.34720   0.82318   0.81896   0.00000  Uiso   1.00
C1268  C     0.65279   0.84351   0.84772   0.00000  Uiso   1.00
C1269  C     0.49224   0.68803   0.79128   0.00000  Uiso   1.00
C1270  C     0.50776   0.97864   0.87539   0.00000  Uiso   1.00
H1271  H     0.48644   0.70396   0.75830   0.00000  Uiso   1.00
H1272  H     0.51355   0.96270   0.90837   0.00000  Uiso   1.00
C1273  C     0.49016   0.97888   0.79073   0.00000  Uiso   1.00
C1274  C     0.50983   0.68779   0.87593   0.00000  Uiso   1.00
C1275  C     0.49871   0.95718   0.83295   0.00000  Uiso   1.00
C1276  C     0.50129   0.70949   0.83372   0.00000  Uiso   1.00
C1277  C     0.46279   0.81164   0.68711   0.00000  Uiso   1.00
C1278  C     0.53721   0.85503   0.97956   0.00000  Uiso   1.00
C1279  C     0.46315   0.81127   0.97111   0.00000  Uiso   1.00
C1280  C     0.53685   0.85540   0.69556   0.00000  Uiso   1.00
N1281  N     0.66160   0.78517   0.79644   0.00000  Uiso   1.00
O1282  O     0.63006   0.78538   0.75791   0.00000  Uiso   1.00
O1283  O     0.35062   0.75124   0.80923   0.00000  Uiso   1.00
N1284  N     0.33839   0.88151   0.87024   0.00000  Uiso   1.00
O1285  O     0.37000   0.88131   0.90872   0.00000  Uiso   1.00
O1286  O     0.64925   0.91542   0.85757   0.00000  Uiso   1.00
F1287  F     0.47863   0.95939   0.74897   0.00000  Uiso   1.00
F1288  F     0.52137   0.70727   0.91769   0.00000  Uiso   1.00
N1289  N     0.42175   0.78998   0.70606   0.00000  Uiso   1.00
O1290  O     0.37630   0.80545   0.70080   0.00000  Uiso   1.00
O1291  O     0.42546   0.75099   0.71471   0.00000  Uiso   1.00
N1292  N     0.57824   0.87669   0.96060   0.00000  Uiso   1.00
O1293  O     0.62370   0.86122   0.96585   0.00000  Uiso   1.00
O1294  O     0.57453   0.91568   0.95197   0.00000  Uiso   1.00
N1295  N     0.42531   0.78625   0.94305   0.00000  Uiso   1.00
O1296  O     0.37782   0.79754   0.93675   0.00000  Uiso   1.00
O1297  O     0.43445   0.74787   0.93652   0.00000  Uiso   1.00
N1298  N     0.57469   0.88042   0.72362   0.00000  Uiso   1.00
O1299  O     0.62218   0.86914   0.72992   0.00000  Uiso   1.00
O1300  O     0.56554   0.91879   0.73015   0.00000  Uiso   1.00
O1301  O     0.83333   0.77322   0.87291   0.00000  Uiso   1.00
O1302  O     0.83334   0.89345   0.79375   0.00000  Uiso   1.00
O1303  O     0.83333   0.77321   0.79372   0.00000  Uiso   1.00
O1304  O     0.83334   0.89346   0.87294   0.00000  Uiso   1.00
C1305  C     0.83407   0.75414   0.83349   0.00000  Uiso   1.00
C1306  C     0.83259   0.91253   0.83318   0.00000  Uiso   1.00
O1307  O     0.75828   0.83334   0.86379   0.00000  Uiso   1.00
O1308  O     0.90839   0.83333   0.80288   0.00000  Uiso   1.00
O1309  O     0.75828   0.83333   0.78460   0.00000  Uiso   1.00
O1310  O     0.90839   0.83334   0.88207   0.00000  Uiso   1.00
C1311  C     0.73488   0.83221   0.82199   0.00000  Uiso   1.00
C1312  C     0.93178   0.83446   0.84468   0.00000  Uiso   1.00
Cu1313 Cu    0.83333   0.83334   0.88022   0.00000  Uiso   1.00
Cu1314 Cu    0.83333   0.83333   0.78645   0.00000  Uiso   1.00
N1315  N     0.83335   0.83334   0.95069   0.00000  Uiso   1.00
N1316  N     0.83332   0.83332   0.71597   0.00000  Uiso   1.00
C1317  C     0.68054   0.82318   0.81896   0.00000  Uiso   1.00
C1318  C     0.98613   0.84351   0.84772   0.00000  Uiso   1.00
C1319  C     0.82557   0.68803   0.79128   0.00000  Uiso   1.00
C1320  C     0.84109   0.97864   0.87539   0.00000  Uiso   1.00
H1321  H     0.81978   0.70396   0.75830   0.00000  Uiso   1.00
H1322  H     0.84689   0.96270   0.90837   0.00000  Uiso   1.00
C1323  C     0.82350   0.97888   0.79073   0.00000  Uiso   1.00
C1324  C     0.84317   0.68779   0.87593   0.00000  Uiso   1.00
C1325  C     0.83204   0.95718   0.83295   0.00000  Uiso   1.00
C1326  C     0.83462   0.70949   0.83372   0.00000  Uiso   1.00
C1327  C     0.79613   0.81164   0.68711   0.00000  Uiso   1.00
C1328  C     0.87054   0.85503   0.97956   0.00000  Uiso   1.00
C1329  C     0.79648   0.81127   0.97111   0.00000  Uiso   1.00
C1330  C     0.87019   0.85540   0.69556   0.00000  Uiso   1.00
N1331  N     0.99493   0.78517   0.79644   0.00000  Uiso   1.00
O1332  O     0.96340   0.78538   0.75791   0.00000  Uiso   1.00
O1333  O     0.68396   0.75124   0.80923   0.00000  Uiso   1.00
N1334  N     0.67172   0.88151   0.87024   0.00000  Uiso   1.00
O1335  O     0.70333   0.88131   0.90872   0.00000  Uiso   1.00
O1336  O     0.98258   0.91542   0.85757   0.00000  Uiso   1.00
F1337  F     0.81196   0.95939   0.74897   0.00000  Uiso   1.00
F1338  F     0.85470   0.70727   0.91769   0.00000  Uiso   1.00
N1339  N     0.75509   0.78998   0.70606   0.00000  Uiso   1.00
O1340  O     0.70963   0.80545   0.70080   0.00000  Uiso   1.00
O1341  O     0.75880   0.75099   0.71471   0.00000  Uiso   1.00
N1342  N     0.91158   0.87669   0.96060   0.00000  Uiso   1.00
O1343  O     0.95703   0.86122   0.96585   0.00000  Uiso   1.00
O1344  O     0.90786   0.91568   0.95197   0.00000  Uiso   1.00
N1345  N     0.75864   0.78625   0.94305   0.00000  Uiso   1.00
O1346  O     0.71116   0.79754   0.93675   0.00000  Uiso   1.00
O1347  O     0.76778   0.74787   0.93652   0.00000  Uiso   1.00
N1348  N     0.90802   0.88042   0.72362   0.00000  Uiso   1.00
O1349  O     0.95551   0.86914   0.72992   0.00000  Uiso   1.00
O1350  O     0.89887   0.91879   0.73015   0.00000  Uiso   1.00
loop_
_geom_bond_atom_site_label_1
_geom_bond_atom_site_label_2
_geom_bond_distance
_geom_bond_site_symmetry_2
_ccdc_geom_bond_type
O1     C5      1.299   .     A
O1     Cu13    1.970   .     S
O2     C6      1.299   .     A
O2     Cu14    1.970   .     S
O3     Cu14    1.969   .     S
O3     C5      1.301   .     A
O4     C6      1.301   .     A
O4     Cu13    1.969   .     S
C5     C26     1.455   .     S
C6     C25     1.455   .     S
O7     C11     1.283   .     A
O7     Cu13    1.963   .     S
O8     C12     1.283   .     A
O8     Cu14    1.963   .     S
O9     Cu14    1.958   .     S
O9     C11     1.303   .     A
O10    C12     1.303   .     A
O10    Cu13    1.958   .     S
C11    C17     1.434   .     S
C12    C18     1.434   .     S
Cu13   Cu14    2.703   .     S
Cu13   N15     2.031   .     S
Cu14   N16     2.031   .     S
N15    C28     1.375   .     A
N15    C29     1.371   .     A
N16    C27     1.375   .     A
N16    C30     1.371   .     A
C17    C118    1.355   1_455 S
C17    N131    1.441   1_455 S
C18    C67     1.355   .     S
C18    N84     1.441   .     S
C19    H21     1.079   .     S
C19    C26     1.400   .     A
C19    C323    1.383   1_545 S
C20    C25     1.400   .     A
C20    H22     1.079   .     S
C20    C174    1.383   .     S
C23    F37     1.357   .     S
C23    C25     1.405   .     A
C23    C169    1.383   .     S
C24    F38     1.357   .     S
C24    C26     1.405   .     A
C24    C320    1.383   1_545 S
C27    N39     1.427   .     S
C27    C929    1.423   1_554 S
C28    N42     1.427   .     S
C28    C480    1.423   .     S
C29    N45     1.430   .     S
C29    C477    1.423   .     S
C30    N48     1.430   .     S
C30    C928    1.423   1_554 S
N31    O32     1.300   .     A
N31    C67     1.441   .     S
N31    O83     1.301   .     S
O33    N131    1.301   1_455 S
N34    O35     1.300   .     A
N34    C118    1.441   1_455 S
N34    O136    1.301   1_455 S
O36    N84     1.301   .     S
N39    O41     1.299   .     A
N39    O40     1.301   .     A
N42    O44     1.299   .     A
N42    O43     1.301   .     A
N45    O47     1.299   .     A
N45    O46     1.300   .     A
N48    O50     1.299   .     A
N48    O49     1.300   .     A
O51    C55     1.299   .     A
O51    Cu63    1.970   .     S
O52    C56     1.299   .     A
O52    Cu64    1.970   .     S
O53    Cu64    1.969   .     S
O53    C55     1.301   .     A
O54    C56     1.301   .     A
O54    Cu63    1.969   .     S
C55    C76     1.455   .     S
C56    C75     1.455   .     S
O57    C61     1.283   .     A
O57    Cu63    1.963   .     S
O58    C62     1.283   .     A
O58    Cu64    1.963   .     S
O59    Cu64    1.958   .     S
O59    C61     1.303   .     A
O60    C62     1.303   .     A
O60    Cu63    1.958   .     S
C61    C67     1.434   .     S
C62    C68     1.434   .     S
Cu63   Cu64    2.703   .     S
Cu63   N65     2.031   .     S
Cu64   N66     2.031   .     S
N65    C78     1.375   .     A
N65    C79     1.371   .     A
N66    C77     1.375   .     A
N66    C80     1.371   .     A
C68    C117    1.355   .     S
C68    N134    1.441   .     S
C69    H71     1.079   .     S
C69    C76     1.400   .     A
C69    C373    1.383   1_545 S
C70    C75     1.400   .     A
C70    H72     1.079   .     S
C70    C224    1.383   .     S
C73    F87     1.357   .     S
C73    C75     1.405   .     A
C73    C219    1.383   .     S
C74    F88     1.357   .     S
C74    C76     1.405   .     A
C74    C370    1.383   1_545 S
C77    N89     1.427   .     S
C77    C979    1.423   1_554 S
C78    N92     1.427   .     S
C78    C530    1.423   .     S
C79    N95     1.430   .     S
C79    C527    1.423   .     S
C80    N98     1.430   .     S
C80    C978    1.423   1_554 S
N81    O82     1.300   .     A
N81    C117    1.441   .     S
N81    O133    1.301   .     S
N84    O85     1.300   .     A
O86    N134    1.301   .     S
N89    O91     1.299   .     A
N89    O90     1.301   .     A
N92    O94     1.299   .     A
N92    O93     1.301   .     A
N95    O97     1.299   .     A
N95    O96     1.300   .     A
N98    O100    1.299   .     A
N98    O99     1.300   .     A
O101   C105    1.299   .     A
O101   Cu113   1.970   .     S
O102   C106    1.299   .     A
O102   Cu114   1.970   .     S
O103   Cu114   1.969   .     S
O103   C105    1.301   .     A
O104   C106    1.301   .     A
O104   Cu113   1.969   .     S
C105   C126    1.455   .     S
C106   C125    1.455   .     S
O107   C111    1.283   .     A
O107   Cu113   1.963   .     S
O108   C112    1.283   .     A
O108   Cu114   1.963   .     S
O109   Cu114   1.958   .     S
O109   C111    1.303   .     A
O110   C112    1.303   .     A
O110   Cu113   1.958   .     S
C111   C117    1.434   .     S
C112   C118    1.434   .     S
Cu113  Cu114   2.703   .     S
Cu113  N115    2.031   .     S
Cu114  N116    2.031   .     S
N115   C128    1.375   .     A
N115   C129    1.371   .     A
N116   C127    1.375   .     A
N116   C130    1.371   .     A
C118   C17     1.355   1_655 S
C118   N34     1.441   1_655 S
C119   H121    1.079   .     S
C119   C126    1.400   .     A
C119   C423    1.383   1_545 S
C120   C125    1.400   .     A
C120   H122    1.079   .     S
C120   C274    1.383   .     S
C123   F137    1.357   .     S
C123   C125    1.405   .     A
C123   C269    1.383   .     S
C124   F138    1.357   .     S
C124   C126    1.405   .     A
C124   C420    1.383   1_545 S
C127   N139    1.427   .     S
C127   C1029   1.423   1_554 S
C128   N142    1.427   .     S
C128   C580    1.423   .     S
C129   N145    1.430   .     S
C129   C577    1.423   .     S
C130   N148    1.430   .     S
C130   C1028   1.423   1_554 S
N131   O132    1.300   .     A
N131   C17     1.441   1_655 S
N131   O33     1.301   1_655 S
N134   O135    1.300   .     A
O136   N34     1.301   1_655 S
N139   O141    1.299   .     A
N139   O140    1.301   .     A
N142   O144    1.299   .     A
N142   O143    1.301   .     A
N145   O147    1.299   .     A
N145   O146    1.300   .     A
N148   O150    1.299   .     A
N148   O149    1.300   .     A
O151   C155    1.299   .     A
O151   Cu163   1.970   .     S
O152   C156    1.299   .     A
O152   Cu164   1.970   .     S
O153   Cu164   1.969   .     S
O153   C155    1.301   .     A
O154   C156    1.301   .     A
O154   Cu163   1.969   .     S
C155   C176    1.455   .     S
C156   C175    1.455   .     S
O157   C161    1.283   .     A
O157   Cu163   1.963   .     S
O158   C162    1.283   .     A
O158   Cu164   1.963   .     S
O159   Cu164   1.958   .     S
O159   C161    1.303   .     A
O160   C162    1.303   .     A
O160   Cu163   1.958   .     S
C161   C167    1.434   .     S
C162   C168    1.434   .     S
Cu163  Cu164   2.703   .     S
Cu163  N165    2.031   .     S
Cu164  N166    2.031   .     S
N165   C178    1.375   .     A
N165   C179    1.371   .     A
N166   C177    1.375   .     A
N166   C180    1.371   .     A
C167   C268    1.355   1_455 S
C167   N281    1.441   1_455 S
C168   C217    1.355   .     S
C168   N234    1.441   .     S
C169   H171    1.079   .     S
C169   C176    1.400   .     A
C170   C175    1.400   .     A
C170   H172    1.079   .     S
C170   C324    1.383   .     S
C173   F187    1.357   .     S
C173   C175    1.405   .     A
C173   C319    1.383   .     S
C174   F188    1.357   .     S
C174   C176    1.405   .     A
C177   N189    1.427   .     S
C177   C1079   1.423   1_554 S
C178   N192    1.427   .     S
C178   C630    1.423   .     S
C179   N195    1.430   .     S
C179   C627    1.423   .     S
C180   N198    1.430   .     S
C180   C1078   1.423   1_554 S
N181   O182    1.300   .     A
N181   C217    1.441   .     S
N181   O233    1.301   .     S
O183   N281    1.301   1_455 S
N184   O185    1.300   .     A
N184   C268    1.441   1_455 S
N184   O286    1.301   1_455 S
O186   N234    1.301   .     S
N189   O191    1.299   .     A
N189   O190    1.301   .     A
N192   O194    1.299   .     A
N192   O193    1.301   .     A
N195   O197    1.299   .     A
N195   O196    1.300   .     A
N198   O200    1.299   .     A
N198   O199    1.300   .     A
O201   C205    1.299   .     A
O201   Cu213   1.970   .     S
O202   C206    1.299   .     A
O202   Cu214   1.970   .     S
O203   Cu214   1.969   .     S
O203   C205    1.301   .     A
O204   C206    1.301   .     A
O204   Cu213   1.969   .     S
C205   C226    1.455   .     S
C206   C225    1.455   .     S
O207   C211    1.283   .     A
O207   Cu213   1.963   .     S
O208   C212    1.283   .     A
O208   Cu214   1.963   .     S
O209   Cu214   1.958   .     S
O209   C211    1.303   .     A
O210   C212    1.303   .     A
O210   Cu213   1.958   .     S
C211   C217    1.434   .     S
C212   C218    1.434   .     S
Cu213  Cu214   2.703   .     S
Cu213  N215    2.031   .     S
Cu214  N216    2.031   .     S
N215   C228    1.375   .     A
N215   C229    1.371   .     A
N216   C227    1.375   .     A
N216   C230    1.371   .     A
C218   C267    1.355   .     S
C218   N284    1.441   .     S
C219   H221    1.079   .     S
C219   C226    1.400   .     A
C220   C225    1.400   .     A
C220   H222    1.079   .     S
C220   C374    1.383   .     S
C223   F237    1.357   .     S
C223   C225    1.405   .     A
C223   C369    1.383   .     S
C224   F238    1.357   .     S
C224   C226    1.405   .     A
C227   N239    1.427   .     S
C227   C1129   1.423   1_554 S
C228   N242    1.427   .     S
C228   C680    1.423   .     S
C229   N245    1.430   .     S
C229   C677    1.423   .     S
C230   N248    1.430   .     S
C230   C1128   1.423   1_554 S
N231   O232    1.300   .     A
N231   C267    1.441   .     S
N231   O283    1.301   .     S
N234   O235    1.300   .     A
O236   N284    1.301   .     S
N239   O241    1.299   .     A
N239   O240    1.301   .     A
N242   O244    1.299   .     A
N242   O243    1.301   .     A
N245   O247    1.299   .     A
N245   O246    1.300   .     A
N248   O250    1.299   .     A
N248   O249    1.300   .     A
O251   C255    1.299   .     A
O251   Cu263   1.970   .     S
O252   C256    1.299   .     A
O252   Cu264   1.970   .     S
O253   Cu264   1.969   .     S
O253   C255    1.301   .     A
O254   C256    1.301   .     A
O254   Cu263   1.969   .     S
C255   C276    1.455   .     S
C256   C275    1.455   .     S
O257   C261    1.283   .     A
O257   Cu263   1.963   .     S
O258   C262    1.283   .     A
O258   Cu264   1.963   .     S
O259   Cu264   1.958   .     S
O259   C261    1.303   .     A
O260   C262    1.303   .     A
O260   Cu263   1.958   .     S
C261   C267    1.434   .     S
C262   C268    1.434   .     S
Cu263  Cu264   2.703   .     S
Cu263  N265    2.031   .     S
Cu264  N266    2.031   .     S
N265   C278    1.375   .     A
N265   C279    1.371   .     A
N266   C277    1.375   .     A
N266   C280    1.371   .     A
C268   C167    1.355   1_655 S
C268   N184    1.441   1_655 S
C269   H271    1.079   .     S
C269   C276    1.400   .     A
C270   C275    1.400   .     A
C270   H272    1.079   .     S
C270   C424    1.383   .     S
C273   F287    1.357   .     S
C273   C275    1.405   .     A
C273   C419    1.383   .     S
C274   F288    1.357   .     S
C274   C276    1.405   .     A
C277   N289    1.427   .     S
C277   C1179   1.423   1_554 S
C278   N292    1.427   .     S
C278   C730    1.423   .     S
C279   N295    1.430   .     S
C279   C727    1.423   .     S
C280   N298    1.430   .     S
C280   C1178   1.423   1_554 S
N281   O282    1.300   .     A
N281   C167    1.441   1_655 S
N281   O183    1.301   1_655 S
N284   O285    1.300   .     A
O286   N184    1.301   1_655 S
N289   O291    1.299   .     A
N289   O290    1.301   .     A
N292   O294    1.299   .     A
N292   O293    1.301   .     A
N295   O297    1.299   .     A
N295   O296    1.300   .     A
N298   O300    1.299   .     A
N298   O299    1.300   .     A
O301   C305    1.299   .     A
O301   Cu313   1.970   .     S
O302   C306    1.299   .     A
O302   Cu314   1.970   .     S
O303   Cu314   1.969   .     S
O303   C305    1.301   .     A
O304   C306    1.301   .     A
O304   Cu313   1.969   .     S
C305   C326    1.455   .     S
C306   C325    1.455   .     S
O307   C311    1.283   .     A
O307   Cu313   1.963   .     S
O308   C312    1.283   .     A
O308   Cu314   1.963   .     S
O309   Cu314   1.958   .     S
O309   C311    1.303   .     A
O310   C312    1.303   .     A
O310   Cu313   1.958   .     S
C311   C317    1.434   .     S
C312   C318    1.434   .     S
Cu313  Cu314   2.703   .     S
Cu313  N315    2.031   .     S
Cu314  N316    2.031   .     S
N315   C328    1.375   .     A
N315   C329    1.371   .     A
N316   C327    1.375   .     A
N316   C330    1.371   .     A
C317   C418    1.355   1_455 S
C317   N431    1.441   1_455 S
C318   C367    1.355   .     S
C318   N384    1.441   .     S
C319   H321    1.079   .     S
C319   C326    1.400   .     A
C320   C325    1.400   .     A
C320   H322    1.079   .     S
C320   C24     1.383   1_565 S
C323   F337    1.357   .     S
C323   C325    1.405   .     A
C323   C19     1.383   1_565 S
C324   F338    1.357   .     S
C324   C326    1.405   .     A
C327   N339    1.427   .     S
C327   C1229   1.423   1_554 S
C328   N342    1.427   .     S
C328   C780    1.423   .     S
C329   N345    1.430   .     S
C329   C777    1.423   .     S
C330   N348    1.430   .     S
C330   C1228   1.423   1_554 S
N331   O332    1.300   .     A
N331   C367    1.441   .     S
N331   O383    1.301   .     S
O333   N431    1.301   1_455 S
N334   O335    1.300   .     A
N334   C418    1.441   1_455 S
N334   O436    1.301   1_455 S
O336   N384    1.301   .     S
N339   O341    1.299   .     A
N339   O340    1.301   .     A
N342   O344    1.299   .     A
N342   O343    1.301   .     A
N345   O347    1.299   .     A
N345   O346    1.300   .     A
N348   O350    1.299   .     A
N348   O349    1.300   .     A
O351   C355    1.299   .     A
O351   Cu363   1.970   .     S
O352   C356    1.299   .     A
O352   Cu364   1.970   .     S
O353   Cu364   1.969   .     S
O353   C355    1.301   .     A
O354   C356    1.301   .     A
O354   Cu363   1.969   .     S
C355   C376    1.455   .     S
C356   C375    1.455   .     S
O357   C361    1.283   .     A
O357   Cu363   1.963   .     S
O358   C362    1.283   .     A
O358   Cu364   1.963   .     S
O359   Cu364   1.958   .     S
O359   C361    1.303   .     A
O360   C362    1.303   .     A
O360   Cu363   1.958   .     S
C361   C367    1.434   .     S
C362   C368    1.434   .     S
Cu363  Cu364   2.703   .     S
Cu363  N365    2.031   .     S
Cu364  N366    2.031   .     S
N365   C378    1.375   .     A
N365   C379    1.371   .     A
N366   C377    1.375   .     A
N366   C380    1.371   .     A
C368   C417    1.355   .     S
C368   N434    1.441   .     S
C369   H371    1.079   .     S
C369   C376    1.400   .     A
C370   C375    1.400   .     A
C370   H372    1.079   .     S
C370   C74     1.383   1_565 S
C373   F387    1.357   .     S
C373   C375    1.405   .     A
C373   C69     1.383   1_565 S
C374   F388    1.357   .     S
C374   C376    1.405   .     A
C377   N389    1.427   .     S
C377   C1279   1.423   1_554 S
C378   N392    1.427   .     S
C378   C830    1.423   .     S
C379   N395    1.430   .     S
C379   C827    1.423   .     S
C380   N398    1.430   .     S
C380   C1278   1.423   1_554 S
N381   O382    1.300   .     A
N381   C417    1.441   .     S
N381   O433    1.301   .     S
N384   O385    1.300   .     A
O386   N434    1.301   .     S
N389   O391    1.299   .     A
N389   O390    1.301   .     A
N392   O394    1.299   .     A
N392   O393    1.301   .     A
N395   O397    1.299   .     A
N395   O396    1.300   .     A
N398   O400    1.299   .     A
N398   O399    1.300   .     A
O401   C405    1.299   .     A
O401   Cu413   1.970   .     S
O402   C406    1.299   .     A
O402   Cu414   1.970   .     S
O403   Cu414   1.969   .     S
O403   C405    1.301   .     A
O404   C406    1.301   .     A
O404   Cu413   1.969   .     S
C405   C426    1.455   .     S
C406   C425    1.455   .     S
O407   C411    1.283   .     A
O407   Cu413   1.963   .     S
O408   C412    1.283   .     A
O408   Cu414   1.963   .     S
O409   Cu414   1.958   .     S
O409   C411    1.303   .     A
O410   C412    1.303   .     A
O410   Cu413   1.958   .     S
C411   C417    1.434   .     S
C412   C418    1.434   .     S
Cu413  Cu414   2.703   .     S
Cu413  N415    2.031   .     S
Cu414  N416    2.031   .     S
N415   C428    1.375   .     A
N415   C429    1.371   .     A
N416   C427    1.375   .     A
N416   C430    1.371   .     A
C418   C317    1.355   1_655 S
C418   N334    1.441   1_655 S
C419   H421    1.079   .     S
C419   C426    1.400   .     A
C420   C425    1.400   .     A
C420   H422    1.079   .     S
C420   C124    1.383   1_565 S
C423   F437    1.357   .     S
C423   C425    1.405   .     A
C423   C119    1.383   1_565 S
C424   F438    1.357   .     S
C424   C426    1.405   .     A
C427   N439    1.427   .     S
C427   C1329   1.423   1_554 S
C428   N442    1.427   .     S
C428   C880    1.423   .     S
C429   N445    1.430   .     S
C429   C877    1.423   .     S
C430   N448    1.430   .     S
C430   C1328   1.423   1_554 S
N431   O432    1.300   .     A
N431   C317    1.441   1_655 S
N431   O333    1.301   1_655 S
N434   O435    1.300   .     A
O436   N334    1.301   1_655 S
N439   O441    1.299   .     A
N439   O440    1.301   .     A
N442   O444    1.299   .     A
N442   O443    1.301   .     A
N445   O447    1.299   .     A
N445   O446    1.300   .     A
N448   O450    1.299   .     A
N448   O449    1.300   .     A
O451   C455    1.299   .     A
O451   Cu463   1.970   .     S
O452   C456    1.299   .     A
O452   Cu464   1.970   .     S
O453   Cu464   1.969   .     S
O453   C455    1.301   .     A
O454   C456    1.301   .     A
O454   Cu463   1.969   .     S
C455   C476    1.455   .     S
C456   C475    1.455   .     S
O457   C461    1.283   .     A
O457   Cu463   1.963   .     S
O458   C462    1.283   .     A
O458   Cu464   1.963   .     S
O459   Cu464   1.958   .     S
O459   C461    1.303   .     A
O460   C462    1.303   .     A
O460   Cu463   1.958   .     S
C461   C467    1.434   .     S
C462   C468    1.434   .     S
Cu463  Cu464   2.703   .     S
Cu463  N465    2.031   .     S
Cu464  N466    2.031   .     S
N465   C478    1.375   .     A
N465   C479    1.371   .     A
N466   C477    1.375   .     A
N466   C480    1.371   .     A
C467   C568    1.355   1_455 S
C467   N581    1.441   1_455 S
C468   C517    1.355   .     S
C468   N534    1.441   .     S
C469   H471    1.079   .     S
C469   C476    1.400   .     A
C469   C773    1.383   1_545 S
C470   C475    1.400   .     A
C470   H472    1.079   .     S
C470   C624    1.383   .     S
C473   F487    1.357   .     S
C473   C475    1.405   .     A
C473   C619    1.383   .     S
C474   F488    1.357   .     S
C474   C476    1.405   .     A
C474   C770    1.383   1_545 S
C477   N489    1.427   .     S
C478   N492    1.427   .     S
C478   C930    1.423   .     S
C479   N495    1.430   .     S
C479   C927    1.423   .     S
C480   N498    1.430   .     S
N481   O482    1.300   .     A
N481   C517    1.441   .     S
N481   O533    1.301   .     S
O483   N581    1.301   1_455 S
N484   O485    1.300   .     A
N484   C568    1.441   1_455 S
N484   O586    1.301   1_455 S
O486   N534    1.301   .     S
N489   O491    1.299   .     A
N489   O490    1.301   .     A
N492   O494    1.299   .     A
N492   O493    1.301   .     A
N495   O497    1.299   .     A
N495   O496    1.300   .     A
N498   O500    1.299   .     A
N498   O499    1.300   .     A
O501   C505    1.299   .     A
O501   Cu513   1.970   .     S
O502   C506    1.299   .     A
O502   Cu514   1.970   .     S
O503   Cu514   1.969   .     S
O503   C505    1.301   .     A
O504   C506    1.301   .     A
O504   Cu513   1.969   .     S
C505   C526    1.455   .     S
C506   C525    1.455   .     S
O507   C511    1.283   .     A
O507   Cu513   1.963   .     S
O508   C512    1.283   .     A
O508   Cu514   1.963   .     S
O509   Cu514   1.958   .     S
O509   C511    1.303   .     A
O510   C512    1.303   .     A
O510   Cu513   1.958   .     S
C511   C517    1.434   .     S
C512   C518    1.434   .     S
Cu513  Cu514   2.703   .     S
Cu513  N515    2.031   .     S
Cu514  N516    2.031   .     S
N515   C528    1.375   .     A
N515   C529    1.371   .     A
N516   C527    1.375   .     A
N516   C530    1.371   .     A
C518   C567    1.355   .     S
C518   N584    1.441   .     S
C519   H521    1.079   .     S
C519   C526    1.400   .     A
C519   C823    1.383   1_545 S
C520   C525    1.400   .     A
C520   H522    1.079   .     S
C520   C674    1.383   .     S
C523   F537    1.357   .     S
C523   C525    1.405   .     A
C523   C669    1.383   .     S
C524   F538    1.357   .     S
C524   C526    1.405   .     A
C524   C820    1.383   1_545 S
C527   N539    1.427   .     S
C528   N542    1.427   .     S
C528   C980    1.423   .     S
C529   N545    1.430   .     S
C529   C977    1.423   .     S
C530   N548    1.430   .     S
N531   O532    1.300   .     A
N531   C567    1.441   .     S
N531   O583    1.301   .     S
N534   O535    1.300   .     A
O536   N584    1.301   .     S
N539   O541    1.299   .     A
N539   O540    1.301   .     A
N542   O544    1.299   .     A
N542   O543    1.301   .     A
N545   O547    1.299   .     A
N545   O546    1.300   .     A
N548   O550    1.299   .     A
N548   O549    1.300   .     A
O551   C555    1.299   .     A
O551   Cu563   1.970   .     S
O552   C556    1.299   .     A
O552   Cu564   1.970   .     S
O553   Cu564   1.969   .     S
O553   C555    1.301   .     A
O554   C556    1.301   .     A
O554   Cu563   1.969   .     S
C555   C576    1.455   .     S
C556   C575    1.455   .     S
O557   C561    1.283   .     A
O557   Cu563   1.963   .     S
O558   C562    1.283   .     A
O558   Cu564   1.963   .     S
O559   Cu564   1.958   .     S
O559   C561    1.303   .     A
O560   C562    1.303   .     A
O560   Cu563   1.958   .     S
C561   C567    1.434   .     S
C562   C568    1.434   .     S
Cu563  Cu564   2.703   .     S
Cu563  N565    2.031   .     S
Cu564  N566    2.031   .     S
N565   C578    1.375   .     A
N565   C579    1.371   .     A
N566   C577    1.375   .     A
N566   C580    1.371   .     A
C568   C467    1.355   1_655 S
C568   N484    1.441   1_655 S
C569   H571    1.079   .     S
C569   C576    1.400   .     A
C569   C873    1.383   1_545 S
C570   C575    1.400   .     A
C570   H572    1.079   .     S
C570   C724    1.383   .     S
C573   F587    1.357   .     S
C573   C575    1.405   .     A
C573   C719    1.383   .     S
C574   F588    1.357   .     S
C574   C576    1.405   .     A
C574   C870    1.383   1_545 S
C577   N589    1.427   .     S
C578   N592    1.427   .     S
C578   C1030   1.423   .     S
C579   N595    1.430   .     S
C579   C1027   1.423   .     S
C580   N598    1.430   .     S
N581   O582    1.300   .     A
N581   C467    1.441   1_655 S
N581   O483    1.301   1_655 S
N584   O585    1.300   .     A
O586   N484    1.301   1_655 S
N589   O591    1.299   .     A
N589   O590    1.301   .     A
N592   O594    1.299   .     A
N592   O593    1.301   .     A
N595   O597    1.299   .     A
N595   O596    1.300   .     A
N598   O600    1.299   .     A
N598   O599    1.300   .     A
O601   C605    1.299   .     A
O601   Cu613   1.970   .     S
O602   C606    1.299   .     A
O602   Cu614   1.970   .     S
O603   Cu614   1.969   .     S
O603   C605    1.301   .     A
O604   C606    1.301   .     A
O604   Cu613   1.969   .     S
C605   C626    1.455   .     S
C606   C625    1.455   .     S
O607   C611    1.283   .     A
O607   Cu613   1.963   .     S
O608   C612    1.283   .     A
O608   Cu614   1.963   .     S
O609   Cu614   1.958   .     S
O609   C611    1.303   .     A
O610   C612    1.303   .     A
O610   Cu613   1.958   .     S
C611   C617    1.434   .     S
C612   C618    1.434   .     S
Cu613  Cu614   2.703   .     S
Cu613  N615    2.031   .     S
Cu614  N616    2.031   .     S
N615   C628    1.375   .     A
N615   C629    1.371   .     A
N616   C627    1.375   .     A
N616   C630    1.371   .     A
C617   C718    1.355   1_455 S
C617   N731    1.441   1_455 S
C618   C667    1.355   .     S
C618   N684    1.441   .     S
C619   H621    1.079   .     S
C619   C626    1.400   .     A
C620   C625    1.400   .     A
C620   H622    1.079   .     S
C620   C774    1.383   .     S
C623   F637    1.357   .     S
C623   C625    1.405   .     A
C623   C769    1.383   .     S
C624   F638    1.357   .     S
C624   C626    1.405   .     A
C627   N639    1.427   .     S
C628   N642    1.427   .     S
C628   C1080   1.423   .     S
C629   N645    1.430   .     S
C629   C1077   1.423   .     S
C630   N648    1.430   .     S
N631   O632    1.300   .     A
N631   C667    1.441   .     S
N631   O683    1.301   .     S
O633   N731    1.301   1_455 S
N634   O635    1.300   .     A
N634   C718    1.441   1_455 S
N634   O736    1.301   1_455 S
O636   N684    1.301   .     S
N639   O641    1.299   .     A
N639   O640    1.301   .     A
N642   O644    1.299   .     A
N642   O643    1.301   .     A
N645   O647    1.299   .     A
N645   O646    1.300   .     A
N648   O650    1.299   .     A
N648   O649    1.300   .     A
O651   C655    1.299   .     A
O651   Cu663   1.970   .     S
O652   C656    1.299   .     A
O652   Cu664   1.970   .     S
O653   Cu664   1.969   .     S
O653   C655    1.301   .     A
O654   C656    1.301   .     A
O654   Cu663   1.969   .     S
C655   C676    1.455   .     S
C656   C675    1.455   .     S
O657   C661    1.283   .     A
O657   Cu663   1.963   .     S
O658   C662    1.283   .     A
O658   Cu664   1.963   .     S
O659   Cu664   1.958   .     S
O659   C661    1.303   .     A
O660   C662    1.303   .     A
O660   Cu663   1.958   .     S
C661   C667    1.434   .     S
C662   C668    1.434   .     S
Cu663  Cu664   2.703   .     S
Cu663  N665    2.031   .     S
Cu664  N666    2.031   .     S
N665   C678    1.375   .     A
N665   C679    1.371   .     A
N666   C677    1.375   .     A
N666   C680    1.371   .     A
C668   C717    1.355   .     S
C668   N734    1.441   .     S
C669   H671    1.079   .     S
C669   C676    1.400   .     A
C670   C675    1.400   .     A
C670   H672    1.079   .     S
C670   C824    1.383   .     S
C673   F687    1.357   .     S
C673   C675    1.405   .     A
C673   C819    1.383   .     S
C674   F688    1.357   .     S
C674   C676    1.405   .     A
C677   N689    1.427   .     S
C678   N692    1.427   .     S
C678   C1130   1.423   .     S
C679   N695    1.430   .     S
C679   C1127   1.423   .     S
C680   N698    1.430   .     S
N681   O682    1.300   .     A
N681   C717    1.441   .     S
N681   O733    1.301   .     S
N684   O685    1.300   .     A
O686   N734    1.301   .     S
N689   O691    1.299   .     A
N689   O690    1.301   .     A
N692   O694    1.299   .     A
N692   O693    1.301   .     A
N695   O697    1.299   .     A
N695   O696    1.300   .     A
N698   O700    1.299   .     A
N698   O699    1.300   .     A
O701   C705    1.299   .     A
O701   Cu713   1.970   .     S
O702   C706    1.299   .     A
O702   Cu714   1.970   .     S
O703   Cu714   1.969   .     S
O703   C705    1.301   .     A
O704   C706    1.301   .     A
O704   Cu713   1.969   .     S
C705   C726    1.455   .     S
C706   C725    1.455   .     S
O707   C711    1.283   .     A
O707   Cu713   1.963   .     S
O708   C712    1.283   .     A
O708   Cu714   1.963   .     S
O709   Cu714   1.958   .     S
O709   C711    1.303   .     A
O710   C712    1.303   .     A
O710   Cu713   1.958   .     S
C711   C717    1.434   .     S
C712   C718    1.434   .     S
Cu713  Cu714   2.703   .     S
Cu713  N715    2.031   .     S
Cu714  N716    2.031   .     S
N715   C728    1.375   .     A
N715   C729    1.371   .     A
N716   C727    1.375   .     A
N716   C730    1.371   .     A
C718   C617    1.355   1_655 S
C718   N634    1.441   1_655 S
C719   H721    1.079   .     S
C719   C726    1.400   .     A
C720   C725    1.400   .     A
C720   H722    1.079   .     S
C720   C874    1.383   .     S
C723   F737    1.357   .     S
C723   C725    1.405   .     A
C723   C869    1.383   .     S
C724   F738    1.357   .     S
C724   C726    1.405   .     A
C727   N739    1.427   .     S
C728   N742    1.427   .     S
C728   C1180   1.423   .     S
C729   N745    1.430   .     S
C729   C1177   1.423   .     S
C730   N748    1.430   .     S
N731   O732    1.300   .     A
N731   C617    1.441   1_655 S
N731   O633    1.301   1_655 S
N734   O735    1.300   .     A
O736   N634    1.301   1_655 S
N739   O741    1.299   .     A
N739   O740    1.301   .     A
N742   O744    1.299   .     A
N742   O743    1.301   .     A
N745   O747    1.299   .     A
N745   O746    1.300   .     A
N748   O750    1.299   .     A
N748   O749    1.300   .     A
O751   C755    1.299   .     A
O751   Cu763   1.970   .     S
O752   C756    1.299   .     A
O752   Cu764   1.970   .     S
O753   Cu764   1.969   .     S
O753   C755    1.301   .     A
O754   C756    1.301   .     A
O754   Cu763   1.969   .     S
C755   C776    1.455   .     S
C756   C775    1.455   .     S
O757   C761    1.283   .     A
O757   Cu763   1.963   .     S
O758   C762    1.283   .     A
O758   Cu764   1.963   .     S
O759   Cu764   1.958   .     S
O759   C761    1.303   .     A
O760   C762    1.303   .     A
O760   Cu763   1.958   .     S
C761   C767    1.434   .     S
C762   C768    1.434   .     S
Cu763  Cu764   2.703   .     S
Cu763  N765    2.031   .     S
Cu764  N766    2.031   .     S
N765   C778    1.375   .     A
N765   C779    1.371   .     A
N766   C777    1.375   .     A
N766   C780    1.371   .     A
C767   C868    1.355   1_455 S
C767   N881    1.441   1_455 S
C768   C817    1.355   .     S
C768   N834    1.441   .     S
C769   H771    1.079   .     S
C769   C776    1.400   .     A
C770   C775    1.400   .     A
C770   H772    1.079   .     S
C770   C474    1.383   1_565 S
C773   F787    1.357   .     S
C773   C775    1.405   .     A
C773   C469    1.383   1_565 S
C774   F788    1.357   .     S
C774   C776    1.405   .     A
C777   N789    1.427   .     S
C778   N792    1.427   .     S
C778   C1230   1.423   .     S
C779   N795    1.430   .     S
C779   C1227   1.423   .     S
C780   N798    1.430   .     S
N781   O782    1.300   .     A
N781   C817    1.441   .     S
N781   O833    1.301   .     S
O783   N881    1.301   1_455 S
N784   O785    1.300   .     A
N784   C868    1.441   1_455 S
N784   O886    1.301   1_455 S
O786   N834    1.301   .     S
N789   O791    1.299   .     A
N789   O790    1.301   .     A
N792   O794    1.299   .     A
N792   O793    1.301   .     A
N795   O797    1.299   .     A
N795   O796    1.300   .     A
N798   O800    1.299   .     A
N798   O799    1.300   .     A
O801   C805    1.299   .     A
O801   Cu813   1.970   .     S
O802   C806    1.299   .     A
O802   Cu814   1.970   .     S
O803   Cu814   1.969   .     S
O803   C805    1.301   .     A
O804   C806    1.301   .     A
O804   Cu813   1.969   .     S
C805   C826    1.455   .     S
C806   C825    1.455   .     S
O807   C811    1.283   .     A
O807   Cu813   1.963   .     S
O808   C812    1.283   .     A
O808   Cu814   1.963   .     S
O809   Cu814   1.958   .     S
O809   C811    1.303   .     A
O810   C812    1.303   .     A
O810   Cu813   1.958   .     S
C811   C817    1.434   .     S
C812   C818    1.434   .     S
Cu813  Cu814   2.703   .     S
Cu813  N815    2.031   .     S
Cu814  N816    2.031   .     S
N815   C828    1.375   .     A
N815   C829    1.371   .     A
N816   C827    1.375   .     A
N816   C830    1.371   .     A
C818   C867    1.355   .     S
C818   N884    1.441   .     S
C819   H821    1.079   .     S
C819   C826    1.400   .     A
C820   C825    1.400   .     A
C820   H822    1.079   .     S
C820   C524    1.383   1_565 S
C823   F837    1.357   .     S
C823   C825    1.405   .     A
C823   C519    1.383   1_565 S
C824   F838    1.357   .     S
C824   C826    1.405   .     A
C827   N839    1.427   .     S
C828   N842    1.427   .     S
C828   C1280   1.423   .     S
C829   N845    1.430   .     S
C829   C1277   1.423   .     S
C830   N848    1.430   .     S
N831   O832    1.300   .     A
N831   C867    1.441   .     S
N831   O883    1.301   .     S
N834   O835    1.300   .     A
O836   N884    1.301   .     S
N839   O841    1.299   .     A
N839   O840    1.301   .     A
N842   O844    1.299   .     A
N842   O843    1.301   .     A
N845   O847    1.299   .     A
N845   O846    1.300   .     A
N848   O850    1.299   .     A
N848   O849    1.300   .     A
O851   C855    1.299   .     A
O851   Cu863   1.970   .     S
O852   C856    1.299   .     A
O852   Cu864   1.970   .     S
O853   Cu864   1.969   .     S
O853   C855    1.301   .     A
O854   C856    1.301   .     A
O854   Cu863   1.969   .     S
C855   C876    1.455   .     S
C856   C875    1.455   .     S
O857   C861    1.283   .     A
O857   Cu863   1.963   .     S
O858   C862    1.283   .     A
O858   Cu864   1.963   .     S
O859   Cu864   1.958   .     S
O859   C861    1.303   .     A
O860   C862    1.303   .     A
O860   Cu863   1.958   .     S
C861   C867    1.434   .     S
C862   C868    1.434   .     S
Cu863  Cu864   2.703   .     S
Cu863  N865    2.031   .     S
Cu864  N866    2.031   .     S
N865   C878    1.375   .     A
N865   C879    1.371   .     A
N866   C877    1.375   .     A
N866   C880    1.371   .     A
C868   C767    1.355   1_655 S
C868   N784    1.441   1_655 S
C869   H871    1.079   .     S
C869   C876    1.400   .     A
C870   C875    1.400   .     A
C870   H872    1.079   .     S
C870   C574    1.383   1_565 S
C873   F887    1.357   .     S
C873   C875    1.405   .     A
C873   C569    1.383   1_565 S
C874   F888    1.357   .     S
C874   C876    1.405   .     A
C877   N889    1.427   .     S
C878   N892    1.427   .     S
C878   C1330   1.423   .     S
C879   N895    1.430   .     S
C879   C1327   1.423   .     S
C880   N898    1.430   .     S
N881   O882    1.300   .     A
N881   C767    1.441   1_655 S
N881   O783    1.301   1_655 S
N884   O885    1.300   .     A
O886   N784    1.301   1_655 S
N889   O891    1.299   .     A
N889   O890    1.301   .     A
N892   O894    1.299   .     A
N892   O893    1.301   .     A
N895   O897    1.299   .     A
N895   O896    1.300   .     A
N898   O900    1.299   .     A
N898   O899    1.300   .     A
O901   C905    1.299   .     A
O901   Cu913   1.970   .     S
O902   C906    1.299   .     A
O902   Cu914   1.970   .     S
O903   Cu914   1.969   .     S
O903   C905    1.301   .     A
O904   C906    1.301   .     A
O904   Cu913   1.969   .     S
C905   C926    1.455   .     S
C906   C925    1.455   .     S
O907   C911    1.283   .     A
O907   Cu913   1.963   .     S
O908   C912    1.283   .     A
O908   Cu914   1.963   .     S
O909   Cu914   1.958   .     S
O909   C911    1.303   .     A
O910   C912    1.303   .     A
O910   Cu913   1.958   .     S
C911   C917    1.434   .     S
C912   C918    1.434   .     S
Cu913  Cu914   2.703   .     S
Cu913  N915    2.031   .     S
Cu914  N916    2.031   .     S
N915   C928    1.375   .     A
N915   C929    1.371   .     A
N916   C927    1.375   .     A
N916   C930    1.371   .     A
C917   C1018   1.355   1_455 S
C917   N1031   1.441   1_455 S
C918   C967    1.355   .     S
C918   N984    1.441   .     S
C919   H921    1.079   .     S
C919   C926    1.400   .     A
C919   C1223   1.383   1_545 S
C920   C925    1.400   .     A
C920   H922    1.079   .     S
C920   C1074   1.383   .     S
C923   F937    1.357   .     S
C923   C925    1.405   .     A
C923   C1069   1.383   .     S
C924   F938    1.357   .     S
C924   C926    1.405   .     A
C924   C1220   1.383   1_545 S
C927   N939    1.427   .     S
C928   N942    1.427   .     S
C928   C30     1.423   1_556 S
C929   N945    1.430   .     S
C929   C27     1.423   1_556 S
C930   N948    1.430   .     S
N931   O932    1.300   .     A
N931   C967    1.441   .     S
N931   O983    1.301   .     S
O933   N1031   1.301   1_455 S
N934   O935    1.300   .     A
N934   C1018   1.441   1_455 S
N934   O1036   1.301   1_455 S
O936   N984    1.301   .     S
N939   O941    1.299   .     A
N939   O940    1.301   .     A
N942   O944    1.299   .     A
N942   O943    1.301   .     A
N945   O947    1.299   .     A
N945   O946    1.300   .     A
N948   O950    1.299   .     A
N948   O949    1.300   .     A
O951   C955    1.299   .     A
O951   Cu963   1.970   .     S
O952   C956    1.299   .     A
O952   Cu964   1.970   .     S
O953   Cu964   1.969   .     S
O953   C955    1.301   .     A
O954   C956    1.301   .     A
O954   Cu963   1.969   .     S
C955   C976    1.455   .     S
C956   C975    1.455   .     S
O957   C961    1.283   .     A
O957   Cu963   1.963   .     S
O958   C962    1.283   .     A
O958   Cu964   1.963   .     S
O959   Cu964   1.958   .     S
O959   C961    1.303   .     A
O960   C962    1.303   .     A
O960   Cu963   1.958   .     S
C961   C967    1.434   .     S
C962   C968    1.434   .     S
Cu963  Cu964   2.703   .     S
Cu963  N965    2.031   .     S
Cu964  N966    2.031   .     S
N965   C978    1.375   .     A
N965   C979    1.371   .     A
N966   C977    1.375   .     A
N966   C980    1.371   .     A
C968   C1017   1.355   .     S
C968   N1034   1.441   .     S
C969   H971    1.079   .     S
C969   C976    1.400   .     A
C969   C1273   1.383   1_545 S
C970   C975    1.400   .     A
C970   H972    1.079   .     S
C970   C1124   1.383   .     S
C973   F987    1.357   .     S
C973   C975    1.405   .     A
C973   C1119   1.383   .     S
C974   F988    1.357   .     S
C974   C976    1.405   .     A
C974   C1270   1.383   1_545 S
C977   N989    1.427   .     S
C978   N992    1.427   .     S
C978   C80     1.423   1_556 S
C979   N995    1.430   .     S
C979   C77     1.423   1_556 S
C980   N998    1.430   .     S
N981   O982    1.300   .     A
N981   C1017   1.441   .     S
N981   O1033   1.301   .     S
N984   O985    1.300   .     A
O986   N1034   1.301   .     S
N989   O991    1.299   .     A
N989   O990    1.301   .     A
N992   O994    1.299   .     A
N992   O993    1.301   .     A
N995   O997    1.299   .     A
N995   O996    1.300   .     A
N998   O1000   1.299   .     A
N998   O999    1.300   .     A
O1001  C1005   1.299   .     A
O1001  Cu1013  1.970   .     S
O1002  C1006   1.299   .     A
O1002  Cu1014  1.970   .     S
O1003  Cu1014  1.969   .     S
O1003  C1005   1.301   .     A
O1004  C1006   1.301   .     A
O1004  Cu1013  1.969   .     S
C1005  C1026   1.455   .     S
C1006  C1025   1.455   .     S
O1007  C1011   1.283   .     A
O1007  Cu1013  1.963   .     S
O1008  C1012   1.283   .     A
O1008  Cu1014  1.963   .     S
O1009  Cu1014  1.958   .     S
O1009  C1011   1.303   .     A
O1010  C1012   1.303   .     A
O1010  Cu1013  1.958   .     S
C1011  C1017   1.434   .     S
C1012  C1018   1.434   .     S
Cu1013 Cu1014  2.703   .     S
Cu1013 N1015   2.031   .     S
Cu1014 N1016   2.031   .     S
N1015  C1028   1.375   .     A
N1015  C1029   1.371   .     A
N1016  C1027   1.375   .     A
N1016  C1030   1.371   .     A
C1018  C917    1.355   1_655 S
C1018  N934    1.441   1_655 S
C1019  H1021   1.079   .     S
C1019  C1026   1.400   .     A
C1019  C1323   1.383   1_545 S
C1020  C1025   1.400   .     A
C1020  H1022   1.079   .     S
C1020  C1174   1.383   .     S
C1023  F1037   1.357   .     S
C1023  C1025   1.405   .     A
C1023  C1169   1.383   .     S
C1024  F1038   1.357   .     S
C1024  C1026   1.405   .     A
C1024  C1320   1.383   1_545 S
C1027  N1039   1.427   .     S
C1028  N1042   1.427   .     S
C1028  C130    1.423   1_556 S
C1029  N1045   1.430   .     S
C1029  C127    1.423   1_556 S
C1030  N1048   1.430   .     S
N1031  O1032   1.300   .     A
N1031  C917    1.441   1_655 S
N1031  O933    1.301   1_655 S
N1034  O1035   1.300   .     A
O1036  N934    1.301   1_655 S
N1039  O1041   1.299   .     A
N1039  O1040   1.301   .     A
N1042  O1044   1.299   .     A
N1042  O1043   1.301   .     A
N1045  O1047   1.299   .     A
N1045  O1046   1.300   .     A
N1048  O1050   1.299   .     A
N1048  O1049   1.300   .     A
O1051  C1055   1.299   .     A
O1051  Cu1063  1.970   .     S
O1052  C1056   1.299   .     A
O1052  Cu1064  1.970   .     S
O1053  Cu1064  1.969   .     S
O1053  C1055   1.301   .     A
O1054  C1056   1.301   .     A
O1054  Cu1063  1.969   .     S
C1055  C1076   1.455   .     S
C1056  C1075   1.455   .     S
O1057  C1061   1.283   .     A
O1057  Cu1063  1.963   .     S
O1058  C1062   1.283   .     A
O1058  Cu1064  1.963   .     S
O1059  Cu1064  1.958   .     S
O1059  C1061   1.303   .     A
O1060  C1062   1.303   .     A
O1060  Cu1063  1.958   .     S
C1061  C1067   1.434   .     S
C1062  C1068   1.434   .     S
Cu1063 Cu1064  2.703   .     S
Cu1063 N1065   2.031   .     S
Cu1064 N1066   2.031   .     S
N1065  C1078   1.375   .     A
N1065  C1079   1.371   .     A
N1066  C1077   1.375   .     A
N1066  C1080   1.371   .     A
C1067  C1168   1.355   1_455 S
C1067  N1181   1.441   1_455 S
C1068  C1117   1.355   .     S
C1068  N1134   1.441   .     S
C1069  H1071   1.079   .     S
C1069  C1076   1.400   .     A
C1070  C1075   1.400   .     A
C1070  H1072   1.079   .     S
C1070  C1224   1.383   .     S
C1073  F1087   1.357   .     S
C1073  C1075   1.405   .     A
C1073  C1219   1.383   .     S
C1074  F1088   1.357   .     S
C1074  C1076   1.405   .     A
C1077  N1089   1.427   .     S
C1078  N1092   1.427   .     S
C1078  C180    1.423   1_556 S
C1079  N1095   1.430   .     S
C1079  C177    1.423   1_556 S
C1080  N1098   1.430   .     S
N1081  O1082   1.300   .     A
N1081  C1117   1.441   .     S
N1081  O1133   1.301   .     S
O1083  N1181   1.301   1_455 S
N1084  O1085   1.300   .     A
N1084  C1168   1.441   1_455 S
N1084  O1186   1.301   1_455 S
O1086  N1134   1.301   .     S
N1089  O1091   1.299   .     A
N1089  O1090   1.301   .     A
N1092  O1094   1.299   .     A
N1092  O1093   1.301   .     A
N1095  O1097   1.299   .     A
N1095  O1096   1.300   .     A
N1098  O1100   1.299   .     A
N1098  O1099   1.300   .     A
O1101  C1105   1.299   .     A
O1101  Cu1113  1.970   .     S
O1102  C1106   1.299   .     A
O1102  Cu1114  1.970   .     S
O1103  Cu1114  1.969   .     S
O1103  C1105   1.301   .     A
O1104  C1106   1.301   .     A
O1104  Cu1113  1.969   .     S
C1105  C1126   1.455   .     S
C1106  C1125   1.455   .     S
O1107  C1111   1.283   .     A
O1107  Cu1113  1.963   .     S
O1108  C1112   1.283   .     A
O1108  Cu1114  1.963   .     S
O1109  Cu1114  1.958   .     S
O1109  C1111   1.303   .     A
O1110  C1112   1.303   .     A
O1110  Cu1113  1.958   .     S
C1111  C1117   1.434   .     S
C1112  C1118   1.434   .     S
Cu1113 Cu1114  2.703   .     S
Cu1113 N1115   2.031   .     S
Cu1114 N1116   2.031   .     S
N1115  C1128   1.375   .     A
N1115  C1129   1.371   .     A
N1116  C1127   1.375   .     A
N1116  C1130   1.371   .     A
C1118  C1167   1.355   .     S
C1118  N1184   1.441   .     S
C1119  H1121   1.079   .     S
C1119  C1126   1.400   .     A
C1120  C1125   1.400   .     A
C1120  H1122   1.079   .     S
C1120  C1274   1.383   .     S
C1123  F1137   1.357   .     S
C1123  C1125   1.405   .     A
C1123  C1269   1.383   .     S
C1124  F1138   1.357   .     S
C1124  C1126   1.405   .     A
C1127  N1139   1.427   .     S
C1128  N1142   1.427   .     S
C1128  C230    1.423   1_556 S
C1129  N1145   1.430   .     S
C1129  C227    1.423   1_556 S
C1130  N1148   1.430   .     S
N1131  O1132   1.300   .     A
N1131  C1167   1.441   .     S
N1131  O1183   1.301   .     S
N1134  O1135   1.300   .     A
O1136  N1184   1.301   .     S
N1139  O1141   1.299   .     A
N1139  O1140   1.301   .     A
N1142  O1144   1.299   .     A
N1142  O1143   1.301   .     A
N1145  O1147   1.299   .     A
N1145  O1146   1.300   .     A
N1148  O1150   1.299   .     A
N1148  O1149   1.300   .     A
O1151  C1155   1.299   .     A
O1151  Cu1163  1.970   .     S
O1152  C1156   1.299   .     A
O1152  Cu1164  1.970   .     S
O1153  Cu1164  1.969   .     S
O1153  C1155   1.301   .     A
O1154  C1156   1.301   .     A
O1154  Cu1163  1.969   .     S
C1155  C1176   1.455   .     S
C1156  C1175   1.455   .     S
O1157  C1161   1.283   .     A
O1157  Cu1163  1.963   .     S
O1158  C1162   1.283   .     A
O1158  Cu1164  1.963   .     S
O1159  Cu1164  1.958   .     S
O1159  C1161   1.303   .     A
O1160  C1162   1.303   .     A
O1160  Cu1163  1.958   .     S
C1161  C1167   1.434   .     S
C1162  C1168   1.434   .     S
Cu1163 Cu1164  2.703   .     S
Cu1163 N1165   2.031   .     S
Cu1164 N1166   2.031   .     S
N1165  C1178   1.375   .     A
N1165  C1179   1.371   .     A
N1166  C1177   1.375   .     A
N1166  C1180   1.371   .     A
C1168  C1067   1.355   1_655 S
C1168  N1084   1.441   1_655 S
C1169  H1171   1.079   .     S
C1169  C1176   1.400   .     A
C1170  C1175   1.400   .     A
C1170  H1172   1.079   .     S
C1170  C1324   1.383   .     S
C1173  F1187   1.357   .     S
C1173  C1175   1.405   .     A
C1173  C1319   1.383   .     S
C1174  F1188   1.357   .     S
C1174  C1176   1.405   .     A
C1177  N1189   1.427   .     S
C1178  N1192   1.427   .     S
C1178  C280    1.423   1_556 S
C1179  N1195   1.430   .     S
C1179  C277    1.423   1_556 S
C1180  N1198   1.430   .     S
N1181  O1182   1.300   .     A
N1181  C1067   1.441   1_655 S
N1181  O1083   1.301   1_655 S
N1184  O1185   1.300   .     A
O1186  N1084   1.301   1_655 S
N1189  O1191   1.299   .     A
N1189  O1190   1.301   .     A
N1192  O1194   1.299   .     A
N1192  O1193   1.301   .     A
N1195  O1197   1.299   .     A
N1195  O1196   1.300   .     A
N1198  O1200   1.299   .     A
N1198  O1199   1.300   .     A
O1201  C1205   1.299   .     A
O1201  Cu1213  1.970   .     S
O1202  C1206   1.299   .     A
O1202  Cu1214  1.970   .     S
O1203  Cu1214  1.969   .     S
O1203  C1205   1.301   .     A
O1204  C1206   1.301   .     A
O1204  Cu1213  1.969   .     S
C1205  C1226   1.455   .     S
C1206  C1225   1.455   .     S
O1207  C1211   1.283   .     A
O1207  Cu1213  1.963   .     S
O1208  C1212   1.283   .     A
O1208  Cu1214  1.963   .     S
O1209  Cu1214  1.958   .     S
O1209  C1211   1.303   .     A
O1210  C1212   1.303   .     A
O1210  Cu1213  1.958   .     S
C1211  C1217   1.434   .     S
C1212  C1218   1.434   .     S
Cu1213 Cu1214  2.703   .     S
Cu1213 N1215   2.031   .     S
Cu1214 N1216   2.031   .     S
N1215  C1228   1.375   .     A
N1215  C1229   1.371   .     A
N1216  C1227   1.375   .     A
N1216  C1230   1.371   .     A
C1217  C1318   1.355   1_455 S
C1217  N1331   1.441   1_455 S
C1218  C1267   1.355   .     S
C1218  N1284   1.441   .     S
C1219  H1221   1.079   .     S
C1219  C1226   1.400   .     A
C1220  C1225   1.400   .     A
C1220  H1222   1.079   .     S
C1220  C924    1.383   1_565 S
C1223  F1237   1.357   .     S
C1223  C1225   1.405   .     A
C1223  C919    1.383   1_565 S
C1224  F1238   1.357   .     S
C1224  C1226   1.405   .     A
C1227  N1239   1.427   .     S
C1228  N1242   1.427   .     S
C1228  C330    1.423   1_556 S
C1229  N1245   1.430   .     S
C1229  C327    1.423   1_556 S
C1230  N1248   1.430   .     S
N1231  O1232   1.300   .     A
N1231  C1267   1.441   .     S
N1231  O1283   1.301   .     S
O1233  N1331   1.301   1_455 S
N1234  O1235   1.300   .     A
N1234  C1318   1.441   1_455 S
N1234  O1336   1.301   1_455 S
O1236  N1284   1.301   .     S
N1239  O1241   1.299   .     A
N1239  O1240   1.301   .     A
N1242  O1244   1.299   .     A
N1242  O1243   1.301   .     A
N1245  O1247   1.299   .     A
N1245  O1246   1.300   .     A
N1248  O1250   1.299   .     A
N1248  O1249   1.300   .     A
O1251  C1255   1.299   .     A
O1251  Cu1263  1.970   .     S
O1252  C1256   1.299   .     A
O1252  Cu1264  1.970   .     S
O1253  Cu1264  1.969   .     S
O1253  C1255   1.301   .     A
O1254  C1256   1.301   .     A
O1254  Cu1263  1.969   .     S
C1255  C1276   1.455   .     S
C1256  C1275   1.455   .     S
O1257  C1261   1.283   .     A
O1257  Cu1263  1.963   .     S
O1258  C1262   1.283   .     A
O1258  Cu1264  1.963   .     S
O1259  Cu1264  1.958   .     S
O1259  C1261   1.303   .     A
O1260  C1262   1.303   .     A
O1260  Cu1263  1.958   .     S
C1261  C1267   1.434   .     S
C1262  C1268   1.434   .     S
Cu1263 Cu1264  2.703   .     S
Cu1263 N1265   2.031   .     S
Cu1264 N1266   2.031   .     S
N1265  C1278   1.375   .     A
N1265  C1279   1.371   .     A
N1266  C1277   1.375   .     A
N1266  C1280   1.371   .     A
C1268  C1317   1.355   .     S
C1268  N1334   1.441   .     S
C1269  H1271   1.079   .     S
C1269  C1276   1.400   .     A
C1270  C1275   1.400   .     A
C1270  H1272   1.079   .     S
C1270  C974    1.383   1_565 S
C1273  F1287   1.357   .     S
C1273  C1275   1.405   .     A
C1273  C969    1.383   1_565 S
C1274  F1288   1.357   .     S
C1274  C1276   1.405   .     A
C1277  N1289   1.427   .     S
C1278  N1292   1.427   .     S
C1278  C380    1.423   1_556 S
C1279  N1295   1.430   .     S
C1279  C377    1.423   1_556 S
C1280  N1298   1.430   .     S
N1281  O1282   1.300   .     A
N1281  C1317   1.441   .     S
N1281  O1333   1.301   .     S
N1284  O1285   1.300   .     A
O1286  N1334   1.301   .     S
N1289  O1291   1.299   .     A
N1289  O1290   1.301   .     A
N1292  O1294   1.299   .     A
N1292  O1293   1.301   .     A
N1295  O1297   1.299   .     A
N1295  O1296   1.300   .     A
N1298  O1300   1.299   .     A
N1298  O1299   1.300   .     A
O1301  C1305   1.299   .     A
O1301  Cu1313  1.970   .     S
O1302  C1306   1.299   .     A
O1302  Cu1314  1.970   .     S
O1303  Cu1314  1.969   .     S
O1303  C1305   1.301   .     A
O1304  C1306   1.301   .     A
O1304  Cu1313  1.969   .     S
C1305  C1326   1.455   .     S
C1306  C1325   1.455   .     S
O1307  C1311   1.283   .     A
O1307  Cu1313  1.963   .     S
O1308  C1312   1.283   .     A
O1308  Cu1314  1.963   .     S
O1309  Cu1314  1.958   .     S
O1309  C1311   1.303   .     A
O1310  C1312   1.303   .     A
O1310  Cu1313  1.958   .     S
C1311  C1317   1.434   .     S
C1312  C1318   1.434   .     S
Cu1313 Cu1314  2.703   .     S
Cu1313 N1315   2.031   .     S
Cu1314 N1316   2.031   .     S
N1315  C1328   1.375   .     A
N1315  C1329   1.371   .     A
N1316  C1327   1.375   .     A
N1316  C1330   1.371   .     A
C1318  C1217   1.355   1_655 S
C1318  N1234   1.441   1_655 S
C1319  H1321   1.079   .     S
C1319  C1326   1.400   .     A
C1320  C1325   1.400   .     A
C1320  H1322   1.079   .     S
C1320  C1024   1.383   1_565 S
C1323  F1337   1.357   .     S
C1323  C1325   1.405   .     A
C1323  C1019   1.383   1_565 S
C1324  F1338   1.357   .     S
C1324  C1326   1.405   .     A
C1327  N1339   1.427   .     S
C1328  N1342   1.427   .     S
C1328  C430    1.423   1_556 S
C1329  N1345   1.430   .     S
C1329  C427    1.423   1_556 S
C1330  N1348   1.430   .     S
N1331  O1332   1.300   .     A
N1331  C1217   1.441   1_655 S
N1331  O1233   1.301   1_655 S
N1334  O1335   1.300   .     A
O1336  N1234   1.301   1_655 S
N1339  O1341   1.299   .     A
N1339  O1340   1.301   .     A
N1342  O1344   1.299   .     A
N1342  O1343   1.301   .     A
N1345  O1347   1.299   .     A
N1345  O1346   1.300   .     A
N1348  O1350   1.299   .     A
N1348  O1349   1.300   .     A
