data_str_m2_o10_o16_pcu_sym.125
_audit_creation_date              2020-01-03
_audit_creation_method            'Materials Studio'
_symmetry_space_group_name_H-M    'P1'
_symmetry_Int_Tables_number       1
_symmetry_cell_setting            triclinic
loop_
_symmetry_equiv_pos_as_xyz
  x,y,z
_cell_length_a                    22.3422
_cell_length_b                    26.0785
_cell_length_c                    26.7123
_cell_angle_alpha                 94.2315
_cell_angle_beta                  77.4981
_cell_angle_gamma                 103.2349
loop_
_atom_site_label
_atom_site_type_symbol
_atom_site_fract_x
_atom_site_fract_y
_atom_site_fract_z
_atom_site_U_iso_or_equiv
_atom_site_adp_type
_atom_site_occupancy
C1     C     0.18179   0.26673   0.25154   0.00000  Uiso   1.00
C2     C     0.13805   0.17383   0.48896   0.00000  Uiso   1.00
C3     C     0.15498   0.18720   0.43647   0.00000  Uiso   1.00
C4     C     0.18547   0.18538   0.01876   0.00000  Uiso   1.00
C5     C     0.24366   0.22018   0.49953   0.00000  Uiso   1.00
C6     C     0.25589   0.23943   0.45024   0.00000  Uiso   1.00
C7     C     0.21274   0.22262   0.41885   0.00000  Uiso   1.00
C8     C     0.17817   0.16211   0.06620   0.00000  Uiso   1.00
C9     C     0.27676   0.21738   0.07970   0.00000  Uiso   1.00
C10    C     0.11252   0.16636   0.40363   0.00000  Uiso   1.00
C11    C     0.19027   0.32273   0.25229   0.00000  Uiso   1.00
C12    C     0.13325   0.16603   0.34730   0.00000  Uiso   1.00
C13    C     0.14305   0.01061   0.24777   0.00000  Uiso   1.00
C14    C     0.15154   0.06660   0.24849   0.00000  Uiso   1.00
C15    C     0.20049   0.17050   0.15293   0.00000  Uiso   1.00
C16    C     0.28896   0.23555   0.02999   0.00000  Uiso   1.00
C17    C     0.22088   0.18117   0.09815   0.00000  Uiso   1.00
C18    C     0.05045   0.14171   0.42503   0.00000  Uiso   1.00
C19    C     0.03089   0.13668   0.47776   0.00000  Uiso   1.00
C20    C     0.07375   0.15244   0.00978   0.00000  Uiso   1.00
Cu21   Cu    0.10710   0.16105   0.24436   0.00000  Uiso   1.00
Cu22   Cu    0.22623   0.17228   0.25565   0.00000  Uiso   1.00
H23    H     0.31014   0.23257   0.10406   0.00000  Uiso   1.00
H24    H     0.09757   0.32006   0.24351   0.00000  Uiso   1.00
H25    H     0.00315   0.20524   0.29055   0.00000  Uiso   1.00
H26    H     0.33300   0.26284   0.01587   0.00000  Uiso   1.00
H27    H     0.01673   0.12651   0.40097   0.00000  Uiso   1.00
H28    H     0.31534   0.12023   0.49401   0.00000  Uiso   1.00
H29    H     0.22421   0.23985   0.38148   0.00000  Uiso   1.00
H30    H     0.23575   0.01327   0.25655   0.00000  Uiso   1.00
N31    N     0.31574   0.18074   0.26416   0.00000  Uiso   1.00
N32    N     0.01759   0.15259   0.23584   0.00000  Uiso   1.00
O33    O     0.12797   0.23807   0.24633   0.00000  Uiso   1.00
O34    O     0.22858   0.24755   0.25587   0.00000  Uiso   1.00
O35    O     0.09181   0.15960   0.31840   0.00000  Uiso   1.00
O36    O     0.19242   0.16908   0.32793   0.00000  Uiso   1.00
O37    O     0.10476   0.08578   0.24414   0.00000  Uiso   1.00
O38    O     0.20536   0.09526   0.25367   0.00000  Uiso   1.00
O39    O     0.14092   0.16425   0.17207   0.00000  Uiso   1.00
O40    O     0.24152   0.17373   0.18160   0.00000  Uiso   1.00
F41    F     0.32545   0.12106   0.20073   0.00000  Uiso   1.00
H42    H     0.29957   0.26686   0.43547   0.00000  Uiso   1.00
F43    F     0.13273   0.11831   0.08050   0.00000  Uiso   1.00
F44    F     0.05008   0.15220   0.06102   0.00000  Uiso   1.00
C45    C     0.51512   0.26673   0.25154   0.00000  Uiso   1.00
C46    C     0.47138   0.17383   0.48896   0.00000  Uiso   1.00
C47    C     0.48832   0.18720   0.43647   0.00000  Uiso   1.00
C48    C     0.51880   0.18538   0.01876   0.00000  Uiso   1.00
C49    C     0.57699   0.22018   0.49953   0.00000  Uiso   1.00
C50    C     0.58922   0.23943   0.45024   0.00000  Uiso   1.00
C51    C     0.54607   0.22262   0.41885   0.00000  Uiso   1.00
C52    C     0.51150   0.16211   0.06620   0.00000  Uiso   1.00
C53    C     0.61010   0.21738   0.07970   0.00000  Uiso   1.00
C54    C     0.44585   0.16636   0.40363   0.00000  Uiso   1.00
C55    C     0.52360   0.32273   0.25229   0.00000  Uiso   1.00
C56    C     0.46658   0.16603   0.34730   0.00000  Uiso   1.00
C57    C     0.47638   0.01061   0.24777   0.00000  Uiso   1.00
C58    C     0.48487   0.06660   0.24849   0.00000  Uiso   1.00
C59    C     0.53382   0.17050   0.15293   0.00000  Uiso   1.00
C60    C     0.62229   0.23555   0.02999   0.00000  Uiso   1.00
C61    C     0.55421   0.18117   0.09815   0.00000  Uiso   1.00
C62    C     0.38378   0.14171   0.42503   0.00000  Uiso   1.00
C63    C     0.36422   0.13668   0.47776   0.00000  Uiso   1.00
C64    C     0.40709   0.15244   0.00978   0.00000  Uiso   1.00
Cu65   Cu    0.44043   0.16105   0.24436   0.00000  Uiso   1.00
Cu66   Cu    0.55957   0.17228   0.25565   0.00000  Uiso   1.00
H67    H     0.64347   0.23257   0.10406   0.00000  Uiso   1.00
H68    H     0.43091   0.32006   0.24351   0.00000  Uiso   1.00
H69    H     0.33649   0.20524   0.29055   0.00000  Uiso   1.00
H70    H     0.66633   0.26284   0.01587   0.00000  Uiso   1.00
H71    H     0.35006   0.12651   0.40097   0.00000  Uiso   1.00
H72    H     0.64867   0.12023   0.49401   0.00000  Uiso   1.00
H73    H     0.55755   0.23985   0.38148   0.00000  Uiso   1.00
H74    H     0.56908   0.01327   0.25655   0.00000  Uiso   1.00
N75    N     0.64908   0.18074   0.26416   0.00000  Uiso   1.00
N76    N     0.35092   0.15259   0.23584   0.00000  Uiso   1.00
O77    O     0.46131   0.23807   0.24633   0.00000  Uiso   1.00
O78    O     0.56191   0.24755   0.25587   0.00000  Uiso   1.00
O79    O     0.42515   0.15960   0.31840   0.00000  Uiso   1.00
O80    O     0.52575   0.16908   0.32793   0.00000  Uiso   1.00
O81    O     0.43809   0.08578   0.24414   0.00000  Uiso   1.00
O82    O     0.53869   0.09526   0.25367   0.00000  Uiso   1.00
O83    O     0.47425   0.16425   0.17207   0.00000  Uiso   1.00
O84    O     0.57485   0.17373   0.18160   0.00000  Uiso   1.00
F85    F     0.65878   0.12106   0.20073   0.00000  Uiso   1.00
H86    H     0.63291   0.26686   0.43547   0.00000  Uiso   1.00
F87    F     0.46606   0.11831   0.08050   0.00000  Uiso   1.00
F88    F     0.38342   0.15220   0.06102   0.00000  Uiso   1.00
C89    C     0.84845   0.26673   0.25154   0.00000  Uiso   1.00
C90    C     0.80471   0.17383   0.48896   0.00000  Uiso   1.00
C91    C     0.82165   0.18720   0.43647   0.00000  Uiso   1.00
C92    C     0.85213   0.18538   0.01876   0.00000  Uiso   1.00
C93    C     0.91032   0.22018   0.49953   0.00000  Uiso   1.00
C94    C     0.92256   0.23943   0.45024   0.00000  Uiso   1.00
C95    C     0.87941   0.22262   0.41885   0.00000  Uiso   1.00
C96    C     0.84484   0.16211   0.06620   0.00000  Uiso   1.00
C97    C     0.94343   0.21738   0.07970   0.00000  Uiso   1.00
C98    C     0.77919   0.16636   0.40363   0.00000  Uiso   1.00
C99    C     0.85694   0.32273   0.25229   0.00000  Uiso   1.00
C100   C     0.79992   0.16603   0.34730   0.00000  Uiso   1.00
C101   C     0.80972   0.01061   0.24777   0.00000  Uiso   1.00
C102   C     0.81820   0.06660   0.24849   0.00000  Uiso   1.00
C103   C     0.86715   0.17050   0.15293   0.00000  Uiso   1.00
C104   C     0.95563   0.23555   0.02999   0.00000  Uiso   1.00
C105   C     0.88755   0.18117   0.09815   0.00000  Uiso   1.00
C106   C     0.71712   0.14171   0.42503   0.00000  Uiso   1.00
C107   C     0.69755   0.13668   0.47776   0.00000  Uiso   1.00
C108   C     0.74042   0.15244   0.00978   0.00000  Uiso   1.00
Cu109  Cu    0.77377   0.16105   0.24436   0.00000  Uiso   1.00
Cu110  Cu    0.89290   0.17228   0.25565   0.00000  Uiso   1.00
H111   H     0.97681   0.23257   0.10406   0.00000  Uiso   1.00
H112   H     0.76424   0.32006   0.24351   0.00000  Uiso   1.00
H113   H     0.66982   0.20524   0.29055   0.00000  Uiso   1.00
H114   H     0.99966   0.26284   0.01587   0.00000  Uiso   1.00
H115   H     0.68339   0.12651   0.40097   0.00000  Uiso   1.00
H116   H     0.98201   0.12023   0.49401   0.00000  Uiso   1.00
H117   H     0.89088   0.23985   0.38148   0.00000  Uiso   1.00
H118   H     0.90241   0.01327   0.25655   0.00000  Uiso   1.00
N119   N     0.98241   0.18074   0.26416   0.00000  Uiso   1.00
N120   N     0.68426   0.15259   0.23584   0.00000  Uiso   1.00
O121   O     0.79464   0.23807   0.24633   0.00000  Uiso   1.00
O122   O     0.89524   0.24755   0.25587   0.00000  Uiso   1.00
O123   O     0.75848   0.15960   0.31840   0.00000  Uiso   1.00
O124   O     0.85908   0.16908   0.32793   0.00000  Uiso   1.00
O125   O     0.77142   0.08578   0.24414   0.00000  Uiso   1.00
O126   O     0.87203   0.09526   0.25367   0.00000  Uiso   1.00
O127   O     0.80758   0.16425   0.17207   0.00000  Uiso   1.00
O128   O     0.90819   0.17373   0.18160   0.00000  Uiso   1.00
F129   F     0.99212   0.12106   0.20073   0.00000  Uiso   1.00
H130   H     0.96624   0.26686   0.43547   0.00000  Uiso   1.00
F131   F     0.79940   0.11831   0.08050   0.00000  Uiso   1.00
F132   F     0.71675   0.15220   0.06102   0.00000  Uiso   1.00
C133   C     0.18179   0.60007   0.25154   0.00000  Uiso   1.00
C134   C     0.13805   0.50716   0.48896   0.00000  Uiso   1.00
C135   C     0.15498   0.52053   0.43647   0.00000  Uiso   1.00
C136   C     0.18547   0.51871   0.01876   0.00000  Uiso   1.00
C137   C     0.24366   0.55351   0.49953   0.00000  Uiso   1.00
C138   C     0.25589   0.57276   0.45024   0.00000  Uiso   1.00
C139   C     0.21274   0.55595   0.41885   0.00000  Uiso   1.00
C140   C     0.17817   0.49544   0.06620   0.00000  Uiso   1.00
C141   C     0.27676   0.55071   0.07970   0.00000  Uiso   1.00
C142   C     0.11252   0.49969   0.40363   0.00000  Uiso   1.00
C143   C     0.19027   0.65606   0.25229   0.00000  Uiso   1.00
C144   C     0.13325   0.49936   0.34730   0.00000  Uiso   1.00
C145   C     0.14305   0.34394   0.24777   0.00000  Uiso   1.00
C146   C     0.15154   0.39994   0.24849   0.00000  Uiso   1.00
C147   C     0.20049   0.50383   0.15293   0.00000  Uiso   1.00
C148   C     0.28896   0.56888   0.02999   0.00000  Uiso   1.00
C149   C     0.22088   0.51450   0.09815   0.00000  Uiso   1.00
C150   C     0.05045   0.47504   0.42503   0.00000  Uiso   1.00
C151   C     0.03089   0.47001   0.47776   0.00000  Uiso   1.00
C152   C     0.07375   0.48577   0.00978   0.00000  Uiso   1.00
Cu153  Cu    0.10710   0.49439   0.24436   0.00000  Uiso   1.00
Cu154  Cu    0.22623   0.50561   0.25565   0.00000  Uiso   1.00
H155   H     0.31014   0.56590   0.10406   0.00000  Uiso   1.00
H156   H     0.09757   0.65339   0.24351   0.00000  Uiso   1.00
H157   H     0.00315   0.53858   0.29055   0.00000  Uiso   1.00
H158   H     0.33300   0.59617   0.01587   0.00000  Uiso   1.00
H159   H     0.01673   0.45985   0.40097   0.00000  Uiso   1.00
H160   H     0.31534   0.45356   0.49401   0.00000  Uiso   1.00
H161   H     0.22421   0.57318   0.38148   0.00000  Uiso   1.00
H162   H     0.23575   0.34660   0.25655   0.00000  Uiso   1.00
N163   N     0.31574   0.51407   0.26416   0.00000  Uiso   1.00
N164   N     0.01759   0.48593   0.23584   0.00000  Uiso   1.00
O165   O     0.12797   0.57141   0.24633   0.00000  Uiso   1.00
O166   O     0.22858   0.58089   0.25587   0.00000  Uiso   1.00
O167   O     0.09181   0.49293   0.31840   0.00000  Uiso   1.00
O168   O     0.19242   0.50241   0.32793   0.00000  Uiso   1.00
O169   O     0.10476   0.41911   0.24414   0.00000  Uiso   1.00
O170   O     0.20536   0.42859   0.25367   0.00000  Uiso   1.00
O171   O     0.14092   0.49759   0.17207   0.00000  Uiso   1.00
O172   O     0.24152   0.50707   0.18160   0.00000  Uiso   1.00
F173   F     0.32545   0.45440   0.20073   0.00000  Uiso   1.00
H174   H     0.29957   0.60019   0.43547   0.00000  Uiso   1.00
F175   F     0.13273   0.45165   0.08050   0.00000  Uiso   1.00
F176   F     0.05008   0.48554   0.06102   0.00000  Uiso   1.00
C177   C     0.51512   0.60007   0.25154   0.00000  Uiso   1.00
C178   C     0.47138   0.50716   0.48896   0.00000  Uiso   1.00
C179   C     0.48832   0.52053   0.43647   0.00000  Uiso   1.00
C180   C     0.51880   0.51871   0.01876   0.00000  Uiso   1.00
C181   C     0.57699   0.55351   0.49953   0.00000  Uiso   1.00
C182   C     0.58922   0.57276   0.45024   0.00000  Uiso   1.00
C183   C     0.54607   0.55595   0.41885   0.00000  Uiso   1.00
C184   C     0.51150   0.49544   0.06620   0.00000  Uiso   1.00
C185   C     0.61010   0.55071   0.07970   0.00000  Uiso   1.00
C186   C     0.44585   0.49969   0.40363   0.00000  Uiso   1.00
C187   C     0.52360   0.65606   0.25229   0.00000  Uiso   1.00
C188   C     0.46658   0.49936   0.34730   0.00000  Uiso   1.00
C189   C     0.47638   0.34394   0.24777   0.00000  Uiso   1.00
C190   C     0.48487   0.39994   0.24849   0.00000  Uiso   1.00
C191   C     0.53382   0.50383   0.15293   0.00000  Uiso   1.00
C192   C     0.62229   0.56888   0.02999   0.00000  Uiso   1.00
C193   C     0.55421   0.51450   0.09815   0.00000  Uiso   1.00
C194   C     0.38378   0.47504   0.42503   0.00000  Uiso   1.00
C195   C     0.36422   0.47001   0.47776   0.00000  Uiso   1.00
C196   C     0.40709   0.48577   0.00978   0.00000  Uiso   1.00
Cu197  Cu    0.44043   0.49439   0.24436   0.00000  Uiso   1.00
Cu198  Cu    0.55957   0.50561   0.25565   0.00000  Uiso   1.00
H199   H     0.64347   0.56590   0.10406   0.00000  Uiso   1.00
H200   H     0.43091   0.65339   0.24351   0.00000  Uiso   1.00
H201   H     0.33649   0.53858   0.29055   0.00000  Uiso   1.00
H202   H     0.66633   0.59617   0.01587   0.00000  Uiso   1.00
H203   H     0.35006   0.45985   0.40097   0.00000  Uiso   1.00
H204   H     0.64867   0.45356   0.49401   0.00000  Uiso   1.00
H205   H     0.55755   0.57318   0.38148   0.00000  Uiso   1.00
H206   H     0.56908   0.34660   0.25655   0.00000  Uiso   1.00
N207   N     0.64908   0.51407   0.26416   0.00000  Uiso   1.00
N208   N     0.35092   0.48593   0.23584   0.00000  Uiso   1.00
O209   O     0.46131   0.57141   0.24633   0.00000  Uiso   1.00
O210   O     0.56191   0.58089   0.25587   0.00000  Uiso   1.00
O211   O     0.42515   0.49293   0.31840   0.00000  Uiso   1.00
O212   O     0.52575   0.50241   0.32793   0.00000  Uiso   1.00
O213   O     0.43809   0.41911   0.24414   0.00000  Uiso   1.00
O214   O     0.53869   0.42859   0.25367   0.00000  Uiso   1.00
O215   O     0.47425   0.49759   0.17207   0.00000  Uiso   1.00
O216   O     0.57485   0.50707   0.18160   0.00000  Uiso   1.00
F217   F     0.65878   0.45440   0.20073   0.00000  Uiso   1.00
H218   H     0.63291   0.60019   0.43547   0.00000  Uiso   1.00
F219   F     0.46606   0.45165   0.08050   0.00000  Uiso   1.00
F220   F     0.38342   0.48554   0.06102   0.00000  Uiso   1.00
C221   C     0.84845   0.60007   0.25154   0.00000  Uiso   1.00
C222   C     0.80471   0.50716   0.48896   0.00000  Uiso   1.00
C223   C     0.82165   0.52053   0.43647   0.00000  Uiso   1.00
C224   C     0.85213   0.51871   0.01876   0.00000  Uiso   1.00
C225   C     0.91032   0.55351   0.49953   0.00000  Uiso   1.00
C226   C     0.92256   0.57276   0.45024   0.00000  Uiso   1.00
C227   C     0.87941   0.55595   0.41885   0.00000  Uiso   1.00
C228   C     0.84484   0.49544   0.06620   0.00000  Uiso   1.00
C229   C     0.94343   0.55071   0.07970   0.00000  Uiso   1.00
C230   C     0.77919   0.49969   0.40363   0.00000  Uiso   1.00
C231   C     0.85694   0.65606   0.25229   0.00000  Uiso   1.00
C232   C     0.79992   0.49936   0.34730   0.00000  Uiso   1.00
C233   C     0.80972   0.34394   0.24777   0.00000  Uiso   1.00
C234   C     0.81820   0.39994   0.24849   0.00000  Uiso   1.00
C235   C     0.86715   0.50383   0.15293   0.00000  Uiso   1.00
C236   C     0.95563   0.56888   0.02999   0.00000  Uiso   1.00
C237   C     0.88755   0.51450   0.09815   0.00000  Uiso   1.00
C238   C     0.71712   0.47504   0.42503   0.00000  Uiso   1.00
C239   C     0.69755   0.47001   0.47776   0.00000  Uiso   1.00
C240   C     0.74042   0.48577   0.00978   0.00000  Uiso   1.00
Cu241  Cu    0.77377   0.49439   0.24436   0.00000  Uiso   1.00
Cu242  Cu    0.89290   0.50561   0.25565   0.00000  Uiso   1.00
H243   H     0.97681   0.56590   0.10406   0.00000  Uiso   1.00
H244   H     0.76424   0.65339   0.24351   0.00000  Uiso   1.00
H245   H     0.66982   0.53858   0.29055   0.00000  Uiso   1.00
H246   H     0.99966   0.59617   0.01587   0.00000  Uiso   1.00
H247   H     0.68339   0.45985   0.40097   0.00000  Uiso   1.00
H248   H     0.98201   0.45356   0.49401   0.00000  Uiso   1.00
H249   H     0.89088   0.57318   0.38148   0.00000  Uiso   1.00
H250   H     0.90241   0.34660   0.25655   0.00000  Uiso   1.00
N251   N     0.98241   0.51407   0.26416   0.00000  Uiso   1.00
N252   N     0.68426   0.48593   0.23584   0.00000  Uiso   1.00
O253   O     0.79464   0.57141   0.24633   0.00000  Uiso   1.00
O254   O     0.89524   0.58089   0.25587   0.00000  Uiso   1.00
O255   O     0.75848   0.49293   0.31840   0.00000  Uiso   1.00
O256   O     0.85908   0.50241   0.32793   0.00000  Uiso   1.00
O257   O     0.77142   0.41911   0.24414   0.00000  Uiso   1.00
O258   O     0.87203   0.42859   0.25367   0.00000  Uiso   1.00
O259   O     0.80758   0.49759   0.17207   0.00000  Uiso   1.00
O260   O     0.90819   0.50707   0.18160   0.00000  Uiso   1.00
F261   F     0.99212   0.45440   0.20073   0.00000  Uiso   1.00
H262   H     0.96624   0.60019   0.43547   0.00000  Uiso   1.00
F263   F     0.79940   0.45165   0.08050   0.00000  Uiso   1.00
F264   F     0.71675   0.48554   0.06102   0.00000  Uiso   1.00
C265   C     0.18179   0.93340   0.25154   0.00000  Uiso   1.00
C266   C     0.13805   0.84049   0.48896   0.00000  Uiso   1.00
C267   C     0.15498   0.85386   0.43647   0.00000  Uiso   1.00
C268   C     0.18547   0.85204   0.01876   0.00000  Uiso   1.00
C269   C     0.24366   0.88684   0.49953   0.00000  Uiso   1.00
C270   C     0.25589   0.90609   0.45024   0.00000  Uiso   1.00
C271   C     0.21274   0.88928   0.41885   0.00000  Uiso   1.00
C272   C     0.17817   0.82877   0.06620   0.00000  Uiso   1.00
C273   C     0.27676   0.88405   0.07970   0.00000  Uiso   1.00
C274   C     0.11252   0.83302   0.40363   0.00000  Uiso   1.00
C275   C     0.19027   0.98939   0.25229   0.00000  Uiso   1.00
C276   C     0.13325   0.83270   0.34730   0.00000  Uiso   1.00
C277   C     0.14305   0.67727   0.24777   0.00000  Uiso   1.00
C278   C     0.15154   0.73327   0.24849   0.00000  Uiso   1.00
C279   C     0.20049   0.83716   0.15293   0.00000  Uiso   1.00
C280   C     0.28896   0.90222   0.02999   0.00000  Uiso   1.00
C281   C     0.22088   0.84784   0.09815   0.00000  Uiso   1.00
C282   C     0.05045   0.80838   0.42503   0.00000  Uiso   1.00
C283   C     0.03089   0.80334   0.47776   0.00000  Uiso   1.00
C284   C     0.07375   0.81910   0.00978   0.00000  Uiso   1.00
Cu285  Cu    0.10710   0.82772   0.24436   0.00000  Uiso   1.00
Cu286  Cu    0.22623   0.83895   0.25565   0.00000  Uiso   1.00
H287   H     0.31014   0.89923   0.10406   0.00000  Uiso   1.00
H288   H     0.09757   0.98673   0.24351   0.00000  Uiso   1.00
H289   H     0.00315   0.87191   0.29055   0.00000  Uiso   1.00
H290   H     0.33300   0.92950   0.01587   0.00000  Uiso   1.00
H291   H     0.01673   0.79318   0.40097   0.00000  Uiso   1.00
H292   H     0.31534   0.78690   0.49401   0.00000  Uiso   1.00
H293   H     0.22421   0.90652   0.38148   0.00000  Uiso   1.00
H294   H     0.23575   0.67994   0.25655   0.00000  Uiso   1.00
N295   N     0.31574   0.84741   0.26416   0.00000  Uiso   1.00
N296   N     0.01759   0.81926   0.23584   0.00000  Uiso   1.00
O297   O     0.12797   0.90474   0.24633   0.00000  Uiso   1.00
O298   O     0.22858   0.91422   0.25587   0.00000  Uiso   1.00
O299   O     0.09181   0.82627   0.31840   0.00000  Uiso   1.00
O300   O     0.19242   0.83575   0.32793   0.00000  Uiso   1.00
O301   O     0.10476   0.75245   0.24414   0.00000  Uiso   1.00
O302   O     0.20536   0.76193   0.25367   0.00000  Uiso   1.00
O303   O     0.14092   0.83092   0.17207   0.00000  Uiso   1.00
O304   O     0.24152   0.84040   0.18160   0.00000  Uiso   1.00
F305   F     0.32545   0.78773   0.20073   0.00000  Uiso   1.00
H306   H     0.29957   0.93353   0.43547   0.00000  Uiso   1.00
F307   F     0.13273   0.78498   0.08050   0.00000  Uiso   1.00
F308   F     0.05008   0.81887   0.06102   0.00000  Uiso   1.00
C309   C     0.51512   0.93340   0.25154   0.00000  Uiso   1.00
C310   C     0.47138   0.84049   0.48896   0.00000  Uiso   1.00
C311   C     0.48832   0.85386   0.43647   0.00000  Uiso   1.00
C312   C     0.51880   0.85204   0.01876   0.00000  Uiso   1.00
C313   C     0.57699   0.88684   0.49953   0.00000  Uiso   1.00
C314   C     0.58922   0.90609   0.45024   0.00000  Uiso   1.00
C315   C     0.54607   0.88928   0.41885   0.00000  Uiso   1.00
C316   C     0.51150   0.82877   0.06620   0.00000  Uiso   1.00
C317   C     0.61010   0.88405   0.07970   0.00000  Uiso   1.00
C318   C     0.44585   0.83302   0.40363   0.00000  Uiso   1.00
C319   C     0.52360   0.98939   0.25229   0.00000  Uiso   1.00
C320   C     0.46658   0.83270   0.34730   0.00000  Uiso   1.00
C321   C     0.47638   0.67727   0.24777   0.00000  Uiso   1.00
C322   C     0.48487   0.73327   0.24849   0.00000  Uiso   1.00
C323   C     0.53382   0.83716   0.15293   0.00000  Uiso   1.00
C324   C     0.62229   0.90222   0.02999   0.00000  Uiso   1.00
C325   C     0.55421   0.84784   0.09815   0.00000  Uiso   1.00
C326   C     0.38378   0.80838   0.42503   0.00000  Uiso   1.00
C327   C     0.36422   0.80334   0.47776   0.00000  Uiso   1.00
C328   C     0.40709   0.81910   0.00978   0.00000  Uiso   1.00
Cu329  Cu    0.44043   0.82772   0.24436   0.00000  Uiso   1.00
Cu330  Cu    0.55957   0.83895   0.25565   0.00000  Uiso   1.00
H331   H     0.64347   0.89923   0.10406   0.00000  Uiso   1.00
H332   H     0.43091   0.98673   0.24351   0.00000  Uiso   1.00
H333   H     0.33649   0.87191   0.29055   0.00000  Uiso   1.00
H334   H     0.66633   0.92950   0.01587   0.00000  Uiso   1.00
H335   H     0.35006   0.79318   0.40097   0.00000  Uiso   1.00
H336   H     0.64867   0.78690   0.49401   0.00000  Uiso   1.00
H337   H     0.55755   0.90652   0.38148   0.00000  Uiso   1.00
H338   H     0.56908   0.67994   0.25655   0.00000  Uiso   1.00
N339   N     0.64908   0.84741   0.26416   0.00000  Uiso   1.00
N340   N     0.35092   0.81926   0.23584   0.00000  Uiso   1.00
O341   O     0.46131   0.90474   0.24633   0.00000  Uiso   1.00
O342   O     0.56191   0.91422   0.25587   0.00000  Uiso   1.00
O343   O     0.42515   0.82627   0.31840   0.00000  Uiso   1.00
O344   O     0.52575   0.83575   0.32793   0.00000  Uiso   1.00
O345   O     0.43809   0.75245   0.24414   0.00000  Uiso   1.00
O346   O     0.53869   0.76193   0.25367   0.00000  Uiso   1.00
O347   O     0.47425   0.83092   0.17207   0.00000  Uiso   1.00
O348   O     0.57485   0.84040   0.18160   0.00000  Uiso   1.00
F349   F     0.65878   0.78773   0.20073   0.00000  Uiso   1.00
H350   H     0.63291   0.93353   0.43547   0.00000  Uiso   1.00
F351   F     0.46606   0.78498   0.08050   0.00000  Uiso   1.00
F352   F     0.38342   0.81887   0.06102   0.00000  Uiso   1.00
C353   C     0.84845   0.93340   0.25154   0.00000  Uiso   1.00
C354   C     0.80471   0.84049   0.48896   0.00000  Uiso   1.00
C355   C     0.82165   0.85386   0.43647   0.00000  Uiso   1.00
C356   C     0.85213   0.85204   0.01876   0.00000  Uiso   1.00
C357   C     0.91032   0.88684   0.49953   0.00000  Uiso   1.00
C358   C     0.92256   0.90609   0.45024   0.00000  Uiso   1.00
C359   C     0.87941   0.88928   0.41885   0.00000  Uiso   1.00
C360   C     0.84484   0.82877   0.06620   0.00000  Uiso   1.00
C361   C     0.94343   0.88405   0.07970   0.00000  Uiso   1.00
C362   C     0.77919   0.83302   0.40363   0.00000  Uiso   1.00
C363   C     0.85694   0.98939   0.25229   0.00000  Uiso   1.00
C364   C     0.79992   0.83270   0.34730   0.00000  Uiso   1.00
C365   C     0.80972   0.67727   0.24777   0.00000  Uiso   1.00
C366   C     0.81820   0.73327   0.24849   0.00000  Uiso   1.00
C367   C     0.86715   0.83716   0.15293   0.00000  Uiso   1.00
C368   C     0.95563   0.90222   0.02999   0.00000  Uiso   1.00
C369   C     0.88755   0.84784   0.09815   0.00000  Uiso   1.00
C370   C     0.71712   0.80838   0.42503   0.00000  Uiso   1.00
C371   C     0.69755   0.80334   0.47776   0.00000  Uiso   1.00
C372   C     0.74042   0.81910   0.00978   0.00000  Uiso   1.00
Cu373  Cu    0.77377   0.82772   0.24436   0.00000  Uiso   1.00
Cu374  Cu    0.89290   0.83895   0.25565   0.00000  Uiso   1.00
H375   H     0.97681   0.89923   0.10406   0.00000  Uiso   1.00
H376   H     0.76424   0.98673   0.24351   0.00000  Uiso   1.00
H377   H     0.66982   0.87191   0.29055   0.00000  Uiso   1.00
H378   H     0.99966   0.92950   0.01587   0.00000  Uiso   1.00
H379   H     0.68339   0.79318   0.40097   0.00000  Uiso   1.00
H380   H     0.98201   0.78690   0.49401   0.00000  Uiso   1.00
H381   H     0.89088   0.90652   0.38148   0.00000  Uiso   1.00
H382   H     0.90241   0.67994   0.25655   0.00000  Uiso   1.00
N383   N     0.98241   0.84741   0.26416   0.00000  Uiso   1.00
N384   N     0.68426   0.81926   0.23584   0.00000  Uiso   1.00
O385   O     0.79464   0.90474   0.24633   0.00000  Uiso   1.00
O386   O     0.89524   0.91422   0.25587   0.00000  Uiso   1.00
O387   O     0.75848   0.82627   0.31840   0.00000  Uiso   1.00
O388   O     0.85908   0.83575   0.32793   0.00000  Uiso   1.00
O389   O     0.77142   0.75245   0.24414   0.00000  Uiso   1.00
O390   O     0.87203   0.76193   0.25367   0.00000  Uiso   1.00
O391   O     0.80758   0.83092   0.17207   0.00000  Uiso   1.00
O392   O     0.90819   0.84040   0.18160   0.00000  Uiso   1.00
F393   F     0.99212   0.78773   0.20073   0.00000  Uiso   1.00
H394   H     0.96624   0.93353   0.43547   0.00000  Uiso   1.00
F395   F     0.79940   0.78498   0.08050   0.00000  Uiso   1.00
F396   F     0.71675   0.81887   0.06102   0.00000  Uiso   1.00
C397   C     0.18179   0.26673   0.75154   0.00000  Uiso   1.00
C398   C     0.13805   0.17383   0.98896   0.00000  Uiso   1.00
C399   C     0.15498   0.18720   0.93647   0.00000  Uiso   1.00
C400   C     0.18547   0.18538   0.51876   0.00000  Uiso   1.00
C401   C     0.24366   0.22018   0.99953   0.00000  Uiso   1.00
C402   C     0.25589   0.23943   0.95024   0.00000  Uiso   1.00
C403   C     0.21274   0.22262   0.91885   0.00000  Uiso   1.00
C404   C     0.17817   0.16211   0.56620   0.00000  Uiso   1.00
C405   C     0.27676   0.21738   0.57970   0.00000  Uiso   1.00
C406   C     0.11252   0.16636   0.90363   0.00000  Uiso   1.00
C407   C     0.19027   0.32273   0.75229   0.00000  Uiso   1.00
C408   C     0.13325   0.16603   0.84730   0.00000  Uiso   1.00
C409   C     0.14305   0.01061   0.74777   0.00000  Uiso   1.00
C410   C     0.15154   0.06660   0.74849   0.00000  Uiso   1.00
C411   C     0.20049   0.17050   0.65293   0.00000  Uiso   1.00
C412   C     0.28896   0.23555   0.52999   0.00000  Uiso   1.00
C413   C     0.22088   0.18117   0.59815   0.00000  Uiso   1.00
C414   C     0.05045   0.14171   0.92503   0.00000  Uiso   1.00
C415   C     0.03089   0.13668   0.97776   0.00000  Uiso   1.00
C416   C     0.07375   0.15244   0.50978   0.00000  Uiso   1.00
Cu417  Cu    0.10710   0.16105   0.74436   0.00000  Uiso   1.00
Cu418  Cu    0.22623   0.17228   0.75565   0.00000  Uiso   1.00
H419   H     0.31014   0.23257   0.60406   0.00000  Uiso   1.00
H420   H     0.09757   0.32006   0.74351   0.00000  Uiso   1.00
H421   H     0.00315   0.20524   0.79055   0.00000  Uiso   1.00
H422   H     0.33300   0.26284   0.51587   0.00000  Uiso   1.00
H423   H     0.01673   0.12651   0.90097   0.00000  Uiso   1.00
H424   H     0.31534   0.12023   0.99401   0.00000  Uiso   1.00
H425   H     0.22421   0.23985   0.88148   0.00000  Uiso   1.00
H426   H     0.23575   0.01327   0.75655   0.00000  Uiso   1.00
N427   N     0.31574   0.18074   0.76416   0.00000  Uiso   1.00
N428   N     0.01759   0.15259   0.73584   0.00000  Uiso   1.00
O429   O     0.12797   0.23807   0.74633   0.00000  Uiso   1.00
O430   O     0.22858   0.24755   0.75587   0.00000  Uiso   1.00
O431   O     0.09181   0.15960   0.81840   0.00000  Uiso   1.00
O432   O     0.19242   0.16908   0.82793   0.00000  Uiso   1.00
O433   O     0.10476   0.08578   0.74414   0.00000  Uiso   1.00
O434   O     0.20536   0.09526   0.75367   0.00000  Uiso   1.00
O435   O     0.14092   0.16425   0.67207   0.00000  Uiso   1.00
O436   O     0.24152   0.17373   0.68160   0.00000  Uiso   1.00
F437   F     0.32545   0.12106   0.70073   0.00000  Uiso   1.00
H438   H     0.29957   0.26686   0.93547   0.00000  Uiso   1.00
F439   F     0.13273   0.11831   0.58050   0.00000  Uiso   1.00
F440   F     0.05008   0.15220   0.56102   0.00000  Uiso   1.00
C441   C     0.51512   0.26673   0.75154   0.00000  Uiso   1.00
C442   C     0.47138   0.17383   0.98896   0.00000  Uiso   1.00
C443   C     0.48832   0.18720   0.93647   0.00000  Uiso   1.00
C444   C     0.51880   0.18538   0.51876   0.00000  Uiso   1.00
C445   C     0.57699   0.22018   0.99953   0.00000  Uiso   1.00
C446   C     0.58922   0.23943   0.95024   0.00000  Uiso   1.00
C447   C     0.54607   0.22262   0.91885   0.00000  Uiso   1.00
C448   C     0.51150   0.16211   0.56620   0.00000  Uiso   1.00
C449   C     0.61010   0.21738   0.57970   0.00000  Uiso   1.00
C450   C     0.44585   0.16636   0.90363   0.00000  Uiso   1.00
C451   C     0.52360   0.32273   0.75229   0.00000  Uiso   1.00
C452   C     0.46658   0.16603   0.84730   0.00000  Uiso   1.00
C453   C     0.47638   0.01061   0.74777   0.00000  Uiso   1.00
C454   C     0.48487   0.06660   0.74849   0.00000  Uiso   1.00
C455   C     0.53382   0.17050   0.65293   0.00000  Uiso   1.00
C456   C     0.62229   0.23555   0.52999   0.00000  Uiso   1.00
C457   C     0.55421   0.18117   0.59815   0.00000  Uiso   1.00
C458   C     0.38378   0.14171   0.92503   0.00000  Uiso   1.00
C459   C     0.36422   0.13668   0.97776   0.00000  Uiso   1.00
C460   C     0.40709   0.15244   0.50978   0.00000  Uiso   1.00
Cu461  Cu    0.44043   0.16105   0.74436   0.00000  Uiso   1.00
Cu462  Cu    0.55957   0.17228   0.75565   0.00000  Uiso   1.00
H463   H     0.64347   0.23257   0.60406   0.00000  Uiso   1.00
H464   H     0.43091   0.32006   0.74351   0.00000  Uiso   1.00
H465   H     0.33649   0.20524   0.79055   0.00000  Uiso   1.00
H466   H     0.66633   0.26284   0.51587   0.00000  Uiso   1.00
H467   H     0.35006   0.12651   0.90097   0.00000  Uiso   1.00
H468   H     0.64867   0.12023   0.99401   0.00000  Uiso   1.00
H469   H     0.55755   0.23985   0.88148   0.00000  Uiso   1.00
H470   H     0.56908   0.01327   0.75655   0.00000  Uiso   1.00
N471   N     0.64908   0.18074   0.76416   0.00000  Uiso   1.00
N472   N     0.35092   0.15259   0.73584   0.00000  Uiso   1.00
O473   O     0.46131   0.23807   0.74633   0.00000  Uiso   1.00
O474   O     0.56191   0.24755   0.75587   0.00000  Uiso   1.00
O475   O     0.42515   0.15960   0.81840   0.00000  Uiso   1.00
O476   O     0.52575   0.16908   0.82793   0.00000  Uiso   1.00
O477   O     0.43809   0.08578   0.74414   0.00000  Uiso   1.00
O478   O     0.53869   0.09526   0.75367   0.00000  Uiso   1.00
O479   O     0.47425   0.16425   0.67207   0.00000  Uiso   1.00
O480   O     0.57485   0.17373   0.68160   0.00000  Uiso   1.00
F481   F     0.65878   0.12106   0.70073   0.00000  Uiso   1.00
H482   H     0.63291   0.26686   0.93547   0.00000  Uiso   1.00
F483   F     0.46606   0.11831   0.58050   0.00000  Uiso   1.00
F484   F     0.38342   0.15220   0.56102   0.00000  Uiso   1.00
C485   C     0.84845   0.26673   0.75154   0.00000  Uiso   1.00
C486   C     0.80471   0.17383   0.98896   0.00000  Uiso   1.00
C487   C     0.82165   0.18720   0.93647   0.00000  Uiso   1.00
C488   C     0.85213   0.18538   0.51876   0.00000  Uiso   1.00
C489   C     0.91032   0.22018   0.99953   0.00000  Uiso   1.00
C490   C     0.92256   0.23943   0.95024   0.00000  Uiso   1.00
C491   C     0.87941   0.22262   0.91885   0.00000  Uiso   1.00
C492   C     0.84484   0.16211   0.56620   0.00000  Uiso   1.00
C493   C     0.94343   0.21738   0.57970   0.00000  Uiso   1.00
C494   C     0.77919   0.16636   0.90363   0.00000  Uiso   1.00
C495   C     0.85694   0.32273   0.75229   0.00000  Uiso   1.00
C496   C     0.79992   0.16603   0.84730   0.00000  Uiso   1.00
C497   C     0.80972   0.01061   0.74777   0.00000  Uiso   1.00
C498   C     0.81820   0.06660   0.74849   0.00000  Uiso   1.00
C499   C     0.86715   0.17050   0.65293   0.00000  Uiso   1.00
C500   C     0.95563   0.23555   0.52999   0.00000  Uiso   1.00
C501   C     0.88755   0.18117   0.59815   0.00000  Uiso   1.00
C502   C     0.71712   0.14171   0.92503   0.00000  Uiso   1.00
C503   C     0.69755   0.13668   0.97776   0.00000  Uiso   1.00
C504   C     0.74042   0.15244   0.50978   0.00000  Uiso   1.00
Cu505  Cu    0.77377   0.16105   0.74436   0.00000  Uiso   1.00
Cu506  Cu    0.89290   0.17228   0.75565   0.00000  Uiso   1.00
H507   H     0.97681   0.23257   0.60406   0.00000  Uiso   1.00
H508   H     0.76424   0.32006   0.74351   0.00000  Uiso   1.00
H509   H     0.66982   0.20524   0.79055   0.00000  Uiso   1.00
H510   H     0.99966   0.26284   0.51587   0.00000  Uiso   1.00
H511   H     0.68339   0.12651   0.90097   0.00000  Uiso   1.00
H512   H     0.98201   0.12023   0.99401   0.00000  Uiso   1.00
H513   H     0.89088   0.23985   0.88148   0.00000  Uiso   1.00
H514   H     0.90241   0.01327   0.75655   0.00000  Uiso   1.00
N515   N     0.98241   0.18074   0.76416   0.00000  Uiso   1.00
N516   N     0.68426   0.15259   0.73584   0.00000  Uiso   1.00
O517   O     0.79464   0.23807   0.74633   0.00000  Uiso   1.00
O518   O     0.89524   0.24755   0.75587   0.00000  Uiso   1.00
O519   O     0.75848   0.15960   0.81840   0.00000  Uiso   1.00
O520   O     0.85908   0.16908   0.82793   0.00000  Uiso   1.00
O521   O     0.77142   0.08578   0.74414   0.00000  Uiso   1.00
O522   O     0.87203   0.09526   0.75367   0.00000  Uiso   1.00
O523   O     0.80758   0.16425   0.67207   0.00000  Uiso   1.00
O524   O     0.90819   0.17373   0.68160   0.00000  Uiso   1.00
F525   F     0.99212   0.12106   0.70073   0.00000  Uiso   1.00
H526   H     0.96624   0.26686   0.93547   0.00000  Uiso   1.00
F527   F     0.79940   0.11831   0.58050   0.00000  Uiso   1.00
F528   F     0.71675   0.15220   0.56102   0.00000  Uiso   1.00
C529   C     0.18179   0.60007   0.75154   0.00000  Uiso   1.00
C530   C     0.13805   0.50716   0.98896   0.00000  Uiso   1.00
C531   C     0.15498   0.52053   0.93647   0.00000  Uiso   1.00
C532   C     0.18547   0.51871   0.51876   0.00000  Uiso   1.00
C533   C     0.24366   0.55351   0.99953   0.00000  Uiso   1.00
C534   C     0.25589   0.57276   0.95024   0.00000  Uiso   1.00
C535   C     0.21274   0.55595   0.91885   0.00000  Uiso   1.00
C536   C     0.17817   0.49544   0.56620   0.00000  Uiso   1.00
C537   C     0.27676   0.55071   0.57970   0.00000  Uiso   1.00
C538   C     0.11252   0.49969   0.90363   0.00000  Uiso   1.00
C539   C     0.19027   0.65606   0.75229   0.00000  Uiso   1.00
C540   C     0.13325   0.49936   0.84730   0.00000  Uiso   1.00
C541   C     0.14305   0.34394   0.74777   0.00000  Uiso   1.00
C542   C     0.15154   0.39994   0.74849   0.00000  Uiso   1.00
C543   C     0.20049   0.50383   0.65293   0.00000  Uiso   1.00
C544   C     0.28896   0.56888   0.52999   0.00000  Uiso   1.00
C545   C     0.22088   0.51450   0.59815   0.00000  Uiso   1.00
C546   C     0.05045   0.47504   0.92503   0.00000  Uiso   1.00
C547   C     0.03089   0.47001   0.97776   0.00000  Uiso   1.00
C548   C     0.07375   0.48577   0.50978   0.00000  Uiso   1.00
Cu549  Cu    0.10710   0.49439   0.74436   0.00000  Uiso   1.00
Cu550  Cu    0.22623   0.50561   0.75565   0.00000  Uiso   1.00
H551   H     0.31014   0.56590   0.60406   0.00000  Uiso   1.00
H552   H     0.09757   0.65339   0.74351   0.00000  Uiso   1.00
H553   H     0.00315   0.53858   0.79055   0.00000  Uiso   1.00
H554   H     0.33300   0.59617   0.51587   0.00000  Uiso   1.00
H555   H     0.01673   0.45985   0.90097   0.00000  Uiso   1.00
H556   H     0.31534   0.45356   0.99401   0.00000  Uiso   1.00
H557   H     0.22421   0.57318   0.88148   0.00000  Uiso   1.00
H558   H     0.23575   0.34660   0.75655   0.00000  Uiso   1.00
N559   N     0.31574   0.51407   0.76416   0.00000  Uiso   1.00
N560   N     0.01759   0.48593   0.73584   0.00000  Uiso   1.00
O561   O     0.12797   0.57141   0.74633   0.00000  Uiso   1.00
O562   O     0.22858   0.58089   0.75587   0.00000  Uiso   1.00
O563   O     0.09181   0.49293   0.81840   0.00000  Uiso   1.00
O564   O     0.19242   0.50241   0.82793   0.00000  Uiso   1.00
O565   O     0.10476   0.41911   0.74414   0.00000  Uiso   1.00
O566   O     0.20536   0.42859   0.75367   0.00000  Uiso   1.00
O567   O     0.14092   0.49759   0.67207   0.00000  Uiso   1.00
O568   O     0.24152   0.50707   0.68160   0.00000  Uiso   1.00
F569   F     0.32545   0.45440   0.70073   0.00000  Uiso   1.00
H570   H     0.29957   0.60019   0.93547   0.00000  Uiso   1.00
F571   F     0.13273   0.45165   0.58050   0.00000  Uiso   1.00
F572   F     0.05008   0.48554   0.56102   0.00000  Uiso   1.00
C573   C     0.51512   0.60007   0.75154   0.00000  Uiso   1.00
C574   C     0.47138   0.50716   0.98896   0.00000  Uiso   1.00
C575   C     0.48832   0.52053   0.93647   0.00000  Uiso   1.00
C576   C     0.51880   0.51871   0.51876   0.00000  Uiso   1.00
C577   C     0.57699   0.55351   0.99953   0.00000  Uiso   1.00
C578   C     0.58922   0.57276   0.95024   0.00000  Uiso   1.00
C579   C     0.54607   0.55595   0.91885   0.00000  Uiso   1.00
C580   C     0.51150   0.49544   0.56620   0.00000  Uiso   1.00
C581   C     0.61010   0.55071   0.57970   0.00000  Uiso   1.00
C582   C     0.44585   0.49969   0.90363   0.00000  Uiso   1.00
C583   C     0.52360   0.65606   0.75229   0.00000  Uiso   1.00
C584   C     0.46658   0.49936   0.84730   0.00000  Uiso   1.00
C585   C     0.47638   0.34394   0.74777   0.00000  Uiso   1.00
C586   C     0.48487   0.39994   0.74849   0.00000  Uiso   1.00
C587   C     0.53382   0.50383   0.65293   0.00000  Uiso   1.00
C588   C     0.62229   0.56888   0.52999   0.00000  Uiso   1.00
C589   C     0.55421   0.51450   0.59815   0.00000  Uiso   1.00
C590   C     0.38378   0.47504   0.92503   0.00000  Uiso   1.00
C591   C     0.36422   0.47001   0.97776   0.00000  Uiso   1.00
C592   C     0.40709   0.48577   0.50978   0.00000  Uiso   1.00
Cu593  Cu    0.44043   0.49439   0.74436   0.00000  Uiso   1.00
Cu594  Cu    0.55957   0.50561   0.75565   0.00000  Uiso   1.00
H595   H     0.64347   0.56590   0.60406   0.00000  Uiso   1.00
H596   H     0.43091   0.65339   0.74351   0.00000  Uiso   1.00
H597   H     0.33649   0.53858   0.79055   0.00000  Uiso   1.00
H598   H     0.66633   0.59617   0.51587   0.00000  Uiso   1.00
H599   H     0.35006   0.45985   0.90097   0.00000  Uiso   1.00
H600   H     0.64867   0.45356   0.99401   0.00000  Uiso   1.00
H601   H     0.55755   0.57318   0.88148   0.00000  Uiso   1.00
H602   H     0.56908   0.34660   0.75655   0.00000  Uiso   1.00
N603   N     0.64908   0.51407   0.76416   0.00000  Uiso   1.00
N604   N     0.35092   0.48593   0.73584   0.00000  Uiso   1.00
O605   O     0.46131   0.57141   0.74633   0.00000  Uiso   1.00
O606   O     0.56191   0.58089   0.75587   0.00000  Uiso   1.00
O607   O     0.42515   0.49293   0.81840   0.00000  Uiso   1.00
O608   O     0.52575   0.50241   0.82793   0.00000  Uiso   1.00
O609   O     0.43809   0.41911   0.74414   0.00000  Uiso   1.00
O610   O     0.53869   0.42859   0.75367   0.00000  Uiso   1.00
O611   O     0.47425   0.49759   0.67207   0.00000  Uiso   1.00
O612   O     0.57485   0.50707   0.68160   0.00000  Uiso   1.00
F613   F     0.65878   0.45440   0.70073   0.00000  Uiso   1.00
H614   H     0.63291   0.60019   0.93547   0.00000  Uiso   1.00
F615   F     0.46606   0.45165   0.58050   0.00000  Uiso   1.00
F616   F     0.38342   0.48554   0.56102   0.00000  Uiso   1.00
C617   C     0.84845   0.60007   0.75154   0.00000  Uiso   1.00
C618   C     0.80471   0.50716   0.98896   0.00000  Uiso   1.00
C619   C     0.82165   0.52053   0.93647   0.00000  Uiso   1.00
C620   C     0.85213   0.51871   0.51876   0.00000  Uiso   1.00
C621   C     0.91032   0.55351   0.99953   0.00000  Uiso   1.00
C622   C     0.92256   0.57276   0.95024   0.00000  Uiso   1.00
C623   C     0.87941   0.55595   0.91885   0.00000  Uiso   1.00
C624   C     0.84484   0.49544   0.56620   0.00000  Uiso   1.00
C625   C     0.94343   0.55071   0.57970   0.00000  Uiso   1.00
C626   C     0.77919   0.49969   0.90363   0.00000  Uiso   1.00
C627   C     0.85694   0.65606   0.75229   0.00000  Uiso   1.00
C628   C     0.79992   0.49936   0.84730   0.00000  Uiso   1.00
C629   C     0.80972   0.34394   0.74777   0.00000  Uiso   1.00
C630   C     0.81820   0.39994   0.74849   0.00000  Uiso   1.00
C631   C     0.86715   0.50383   0.65293   0.00000  Uiso   1.00
C632   C     0.95563   0.56888   0.52999   0.00000  Uiso   1.00
C633   C     0.88755   0.51450   0.59815   0.00000  Uiso   1.00
C634   C     0.71712   0.47504   0.92503   0.00000  Uiso   1.00
C635   C     0.69755   0.47001   0.97776   0.00000  Uiso   1.00
C636   C     0.74042   0.48577   0.50978   0.00000  Uiso   1.00
Cu637  Cu    0.77377   0.49439   0.74436   0.00000  Uiso   1.00
Cu638  Cu    0.89290   0.50561   0.75565   0.00000  Uiso   1.00
H639   H     0.97681   0.56590   0.60406   0.00000  Uiso   1.00
H640   H     0.76424   0.65339   0.74351   0.00000  Uiso   1.00
H641   H     0.66982   0.53858   0.79055   0.00000  Uiso   1.00
H642   H     0.99966   0.59617   0.51587   0.00000  Uiso   1.00
H643   H     0.68339   0.45985   0.90097   0.00000  Uiso   1.00
H644   H     0.98201   0.45356   0.99401   0.00000  Uiso   1.00
H645   H     0.89088   0.57318   0.88148   0.00000  Uiso   1.00
H646   H     0.90241   0.34660   0.75655   0.00000  Uiso   1.00
N647   N     0.98241   0.51407   0.76416   0.00000  Uiso   1.00
N648   N     0.68426   0.48593   0.73584   0.00000  Uiso   1.00
O649   O     0.79464   0.57141   0.74633   0.00000  Uiso   1.00
O650   O     0.89524   0.58089   0.75587   0.00000  Uiso   1.00
O651   O     0.75848   0.49293   0.81840   0.00000  Uiso   1.00
O652   O     0.85908   0.50241   0.82793   0.00000  Uiso   1.00
O653   O     0.77142   0.41911   0.74414   0.00000  Uiso   1.00
O654   O     0.87203   0.42859   0.75367   0.00000  Uiso   1.00
O655   O     0.80758   0.49759   0.67207   0.00000  Uiso   1.00
O656   O     0.90819   0.50707   0.68160   0.00000  Uiso   1.00
F657   F     0.99212   0.45440   0.70073   0.00000  Uiso   1.00
H658   H     0.96624   0.60019   0.93547   0.00000  Uiso   1.00
F659   F     0.79940   0.45165   0.58050   0.00000  Uiso   1.00
F660   F     0.71675   0.48554   0.56102   0.00000  Uiso   1.00
C661   C     0.18179   0.93340   0.75154   0.00000  Uiso   1.00
C662   C     0.13805   0.84049   0.98896   0.00000  Uiso   1.00
C663   C     0.15498   0.85386   0.93647   0.00000  Uiso   1.00
C664   C     0.18547   0.85204   0.51876   0.00000  Uiso   1.00
C665   C     0.24366   0.88684   0.99953   0.00000  Uiso   1.00
C666   C     0.25589   0.90609   0.95024   0.00000  Uiso   1.00
C667   C     0.21274   0.88928   0.91885   0.00000  Uiso   1.00
C668   C     0.17817   0.82877   0.56620   0.00000  Uiso   1.00
C669   C     0.27676   0.88405   0.57970   0.00000  Uiso   1.00
C670   C     0.11252   0.83302   0.90363   0.00000  Uiso   1.00
C671   C     0.19027   0.98939   0.75229   0.00000  Uiso   1.00
C672   C     0.13325   0.83270   0.84730   0.00000  Uiso   1.00
C673   C     0.14305   0.67727   0.74777   0.00000  Uiso   1.00
C674   C     0.15154   0.73327   0.74849   0.00000  Uiso   1.00
C675   C     0.20049   0.83716   0.65293   0.00000  Uiso   1.00
C676   C     0.28896   0.90222   0.52999   0.00000  Uiso   1.00
C677   C     0.22088   0.84784   0.59815   0.00000  Uiso   1.00
C678   C     0.05045   0.80838   0.92503   0.00000  Uiso   1.00
C679   C     0.03089   0.80334   0.97776   0.00000  Uiso   1.00
C680   C     0.07375   0.81910   0.50978   0.00000  Uiso   1.00
Cu681  Cu    0.10710   0.82772   0.74436   0.00000  Uiso   1.00
Cu682  Cu    0.22623   0.83895   0.75565   0.00000  Uiso   1.00
H683   H     0.31014   0.89923   0.60406   0.00000  Uiso   1.00
H684   H     0.09757   0.98673   0.74351   0.00000  Uiso   1.00
H685   H     0.00315   0.87191   0.79055   0.00000  Uiso   1.00
H686   H     0.33300   0.92950   0.51587   0.00000  Uiso   1.00
H687   H     0.01673   0.79318   0.90097   0.00000  Uiso   1.00
H688   H     0.31534   0.78690   0.99401   0.00000  Uiso   1.00
H689   H     0.22421   0.90652   0.88148   0.00000  Uiso   1.00
H690   H     0.23575   0.67994   0.75655   0.00000  Uiso   1.00
N691   N     0.31574   0.84741   0.76416   0.00000  Uiso   1.00
N692   N     0.01759   0.81926   0.73584   0.00000  Uiso   1.00
O693   O     0.12797   0.90474   0.74633   0.00000  Uiso   1.00
O694   O     0.22858   0.91422   0.75587   0.00000  Uiso   1.00
O695   O     0.09181   0.82627   0.81840   0.00000  Uiso   1.00
O696   O     0.19242   0.83575   0.82793   0.00000  Uiso   1.00
O697   O     0.10476   0.75245   0.74414   0.00000  Uiso   1.00
O698   O     0.20536   0.76193   0.75367   0.00000  Uiso   1.00
O699   O     0.14092   0.83092   0.67207   0.00000  Uiso   1.00
O700   O     0.24152   0.84040   0.68160   0.00000  Uiso   1.00
F701   F     0.32545   0.78773   0.70073   0.00000  Uiso   1.00
H702   H     0.29957   0.93353   0.93547   0.00000  Uiso   1.00
F703   F     0.13273   0.78498   0.58050   0.00000  Uiso   1.00
F704   F     0.05008   0.81887   0.56102   0.00000  Uiso   1.00
C705   C     0.51512   0.93340   0.75154   0.00000  Uiso   1.00
C706   C     0.47138   0.84049   0.98896   0.00000  Uiso   1.00
C707   C     0.48832   0.85386   0.93647   0.00000  Uiso   1.00
C708   C     0.51880   0.85204   0.51876   0.00000  Uiso   1.00
C709   C     0.57699   0.88684   0.99953   0.00000  Uiso   1.00
C710   C     0.58922   0.90609   0.95024   0.00000  Uiso   1.00
C711   C     0.54607   0.88928   0.91885   0.00000  Uiso   1.00
C712   C     0.51150   0.82877   0.56620   0.00000  Uiso   1.00
C713   C     0.61010   0.88405   0.57970   0.00000  Uiso   1.00
C714   C     0.44585   0.83302   0.90363   0.00000  Uiso   1.00
C715   C     0.52360   0.98939   0.75229   0.00000  Uiso   1.00
C716   C     0.46658   0.83270   0.84730   0.00000  Uiso   1.00
C717   C     0.47638   0.67727   0.74777   0.00000  Uiso   1.00
C718   C     0.48487   0.73327   0.74849   0.00000  Uiso   1.00
C719   C     0.53382   0.83716   0.65293   0.00000  Uiso   1.00
C720   C     0.62229   0.90222   0.52999   0.00000  Uiso   1.00
C721   C     0.55421   0.84784   0.59815   0.00000  Uiso   1.00
C722   C     0.38378   0.80838   0.92503   0.00000  Uiso   1.00
C723   C     0.36422   0.80334   0.97776   0.00000  Uiso   1.00
C724   C     0.40709   0.81910   0.50978   0.00000  Uiso   1.00
Cu725  Cu    0.44043   0.82772   0.74436   0.00000  Uiso   1.00
Cu726  Cu    0.55957   0.83895   0.75565   0.00000  Uiso   1.00
H727   H     0.64347   0.89923   0.60406   0.00000  Uiso   1.00
H728   H     0.43091   0.98673   0.74351   0.00000  Uiso   1.00
H729   H     0.33649   0.87191   0.79055   0.00000  Uiso   1.00
H730   H     0.66633   0.92950   0.51587   0.00000  Uiso   1.00
H731   H     0.35006   0.79318   0.90097   0.00000  Uiso   1.00
H732   H     0.64867   0.78690   0.99401   0.00000  Uiso   1.00
H733   H     0.55755   0.90652   0.88148   0.00000  Uiso   1.00
H734   H     0.56908   0.67994   0.75655   0.00000  Uiso   1.00
N735   N     0.64908   0.84741   0.76416   0.00000  Uiso   1.00
N736   N     0.35092   0.81926   0.73584   0.00000  Uiso   1.00
O737   O     0.46131   0.90474   0.74633   0.00000  Uiso   1.00
O738   O     0.56191   0.91422   0.75587   0.00000  Uiso   1.00
O739   O     0.42515   0.82627   0.81840   0.00000  Uiso   1.00
O740   O     0.52575   0.83575   0.82793   0.00000  Uiso   1.00
O741   O     0.43809   0.75245   0.74414   0.00000  Uiso   1.00
O742   O     0.53869   0.76193   0.75367   0.00000  Uiso   1.00
O743   O     0.47425   0.83092   0.67207   0.00000  Uiso   1.00
O744   O     0.57485   0.84040   0.68160   0.00000  Uiso   1.00
F745   F     0.65878   0.78773   0.70073   0.00000  Uiso   1.00
H746   H     0.63291   0.93353   0.93547   0.00000  Uiso   1.00
F747   F     0.46606   0.78498   0.58050   0.00000  Uiso   1.00
F748   F     0.38342   0.81887   0.56102   0.00000  Uiso   1.00
C749   C     0.84845   0.93340   0.75154   0.00000  Uiso   1.00
C750   C     0.80471   0.84049   0.98896   0.00000  Uiso   1.00
C751   C     0.82165   0.85386   0.93647   0.00000  Uiso   1.00
C752   C     0.85213   0.85204   0.51876   0.00000  Uiso   1.00
C753   C     0.91032   0.88684   0.99953   0.00000  Uiso   1.00
C754   C     0.92256   0.90609   0.95024   0.00000  Uiso   1.00
C755   C     0.87941   0.88928   0.91885   0.00000  Uiso   1.00
C756   C     0.84484   0.82877   0.56620   0.00000  Uiso   1.00
C757   C     0.94343   0.88405   0.57970   0.00000  Uiso   1.00
C758   C     0.77919   0.83302   0.90363   0.00000  Uiso   1.00
C759   C     0.85694   0.98939   0.75229   0.00000  Uiso   1.00
C760   C     0.79992   0.83270   0.84730   0.00000  Uiso   1.00
C761   C     0.80972   0.67727   0.74777   0.00000  Uiso   1.00
C762   C     0.81820   0.73327   0.74849   0.00000  Uiso   1.00
C763   C     0.86715   0.83716   0.65293   0.00000  Uiso   1.00
C764   C     0.95563   0.90222   0.52999   0.00000  Uiso   1.00
C765   C     0.88755   0.84784   0.59815   0.00000  Uiso   1.00
C766   C     0.71712   0.80838   0.92503   0.00000  Uiso   1.00
C767   C     0.69755   0.80334   0.97776   0.00000  Uiso   1.00
C768   C     0.74042   0.81910   0.50978   0.00000  Uiso   1.00
Cu769  Cu    0.77377   0.82772   0.74436   0.00000  Uiso   1.00
Cu770  Cu    0.89290   0.83895   0.75565   0.00000  Uiso   1.00
H771   H     0.97681   0.89923   0.60406   0.00000  Uiso   1.00
H772   H     0.76424   0.98673   0.74351   0.00000  Uiso   1.00
H773   H     0.66982   0.87191   0.79055   0.00000  Uiso   1.00
H774   H     0.99966   0.92950   0.51587   0.00000  Uiso   1.00
H775   H     0.68339   0.79318   0.90097   0.00000  Uiso   1.00
H776   H     0.98201   0.78690   0.99401   0.00000  Uiso   1.00
H777   H     0.89088   0.90652   0.88148   0.00000  Uiso   1.00
H778   H     0.90241   0.67994   0.75655   0.00000  Uiso   1.00
N779   N     0.98241   0.84741   0.76416   0.00000  Uiso   1.00
N780   N     0.68426   0.81926   0.73584   0.00000  Uiso   1.00
O781   O     0.79464   0.90474   0.74633   0.00000  Uiso   1.00
O782   O     0.89524   0.91422   0.75587   0.00000  Uiso   1.00
O783   O     0.75848   0.82627   0.81840   0.00000  Uiso   1.00
O784   O     0.85908   0.83575   0.82793   0.00000  Uiso   1.00
O785   O     0.77142   0.75245   0.74414   0.00000  Uiso   1.00
O786   O     0.87203   0.76193   0.75367   0.00000  Uiso   1.00
O787   O     0.80758   0.83092   0.67207   0.00000  Uiso   1.00
O788   O     0.90819   0.84040   0.68160   0.00000  Uiso   1.00
F789   F     0.99212   0.78773   0.70073   0.00000  Uiso   1.00
H790   H     0.96624   0.93353   0.93547   0.00000  Uiso   1.00
F791   F     0.79940   0.78498   0.58050   0.00000  Uiso   1.00
F792   F     0.71675   0.81887   0.56102   0.00000  Uiso   1.00
loop_
_geom_bond_atom_site_label_1
_geom_bond_atom_site_label_2
_geom_bond_distance
_geom_bond_site_symmetry_2
_ccdc_geom_bond_type
C1     O33     1.292   .     A
C1     O34     1.287   .     A
C1     C11     1.428   .     S
C2     C3      1.419   .     A
C2     C400    1.425   .     S
C2     C416    1.420   .     S
C3     C10     1.421   .     A
C3     C7      1.413   .     A
C4     C8      1.407   .     A
C4     C398    1.425   1_554 S
C4     C401    1.420   1_554 S
C5     C6      1.393   .     A
C5     C400    1.420   .     S
C5     C412    1.403   .     S
C6     C7      1.388   .     A
C6     H42     1.084   .     S
C7     H29     1.080   .     S
C8     C17     1.400   .     A
C8     F43     1.359   .     S
C9     C17     1.399   .     A
C9     C16     1.393   .     A
C9     H23     1.083   .     S
C10    C12     1.476   .     S
C10    C18     1.402   .     A
C11    C145    1.329   .     S
C11    H162    1.088   .     S
C12    O36     1.297   .     A
C12    O35     1.304   .     A
C13    C14     1.428   .     S
C13    C275    1.329   1_545 S
C13    H288    1.088   1_545 S
C14    O37     1.287   .     A
C14    O38     1.292   .     A
C15    O39     1.295   .     A
C15    O40     1.301   .     A
C15    C17     1.463   .     S
C16    H26     1.084   .     S
C16    C401    1.403   1_554 S
C18    C19     1.388   .     A
C18    H27     1.083   .     S
C19    C416    1.393   .     S
C19    H116    1.083   1_455 S
C20    F44     1.356   .     S
C20    C398    1.420   1_554 S
C20    C415    1.393   1_554 S
Cu21   O39     1.916   .     S
Cu21   O35     1.935   .     S
Cu21   N32     2.022   .     S
Cu21   O33     1.955   .     S
Cu21   O37     1.951   .     S
Cu21   Cu22    2.691   .     S
Cu22   O36     1.916   .     S
Cu22   O40     1.935   .     S
Cu22   O34     1.951   .     S
Cu22   N31     2.022   .     S
Cu22   O38     1.955   .     S
H24    C145    1.088   .     S
H25    N119    1.029   1_455 S
H28    C63     1.083   .     S
H30    C275    1.088   1_545 S
N31    H69     1.029   .     S
N31    N76     1.286   .     S
N32    N119    1.286   1_455 S
N32    F129    1.335   1_455 S
F41    N76     1.335   .     S
C45    O77     1.292   .     A
C45    O78     1.287   .     A
C45    C55     1.428   .     S
C46    C47     1.419   .     A
C46    C444    1.425   .     S
C46    C460    1.420   .     S
C47    C54     1.421   .     A
C47    C51     1.413   .     A
C48    C52     1.407   .     A
C48    C442    1.425   1_554 S
C48    C445    1.420   1_554 S
C49    C50     1.393   .     A
C49    C444    1.420   .     S
C49    C456    1.403   .     S
C50    C51     1.388   .     A
C50    H86     1.084   .     S
C51    H73     1.080   .     S
C52    C61     1.400   .     A
C52    F87     1.359   .     S
C53    C61     1.399   .     A
C53    C60     1.393   .     A
C53    H67     1.083   .     S
C54    C56     1.476   .     S
C54    C62     1.402   .     A
C55    C189    1.329   .     S
C55    H206    1.088   .     S
C56    O80     1.297   .     A
C56    O79     1.304   .     A
C57    C58     1.428   .     S
C57    C319    1.329   1_545 S
C57    H332    1.088   1_545 S
C58    O81     1.287   .     A
C58    O82     1.292   .     A
C59    O83     1.295   .     A
C59    O84     1.301   .     A
C59    C61     1.463   .     S
C60    H70     1.084   .     S
C60    C445    1.403   1_554 S
C62    C63     1.388   .     A
C62    H71     1.083   .     S
C63    C460    1.393   .     S
C64    F88     1.356   .     S
C64    C442    1.420   1_554 S
C64    C459    1.393   1_554 S
Cu65   O83     1.916   .     S
Cu65   O79     1.935   .     S
Cu65   N76     2.022   .     S
Cu65   O77     1.955   .     S
Cu65   O81     1.951   .     S
Cu65   Cu66    2.691   .     S
Cu66   O80     1.916   .     S
Cu66   O84     1.935   .     S
Cu66   O78     1.951   .     S
Cu66   N75     2.022   .     S
Cu66   O82     1.955   .     S
H68    C189    1.088   .     S
H72    C107    1.083   .     S
H74    C319    1.088   1_545 S
N75    H113    1.029   .     S
N75    N120    1.286   .     S
F85    N120    1.335   .     S
C89    O121    1.292   .     A
C89    O122    1.287   .     A
C89    C99     1.428   .     S
C90    C91     1.419   .     A
C90    C488    1.425   .     S
C90    C504    1.420   .     S
C91    C98     1.421   .     A
C91    C95     1.413   .     A
C92    C96     1.407   .     A
C92    C486    1.425   1_554 S
C92    C489    1.420   1_554 S
C93    C94     1.393   .     A
C93    C488    1.420   .     S
C93    C500    1.403   .     S
C94    C95     1.388   .     A
C94    H130    1.084   .     S
C95    H117    1.080   .     S
C96    C105    1.400   .     A
C96    F131    1.359   .     S
C97    C105    1.399   .     A
C97    C104    1.393   .     A
C97    H111    1.083   .     S
C98    C100    1.476   .     S
C98    C106    1.402   .     A
C99    C233    1.329   .     S
C99    H250    1.088   .     S
C100   O124    1.297   .     A
C100   O123    1.304   .     A
C101   C102    1.428   .     S
C101   C363    1.329   1_545 S
C101   H376    1.088   1_545 S
C102   O125    1.287   .     A
C102   O126    1.292   .     A
C103   O127    1.295   .     A
C103   O128    1.301   .     A
C103   C105    1.463   .     S
C104   H114    1.084   .     S
C104   C489    1.403   1_554 S
C106   C107    1.388   .     A
C106   H115    1.083   .     S
C107   C504    1.393   .     S
C108   F132    1.356   .     S
C108   C486    1.420   1_554 S
C108   C503    1.393   1_554 S
Cu109  O127    1.916   .     S
Cu109  O123    1.935   .     S
Cu109  N120    2.022   .     S
Cu109  O121    1.955   .     S
Cu109  O125    1.951   .     S
Cu109  Cu110   2.691   .     S
Cu110  O124    1.916   .     S
Cu110  O128    1.935   .     S
Cu110  O122    1.951   .     S
Cu110  N119    2.022   .     S
Cu110  O126    1.955   .     S
H112   C233    1.088   .     S
H116   C19     1.083   1_655 S
H118   C363    1.088   1_545 S
N119   H25     1.029   1_655 S
N119   N32     1.286   1_655 S
F129   N32     1.335   1_655 S
C133   O165    1.292   .     A
C133   O166    1.287   .     A
C133   C143    1.428   .     S
C134   C135    1.419   .     A
C134   C532    1.425   .     S
C134   C548    1.420   .     S
C135   C142    1.421   .     A
C135   C139    1.413   .     A
C136   C140    1.407   .     A
C136   C530    1.425   1_554 S
C136   C533    1.420   1_554 S
C137   C138    1.393   .     A
C137   C532    1.420   .     S
C137   C544    1.403   .     S
C138   C139    1.388   .     A
C138   H174    1.084   .     S
C139   H161    1.080   .     S
C140   C149    1.400   .     A
C140   F175    1.359   .     S
C141   C149    1.399   .     A
C141   C148    1.393   .     A
C141   H155    1.083   .     S
C142   C144    1.476   .     S
C142   C150    1.402   .     A
C143   C277    1.329   .     S
C143   H294    1.088   .     S
C144   O168    1.297   .     A
C144   O167    1.304   .     A
C145   C146    1.428   .     S
C146   O169    1.287   .     A
C146   O170    1.292   .     A
C147   O171    1.295   .     A
C147   O172    1.301   .     A
C147   C149    1.463   .     S
C148   H158    1.084   .     S
C148   C533    1.403   1_554 S
C150   C151    1.388   .     A
C150   H159    1.083   .     S
C151   C548    1.393   .     S
C151   H248    1.083   1_455 S
C152   F176    1.356   .     S
C152   C530    1.420   1_554 S
C152   C547    1.393   1_554 S
Cu153  O171    1.916   .     S
Cu153  O167    1.935   .     S
Cu153  N164    2.022   .     S
Cu153  O165    1.955   .     S
Cu153  O169    1.951   .     S
Cu153  Cu154   2.691   .     S
Cu154  O168    1.916   .     S
Cu154  O172    1.935   .     S
Cu154  O166    1.951   .     S
Cu154  N163    2.022   .     S
Cu154  O170    1.955   .     S
H156   C277    1.088   .     S
H157   N251    1.029   1_455 S
H160   C195    1.083   .     S
N163   H201    1.029   .     S
N163   N208    1.286   .     S
N164   N251    1.286   1_455 S
N164   F261    1.335   1_455 S
F173   N208    1.335   .     S
C177   O209    1.292   .     A
C177   O210    1.287   .     A
C177   C187    1.428   .     S
C178   C179    1.419   .     A
C178   C576    1.425   .     S
C178   C592    1.420   .     S
C179   C186    1.421   .     A
C179   C183    1.413   .     A
C180   C184    1.407   .     A
C180   C574    1.425   1_554 S
C180   C577    1.420   1_554 S
C181   C182    1.393   .     A
C181   C576    1.420   .     S
C181   C588    1.403   .     S
C182   C183    1.388   .     A
C182   H218    1.084   .     S
C183   H205    1.080   .     S
C184   C193    1.400   .     A
C184   F219    1.359   .     S
C185   C193    1.399   .     A
C185   C192    1.393   .     A
C185   H199    1.083   .     S
C186   C188    1.476   .     S
C186   C194    1.402   .     A
C187   C321    1.329   .     S
C187   H338    1.088   .     S
C188   O212    1.297   .     A
C188   O211    1.304   .     A
C189   C190    1.428   .     S
C190   O213    1.287   .     A
C190   O214    1.292   .     A
C191   O215    1.295   .     A
C191   O216    1.301   .     A
C191   C193    1.463   .     S
C192   H202    1.084   .     S
C192   C577    1.403   1_554 S
C194   C195    1.388   .     A
C194   H203    1.083   .     S
C195   C592    1.393   .     S
C196   F220    1.356   .     S
C196   C574    1.420   1_554 S
C196   C591    1.393   1_554 S
Cu197  O215    1.916   .     S
Cu197  O211    1.935   .     S
Cu197  N208    2.022   .     S
Cu197  O209    1.955   .     S
Cu197  O213    1.951   .     S
Cu197  Cu198   2.691   .     S
Cu198  O212    1.916   .     S
Cu198  O216    1.935   .     S
Cu198  O210    1.951   .     S
Cu198  N207    2.022   .     S
Cu198  O214    1.955   .     S
H200   C321    1.088   .     S
H204   C239    1.083   .     S
N207   H245    1.029   .     S
N207   N252    1.286   .     S
F217   N252    1.335   .     S
C221   O253    1.292   .     A
C221   O254    1.287   .     A
C221   C231    1.428   .     S
C222   C223    1.419   .     A
C222   C620    1.425   .     S
C222   C636    1.420   .     S
C223   C230    1.421   .     A
C223   C227    1.413   .     A
C224   C228    1.407   .     A
C224   C618    1.425   1_554 S
C224   C621    1.420   1_554 S
C225   C226    1.393   .     A
C225   C620    1.420   .     S
C225   C632    1.403   .     S
C226   C227    1.388   .     A
C226   H262    1.084   .     S
C227   H249    1.080   .     S
C228   C237    1.400   .     A
C228   F263    1.359   .     S
C229   C237    1.399   .     A
C229   C236    1.393   .     A
C229   H243    1.083   .     S
C230   C232    1.476   .     S
C230   C238    1.402   .     A
C231   C365    1.329   .     S
C231   H382    1.088   .     S
C232   O256    1.297   .     A
C232   O255    1.304   .     A
C233   C234    1.428   .     S
C234   O257    1.287   .     A
C234   O258    1.292   .     A
C235   O259    1.295   .     A
C235   O260    1.301   .     A
C235   C237    1.463   .     S
C236   H246    1.084   .     S
C236   C621    1.403   1_554 S
C238   C239    1.388   .     A
C238   H247    1.083   .     S
C239   C636    1.393   .     S
C240   F264    1.356   .     S
C240   C618    1.420   1_554 S
C240   C635    1.393   1_554 S
Cu241  O259    1.916   .     S
Cu241  O255    1.935   .     S
Cu241  N252    2.022   .     S
Cu241  O253    1.955   .     S
Cu241  O257    1.951   .     S
Cu241  Cu242   2.691   .     S
Cu242  O256    1.916   .     S
Cu242  O260    1.935   .     S
Cu242  O254    1.951   .     S
Cu242  N251    2.022   .     S
Cu242  O258    1.955   .     S
H244   C365    1.088   .     S
H248   C151    1.083   1_655 S
N251   H157    1.029   1_655 S
N251   N164    1.286   1_655 S
F261   N164    1.335   1_655 S
C265   O297    1.292   .     A
C265   O298    1.287   .     A
C265   C275    1.428   .     S
C266   C267    1.419   .     A
C266   C664    1.425   .     S
C266   C680    1.420   .     S
C267   C274    1.421   .     A
C267   C271    1.413   .     A
C268   C272    1.407   .     A
C268   C662    1.425   1_554 S
C268   C665    1.420   1_554 S
C269   C270    1.393   .     A
C269   C664    1.420   .     S
C269   C676    1.403   .     S
C270   C271    1.388   .     A
C270   H306    1.084   .     S
C271   H293    1.080   .     S
C272   C281    1.400   .     A
C272   F307    1.359   .     S
C273   C281    1.399   .     A
C273   C280    1.393   .     A
C273   H287    1.083   .     S
C274   C276    1.476   .     S
C274   C282    1.402   .     A
C275   C13     1.329   1_565 S
C275   H30     1.088   1_565 S
C276   O300    1.297   .     A
C276   O299    1.304   .     A
C277   C278    1.428   .     S
C278   O301    1.287   .     A
C278   O302    1.292   .     A
C279   O303    1.295   .     A
C279   O304    1.301   .     A
C279   C281    1.463   .     S
C280   H290    1.084   .     S
C280   C665    1.403   1_554 S
C282   C283    1.388   .     A
C282   H291    1.083   .     S
C283   C680    1.393   .     S
C283   H380    1.083   1_455 S
C284   F308    1.356   .     S
C284   C662    1.420   1_554 S
C284   C679    1.393   1_554 S
Cu285  O303    1.916   .     S
Cu285  O299    1.935   .     S
Cu285  N296    2.022   .     S
Cu285  O297    1.955   .     S
Cu285  O301    1.951   .     S
Cu285  Cu286   2.691   .     S
Cu286  O300    1.916   .     S
Cu286  O304    1.935   .     S
Cu286  O298    1.951   .     S
Cu286  N295    2.022   .     S
Cu286  O302    1.955   .     S
H288   C13     1.088   1_565 S
H289   N383    1.029   1_455 S
H292   C327    1.083   .     S
N295   H333    1.029   .     S
N295   N340    1.286   .     S
N296   N383    1.286   1_455 S
N296   F393    1.335   1_455 S
F305   N340    1.335   .     S
C309   O341    1.292   .     A
C309   O342    1.287   .     A
C309   C319    1.428   .     S
C310   C311    1.419   .     A
C310   C708    1.425   .     S
C310   C724    1.420   .     S
C311   C318    1.421   .     A
C311   C315    1.413   .     A
C312   C316    1.407   .     A
C312   C706    1.425   1_554 S
C312   C709    1.420   1_554 S
C313   C314    1.393   .     A
C313   C708    1.420   .     S
C313   C720    1.403   .     S
C314   C315    1.388   .     A
C314   H350    1.084   .     S
C315   H337    1.080   .     S
C316   C325    1.400   .     A
C316   F351    1.359   .     S
C317   C325    1.399   .     A
C317   C324    1.393   .     A
C317   H331    1.083   .     S
C318   C320    1.476   .     S
C318   C326    1.402   .     A
C319   C57     1.329   1_565 S
C319   H74     1.088   1_565 S
C320   O344    1.297   .     A
C320   O343    1.304   .     A
C321   C322    1.428   .     S
C322   O345    1.287   .     A
C322   O346    1.292   .     A
C323   O347    1.295   .     A
C323   O348    1.301   .     A
C323   C325    1.463   .     S
C324   H334    1.084   .     S
C324   C709    1.403   1_554 S
C326   C327    1.388   .     A
C326   H335    1.083   .     S
C327   C724    1.393   .     S
C328   F352    1.356   .     S
C328   C706    1.420   1_554 S
C328   C723    1.393   1_554 S
Cu329  O347    1.916   .     S
Cu329  O343    1.935   .     S
Cu329  N340    2.022   .     S
Cu329  O341    1.955   .     S
Cu329  O345    1.951   .     S
Cu329  Cu330   2.691   .     S
Cu330  O344    1.916   .     S
Cu330  O348    1.935   .     S
Cu330  O342    1.951   .     S
Cu330  N339    2.022   .     S
Cu330  O346    1.955   .     S
H332   C57     1.088   1_565 S
H336   C371    1.083   .     S
N339   H377    1.029   .     S
N339   N384    1.286   .     S
F349   N384    1.335   .     S
C353   O385    1.292   .     A
C353   O386    1.287   .     A
C353   C363    1.428   .     S
C354   C355    1.419   .     A
C354   C752    1.425   .     S
C354   C768    1.420   .     S
C355   C362    1.421   .     A
C355   C359    1.413   .     A
C356   C360    1.407   .     A
C356   C750    1.425   1_554 S
C356   C753    1.420   1_554 S
C357   C358    1.393   .     A
C357   C752    1.420   .     S
C357   C764    1.403   .     S
C358   C359    1.388   .     A
C358   H394    1.084   .     S
C359   H381    1.080   .     S
C360   C369    1.400   .     A
C360   F395    1.359   .     S
C361   C369    1.399   .     A
C361   C368    1.393   .     A
C361   H375    1.083   .     S
C362   C364    1.476   .     S
C362   C370    1.402   .     A
C363   C101    1.329   1_565 S
C363   H118    1.088   1_565 S
C364   O388    1.297   .     A
C364   O387    1.304   .     A
C365   C366    1.428   .     S
C366   O389    1.287   .     A
C366   O390    1.292   .     A
C367   O391    1.295   .     A
C367   O392    1.301   .     A
C367   C369    1.463   .     S
C368   H378    1.084   .     S
C368   C753    1.403   1_554 S
C370   C371    1.388   .     A
C370   H379    1.083   .     S
C371   C768    1.393   .     S
C372   F396    1.356   .     S
C372   C750    1.420   1_554 S
C372   C767    1.393   1_554 S
Cu373  O391    1.916   .     S
Cu373  O387    1.935   .     S
Cu373  N384    2.022   .     S
Cu373  O385    1.955   .     S
Cu373  O389    1.951   .     S
Cu373  Cu374   2.691   .     S
Cu374  O388    1.916   .     S
Cu374  O392    1.935   .     S
Cu374  O386    1.951   .     S
Cu374  N383    2.022   .     S
Cu374  O390    1.955   .     S
H376   C101    1.088   1_565 S
H380   C283    1.083   1_655 S
N383   H289    1.029   1_655 S
N383   N296    1.286   1_655 S
F393   N296    1.335   1_655 S
C397   O429    1.292   .     A
C397   O430    1.287   .     A
C397   C407    1.428   .     S
C398   C399    1.419   .     A
C398   C4      1.425   1_556 S
C398   C20     1.420   1_556 S
C399   C406    1.421   .     A
C399   C403    1.413   .     A
C400   C404    1.407   .     A
C401   C402    1.393   .     A
C401   C4      1.420   1_556 S
C401   C16     1.403   1_556 S
C402   C403    1.388   .     A
C402   H438    1.084   .     S
C403   H425    1.080   .     S
C404   C413    1.400   .     A
C404   F439    1.359   .     S
C405   C413    1.399   .     A
C405   C412    1.393   .     A
C405   H419    1.083   .     S
C406   C408    1.476   .     S
C406   C414    1.402   .     A
C407   C541    1.329   .     S
C407   H558    1.088   .     S
C408   O432    1.297   .     A
C408   O431    1.304   .     A
C409   C410    1.428   .     S
C409   C671    1.329   1_545 S
C409   H684    1.088   1_545 S
C410   O433    1.287   .     A
C410   O434    1.292   .     A
C411   O435    1.295   .     A
C411   O436    1.301   .     A
C411   C413    1.463   .     S
C412   H422    1.084   .     S
C414   C415    1.388   .     A
C414   H423    1.083   .     S
C415   C20     1.393   1_556 S
C415   H512    1.083   1_455 S
C416   F440    1.356   .     S
Cu417  O435    1.916   .     S
Cu417  O431    1.935   .     S
Cu417  N428    2.022   .     S
Cu417  O429    1.955   .     S
Cu417  O433    1.951   .     S
Cu417  Cu418   2.691   .     S
Cu418  O432    1.916   .     S
Cu418  O436    1.935   .     S
Cu418  O430    1.951   .     S
Cu418  N427    2.022   .     S
Cu418  O434    1.955   .     S
H420   C541    1.088   .     S
H421   N515    1.029   1_455 S
H424   C459    1.083   .     S
H426   C671    1.088   1_545 S
N427   H465    1.029   .     S
N427   N472    1.286   .     S
N428   N515    1.286   1_455 S
N428   F525    1.335   1_455 S
F437   N472    1.335   .     S
C441   O473    1.292   .     A
C441   O474    1.287   .     A
C441   C451    1.428   .     S
C442   C443    1.419   .     A
C442   C48     1.425   1_556 S
C442   C64     1.420   1_556 S
C443   C450    1.421   .     A
C443   C447    1.413   .     A
C444   C448    1.407   .     A
C445   C446    1.393   .     A
C445   C48     1.420   1_556 S
C445   C60     1.403   1_556 S
C446   C447    1.388   .     A
C446   H482    1.084   .     S
C447   H469    1.080   .     S
C448   C457    1.400   .     A
C448   F483    1.359   .     S
C449   C457    1.399   .     A
C449   C456    1.393   .     A
C449   H463    1.083   .     S
C450   C452    1.476   .     S
C450   C458    1.402   .     A
C451   C585    1.329   .     S
C451   H602    1.088   .     S
C452   O476    1.297   .     A
C452   O475    1.304   .     A
C453   C454    1.428   .     S
C453   C715    1.329   1_545 S
C453   H728    1.088   1_545 S
C454   O477    1.287   .     A
C454   O478    1.292   .     A
C455   O479    1.295   .     A
C455   O480    1.301   .     A
C455   C457    1.463   .     S
C456   H466    1.084   .     S
C458   C459    1.388   .     A
C458   H467    1.083   .     S
C459   C64     1.393   1_556 S
C460   F484    1.356   .     S
Cu461  O479    1.916   .     S
Cu461  O475    1.935   .     S
Cu461  N472    2.022   .     S
Cu461  O473    1.955   .     S
Cu461  O477    1.951   .     S
Cu461  Cu462   2.691   .     S
Cu462  O476    1.916   .     S
Cu462  O480    1.935   .     S
Cu462  O474    1.951   .     S
Cu462  N471    2.022   .     S
Cu462  O478    1.955   .     S
H464   C585    1.088   .     S
H468   C503    1.083   .     S
H470   C715    1.088   1_545 S
N471   H509    1.029   .     S
N471   N516    1.286   .     S
F481   N516    1.335   .     S
C485   O517    1.292   .     A
C485   O518    1.287   .     A
C485   C495    1.428   .     S
C486   C487    1.419   .     A
C486   C92     1.425   1_556 S
C486   C108    1.420   1_556 S
C487   C494    1.421   .     A
C487   C491    1.413   .     A
C488   C492    1.407   .     A
C489   C490    1.393   .     A
C489   C92     1.420   1_556 S
C489   C104    1.403   1_556 S
C490   C491    1.388   .     A
C490   H526    1.084   .     S
C491   H513    1.080   .     S
C492   C501    1.400   .     A
C492   F527    1.359   .     S
C493   C501    1.399   .     A
C493   C500    1.393   .     A
C493   H507    1.083   .     S
C494   C496    1.476   .     S
C494   C502    1.402   .     A
C495   C629    1.329   .     S
C495   H646    1.088   .     S
C496   O520    1.297   .     A
C496   O519    1.304   .     A
C497   C498    1.428   .     S
C497   C759    1.329   1_545 S
C497   H772    1.088   1_545 S
C498   O521    1.287   .     A
C498   O522    1.292   .     A
C499   O523    1.295   .     A
C499   O524    1.301   .     A
C499   C501    1.463   .     S
C500   H510    1.084   .     S
C502   C503    1.388   .     A
C502   H511    1.083   .     S
C503   C108    1.393   1_556 S
C504   F528    1.356   .     S
Cu505  O523    1.916   .     S
Cu505  O519    1.935   .     S
Cu505  N516    2.022   .     S
Cu505  O517    1.955   .     S
Cu505  O521    1.951   .     S
Cu505  Cu506   2.691   .     S
Cu506  O520    1.916   .     S
Cu506  O524    1.935   .     S
Cu506  O518    1.951   .     S
Cu506  N515    2.022   .     S
Cu506  O522    1.955   .     S
H508   C629    1.088   .     S
H512   C415    1.083   1_655 S
H514   C759    1.088   1_545 S
N515   H421    1.029   1_655 S
N515   N428    1.286   1_655 S
F525   N428    1.335   1_655 S
C529   O561    1.292   .     A
C529   O562    1.287   .     A
C529   C539    1.428   .     S
C530   C531    1.419   .     A
C530   C136    1.425   1_556 S
C530   C152    1.420   1_556 S
C531   C538    1.421   .     A
C531   C535    1.413   .     A
C532   C536    1.407   .     A
C533   C534    1.393   .     A
C533   C136    1.420   1_556 S
C533   C148    1.403   1_556 S
C534   C535    1.388   .     A
C534   H570    1.084   .     S
C535   H557    1.080   .     S
C536   C545    1.400   .     A
C536   F571    1.359   .     S
C537   C545    1.399   .     A
C537   C544    1.393   .     A
C537   H551    1.083   .     S
C538   C540    1.476   .     S
C538   C546    1.402   .     A
C539   C673    1.329   .     S
C539   H690    1.088   .     S
C540   O564    1.297   .     A
C540   O563    1.304   .     A
C541   C542    1.428   .     S
C542   O565    1.287   .     A
C542   O566    1.292   .     A
C543   O567    1.295   .     A
C543   O568    1.301   .     A
C543   C545    1.463   .     S
C544   H554    1.084   .     S
C546   C547    1.388   .     A
C546   H555    1.083   .     S
C547   C152    1.393   1_556 S
C547   H644    1.083   1_455 S
C548   F572    1.356   .     S
Cu549  O567    1.916   .     S
Cu549  O563    1.935   .     S
Cu549  N560    2.022   .     S
Cu549  O561    1.955   .     S
Cu549  O565    1.951   .     S
Cu549  Cu550   2.691   .     S
Cu550  O564    1.916   .     S
Cu550  O568    1.935   .     S
Cu550  O562    1.951   .     S
Cu550  N559    2.022   .     S
Cu550  O566    1.955   .     S
H552   C673    1.088   .     S
H553   N647    1.029   1_455 S
H556   C591    1.083   .     S
N559   H597    1.029   .     S
N559   N604    1.286   .     S
N560   N647    1.286   1_455 S
N560   F657    1.335   1_455 S
F569   N604    1.335   .     S
C573   O605    1.292   .     A
C573   O606    1.287   .     A
C573   C583    1.428   .     S
C574   C575    1.419   .     A
C574   C180    1.425   1_556 S
C574   C196    1.420   1_556 S
C575   C582    1.421   .     A
C575   C579    1.413   .     A
C576   C580    1.407   .     A
C577   C578    1.393   .     A
C577   C180    1.420   1_556 S
C577   C192    1.403   1_556 S
C578   C579    1.388   .     A
C578   H614    1.084   .     S
C579   H601    1.080   .     S
C580   C589    1.400   .     A
C580   F615    1.359   .     S
C581   C589    1.399   .     A
C581   C588    1.393   .     A
C581   H595    1.083   .     S
C582   C584    1.476   .     S
C582   C590    1.402   .     A
C583   C717    1.329   .     S
C583   H734    1.088   .     S
C584   O608    1.297   .     A
C584   O607    1.304   .     A
C585   C586    1.428   .     S
C586   O609    1.287   .     A
C586   O610    1.292   .     A
C587   O611    1.295   .     A
C587   O612    1.301   .     A
C587   C589    1.463   .     S
C588   H598    1.084   .     S
C590   C591    1.388   .     A
C590   H599    1.083   .     S
C591   C196    1.393   1_556 S
C592   F616    1.356   .     S
Cu593  O611    1.916   .     S
Cu593  O607    1.935   .     S
Cu593  N604    2.022   .     S
Cu593  O605    1.955   .     S
Cu593  O609    1.951   .     S
Cu593  Cu594   2.691   .     S
Cu594  O608    1.916   .     S
Cu594  O612    1.935   .     S
Cu594  O606    1.951   .     S
Cu594  N603    2.022   .     S
Cu594  O610    1.955   .     S
H596   C717    1.088   .     S
H600   C635    1.083   .     S
N603   H641    1.029   .     S
N603   N648    1.286   .     S
F613   N648    1.335   .     S
C617   O649    1.292   .     A
C617   O650    1.287   .     A
C617   C627    1.428   .     S
C618   C619    1.419   .     A
C618   C224    1.425   1_556 S
C618   C240    1.420   1_556 S
C619   C626    1.421   .     A
C619   C623    1.413   .     A
C620   C624    1.407   .     A
C621   C622    1.393   .     A
C621   C224    1.420   1_556 S
C621   C236    1.403   1_556 S
C622   C623    1.388   .     A
C622   H658    1.084   .     S
C623   H645    1.080   .     S
C624   C633    1.400   .     A
C624   F659    1.359   .     S
C625   C633    1.399   .     A
C625   C632    1.393   .     A
C625   H639    1.083   .     S
C626   C628    1.476   .     S
C626   C634    1.402   .     A
C627   C761    1.329   .     S
C627   H778    1.088   .     S
C628   O652    1.297   .     A
C628   O651    1.304   .     A
C629   C630    1.428   .     S
C630   O653    1.287   .     A
C630   O654    1.292   .     A
C631   O655    1.295   .     A
C631   O656    1.301   .     A
C631   C633    1.463   .     S
C632   H642    1.084   .     S
C634   C635    1.388   .     A
C634   H643    1.083   .     S
C635   C240    1.393   1_556 S
C636   F660    1.356   .     S
Cu637  O655    1.916   .     S
Cu637  O651    1.935   .     S
Cu637  N648    2.022   .     S
Cu637  O649    1.955   .     S
Cu637  O653    1.951   .     S
Cu637  Cu638   2.691   .     S
Cu638  O652    1.916   .     S
Cu638  O656    1.935   .     S
Cu638  O650    1.951   .     S
Cu638  N647    2.022   .     S
Cu638  O654    1.955   .     S
H640   C761    1.088   .     S
H644   C547    1.083   1_655 S
N647   H553    1.029   1_655 S
N647   N560    1.286   1_655 S
F657   N560    1.335   1_655 S
C661   O693    1.292   .     A
C661   O694    1.287   .     A
C661   C671    1.428   .     S
C662   C663    1.419   .     A
C662   C268    1.425   1_556 S
C662   C284    1.420   1_556 S
C663   C670    1.421   .     A
C663   C667    1.413   .     A
C664   C668    1.407   .     A
C665   C666    1.393   .     A
C665   C268    1.420   1_556 S
C665   C280    1.403   1_556 S
C666   C667    1.388   .     A
C666   H702    1.084   .     S
C667   H689    1.080   .     S
C668   C677    1.400   .     A
C668   F703    1.359   .     S
C669   C677    1.399   .     A
C669   C676    1.393   .     A
C669   H683    1.083   .     S
C670   C672    1.476   .     S
C670   C678    1.402   .     A
C671   C409    1.329   1_565 S
C671   H426    1.088   1_565 S
C672   O696    1.297   .     A
C672   O695    1.304   .     A
C673   C674    1.428   .     S
C674   O697    1.287   .     A
C674   O698    1.292   .     A
C675   O699    1.295   .     A
C675   O700    1.301   .     A
C675   C677    1.463   .     S
C676   H686    1.084   .     S
C678   C679    1.388   .     A
C678   H687    1.083   .     S
C679   C284    1.393   1_556 S
C679   H776    1.083   1_455 S
C680   F704    1.356   .     S
Cu681  O699    1.916   .     S
Cu681  O695    1.935   .     S
Cu681  N692    2.022   .     S
Cu681  O693    1.955   .     S
Cu681  O697    1.951   .     S
Cu681  Cu682   2.691   .     S
Cu682  O696    1.916   .     S
Cu682  O700    1.935   .     S
Cu682  O694    1.951   .     S
Cu682  N691    2.022   .     S
Cu682  O698    1.955   .     S
H684   C409    1.088   1_565 S
H685   N779    1.029   1_455 S
H688   C723    1.083   .     S
N691   H729    1.029   .     S
N691   N736    1.286   .     S
N692   N779    1.286   1_455 S
N692   F789    1.335   1_455 S
F701   N736    1.335   .     S
C705   O737    1.292   .     A
C705   O738    1.287   .     A
C705   C715    1.428   .     S
C706   C707    1.419   .     A
C706   C312    1.425   1_556 S
C706   C328    1.420   1_556 S
C707   C714    1.421   .     A
C707   C711    1.413   .     A
C708   C712    1.407   .     A
C709   C710    1.393   .     A
C709   C312    1.420   1_556 S
C709   C324    1.403   1_556 S
C710   C711    1.388   .     A
C710   H746    1.084   .     S
C711   H733    1.080   .     S
C712   C721    1.400   .     A
C712   F747    1.359   .     S
C713   C721    1.399   .     A
C713   C720    1.393   .     A
C713   H727    1.083   .     S
C714   C716    1.476   .     S
C714   C722    1.402   .     A
C715   C453    1.329   1_565 S
C715   H470    1.088   1_565 S
C716   O740    1.297   .     A
C716   O739    1.304   .     A
C717   C718    1.428   .     S
C718   O741    1.287   .     A
C718   O742    1.292   .     A
C719   O743    1.295   .     A
C719   O744    1.301   .     A
C719   C721    1.463   .     S
C720   H730    1.084   .     S
C722   C723    1.388   .     A
C722   H731    1.083   .     S
C723   C328    1.393   1_556 S
C724   F748    1.356   .     S
Cu725  O743    1.916   .     S
Cu725  O739    1.935   .     S
Cu725  N736    2.022   .     S
Cu725  O737    1.955   .     S
Cu725  O741    1.951   .     S
Cu725  Cu726   2.691   .     S
Cu726  O740    1.916   .     S
Cu726  O744    1.935   .     S
Cu726  O738    1.951   .     S
Cu726  N735    2.022   .     S
Cu726  O742    1.955   .     S
H728   C453    1.088   1_565 S
H732   C767    1.083   .     S
N735   H773    1.029   .     S
N735   N780    1.286   .     S
F745   N780    1.335   .     S
C749   O781    1.292   .     A
C749   O782    1.287   .     A
C749   C759    1.428   .     S
C750   C751    1.419   .     A
C750   C356    1.425   1_556 S
C750   C372    1.420   1_556 S
C751   C758    1.421   .     A
C751   C755    1.413   .     A
C752   C756    1.407   .     A
C753   C754    1.393   .     A
C753   C356    1.420   1_556 S
C753   C368    1.403   1_556 S
C754   C755    1.388   .     A
C754   H790    1.084   .     S
C755   H777    1.080   .     S
C756   C765    1.400   .     A
C756   F791    1.359   .     S
C757   C765    1.399   .     A
C757   C764    1.393   .     A
C757   H771    1.083   .     S
C758   C760    1.476   .     S
C758   C766    1.402   .     A
C759   C497    1.329   1_565 S
C759   H514    1.088   1_565 S
C760   O784    1.297   .     A
C760   O783    1.304   .     A
C761   C762    1.428   .     S
C762   O785    1.287   .     A
C762   O786    1.292   .     A
C763   O787    1.295   .     A
C763   O788    1.301   .     A
C763   C765    1.463   .     S
C764   H774    1.084   .     S
C766   C767    1.388   .     A
C766   H775    1.083   .     S
C767   C372    1.393   1_556 S
C768   F792    1.356   .     S
Cu769  O787    1.916   .     S
Cu769  O783    1.935   .     S
Cu769  N780    2.022   .     S
Cu769  O781    1.955   .     S
Cu769  O785    1.951   .     S
Cu769  Cu770   2.691   .     S
Cu770  O784    1.916   .     S
Cu770  O788    1.935   .     S
Cu770  O782    1.951   .     S
Cu770  N779    2.022   .     S
Cu770  O786    1.955   .     S
H772   C497    1.088   1_565 S
H776   C679    1.083   1_655 S
N779   H685    1.029   1_655 S
N779   N692    1.286   1_655 S
F789   N692    1.335   1_655 S
