data_str_m2_o10_o17_pcu_sym.224
_audit_creation_date              2020-01-03
_audit_creation_method            'Materials Studio'
_symmetry_space_group_name_H-M    'P1'
_symmetry_Int_Tables_number       1
_symmetry_cell_setting            triclinic
loop_
_symmetry_equiv_pos_as_xyz
  x,y,z
_cell_length_a                    29.9589
_cell_length_b                    26.0249
_cell_length_c                    22.5144
_cell_angle_alpha                 102.5870
_cell_angle_beta                  95.6044
_cell_angle_gamma                 92.8166
loop_
_atom_site_label
_atom_site_type_symbol
_atom_site_fract_x
_atom_site_fract_y
_atom_site_fract_z
_atom_site_U_iso_or_equiv
_atom_site_adp_type
_atom_site_occupancy
C1     C     0.24913   0.06672   0.15123   0.00000  Uiso   1.00
C2     C     0.25087   0.26661   0.18210   0.00000  Uiso   1.00
C3     C     0.01859   0.07106   0.14927   0.00000  Uiso   1.00
C4     C     0.48141   0.26228   0.18405   0.00000  Uiso   1.00
C5     C     0.24999   0.01094   0.14271   0.00000  Uiso   1.00
C6     C     0.25002   0.32240   0.19063   0.00000  Uiso   1.00
C7     C     0.16458   0.16676   0.16666   0.00000  Uiso   1.00
C8     C     0.33542   0.16657   0.16668   0.00000  Uiso   1.00
C9     C     0.40892   0.21361   0.17269   0.00000  Uiso   1.00
C10    C     0.09108   0.11973   0.16064   0.00000  Uiso   1.00
C11    C     0.38364   0.16599   0.16706   0.00000  Uiso   1.00
C12    C     0.11636   0.16734   0.16627   0.00000  Uiso   1.00
C13    C     0.40459   0.11878   0.16606   0.00000  Uiso   1.00
C14    C     0.09541   0.21456   0.16727   0.00000  Uiso   1.00
C15    C     0.45095   0.11818   0.16081   0.00000  Uiso   1.00
C16    C     0.04905   0.21515   0.17252   0.00000  Uiso   1.00
C17    C     0.47659   0.16645   0.16697   0.00000  Uiso   1.00
C18    C     0.02341   0.16688   0.16636   0.00000  Uiso   1.00
C19    C     0.45553   0.21439   0.17457   0.00000  Uiso   1.00
C20    C     0.04447   0.11894   0.15876   0.00000  Uiso   1.00
C21    C     0.47215   0.07064   0.14996   0.00000  Uiso   1.00
C22    C     0.02785   0.26269   0.18336   0.00000  Uiso   1.00
Cu23   Cu    0.25501   0.17246   0.22813   0.00000  Uiso   1.00
Cu24   Cu    0.24500   0.16087   0.10521   0.00000  Uiso   1.00
H25    H     0.39234   0.25010   0.17720   0.00000  Uiso   1.00
H26    H     0.10766   0.08323   0.15612   0.00000  Uiso   1.00
H27    H     0.45272   0.03312   0.14138   0.00000  Uiso   1.00
H28    H     0.04728   0.30022   0.19195   0.00000  Uiso   1.00
H29    H     0.03429   0.03401   0.14083   0.00000  Uiso   1.00
H30    H     0.46571   0.29933   0.19248   0.00000  Uiso   1.00
H31    H     0.25040   0.32105   0.09643   0.00000  Uiso   1.00
H32    H     0.24960   0.01229   0.23691   0.00000  Uiso   1.00
N33    N     0.23745   0.15214   0.01284   0.00000  Uiso   1.00
N34    N     0.26256   0.18119   0.32049   0.00000  Uiso   1.00
O35    O     0.25326   0.09538   0.20659   0.00000  Uiso   1.00
O36    O     0.24675   0.23796   0.12674   0.00000  Uiso   1.00
O37    O     0.24480   0.08559   0.10279   0.00000  Uiso   1.00
O38    O     0.25520   0.24774   0.23055   0.00000  Uiso   1.00
O39    O     0.18936   0.17155   0.21857   0.00000  Uiso   1.00
O40    O     0.31065   0.16179   0.11476   0.00000  Uiso   1.00
O41    O     0.18090   0.16176   0.11477   0.00000  Uiso   1.00
O42    O     0.31910   0.17157   0.21857   0.00000  Uiso   1.00
O43    O     0.37996   0.07478   0.17418   0.00000  Uiso   1.00
C44    C     0.39106   0.06965   0.23526   0.00000  Uiso   1.00
H45    H     0.39288   0.10835   0.26905   0.00000  Uiso   1.00
H46    H     0.42387   0.05195   0.23986   0.00000  Uiso   1.00
C47    C     0.35559   0.03362   0.25257   0.00000  Uiso   1.00
H48    H     0.34960   0.32936   0.21753   0.00000  Uiso   1.00
H49    H     0.36692   0.02475   0.29748   0.00000  Uiso   1.00
H50    H     0.32400   0.05383   0.25675   0.00000  Uiso   1.00
O51    O     0.12004   0.25855   0.15915   0.00000  Uiso   1.00
C52    C     0.10895   0.26367   0.09807   0.00000  Uiso   1.00
H53    H     0.07613   0.28135   0.09345   0.00000  Uiso   1.00
H54    H     0.10715   0.22497   0.06429   0.00000  Uiso   1.00
C55    C     0.14441   0.29972   0.08076   0.00000  Uiso   1.00
H56    H     0.17601   0.27954   0.07660   0.00000  Uiso   1.00
H57    H     0.13308   0.30859   0.03585   0.00000  Uiso   1.00
H58    H     0.15038   0.00398   0.11581   0.00000  Uiso   1.00
O59    O     0.22274   0.10511   0.30955   0.00000  Uiso   1.00
C60    C     0.17806   0.09406   0.31987   0.00000  Uiso   1.00
H61    H     0.15758   0.12844   0.31809   0.00000  Uiso   1.00
H62    H     0.17679   0.08296   0.03114   0.00000  Uiso   1.00
C63    C     0.15714   0.04728   0.27037   0.00000  Uiso   1.00
H64    H     0.17365   0.01091   0.27526   0.00000  Uiso   1.00
H65    H     0.12071   0.04119   0.27447   0.00000  Uiso   1.00
H66    H     0.16136   0.05463   0.22449   0.00000  Uiso   1.00
O67    O     0.27726   0.22822   0.02378   0.00000  Uiso   1.00
C68    C     0.32194   0.23927   0.01347   0.00000  Uiso   1.00
H69    H     0.32322   0.25036   0.30220   0.00000  Uiso   1.00
H70    H     0.34242   0.20489   0.01526   0.00000  Uiso   1.00
C71    C     0.34286   0.28606   0.06297   0.00000  Uiso   1.00
H72    H     0.33861   0.27873   0.10886   0.00000  Uiso   1.00
H73    H     0.37929   0.29215   0.05889   0.00000  Uiso   1.00
H74    H     0.32635   0.32243   0.05805   0.00000  Uiso   1.00
C75    C     0.74913   0.06672   0.15123   0.00000  Uiso   1.00
C76    C     0.75087   0.26661   0.18210   0.00000  Uiso   1.00
C77    C     0.51859   0.07106   0.14927   0.00000  Uiso   1.00
C78    C     0.98141   0.26228   0.18405   0.00000  Uiso   1.00
C79    C     0.74999   0.01094   0.14271   0.00000  Uiso   1.00
C80    C     0.75002   0.32240   0.19063   0.00000  Uiso   1.00
C81    C     0.66458   0.16676   0.16666   0.00000  Uiso   1.00
C82    C     0.83542   0.16657   0.16668   0.00000  Uiso   1.00
C83    C     0.90892   0.21361   0.17269   0.00000  Uiso   1.00
C84    C     0.59108   0.11973   0.16064   0.00000  Uiso   1.00
C85    C     0.88364   0.16599   0.16706   0.00000  Uiso   1.00
C86    C     0.61636   0.16734   0.16627   0.00000  Uiso   1.00
C87    C     0.90459   0.11878   0.16606   0.00000  Uiso   1.00
C88    C     0.59541   0.21456   0.16727   0.00000  Uiso   1.00
C89    C     0.95095   0.11818   0.16081   0.00000  Uiso   1.00
C90    C     0.54905   0.21515   0.17252   0.00000  Uiso   1.00
C91    C     0.97659   0.16645   0.16697   0.00000  Uiso   1.00
C92    C     0.52341   0.16688   0.16636   0.00000  Uiso   1.00
C93    C     0.95553   0.21439   0.17457   0.00000  Uiso   1.00
C94    C     0.54447   0.11894   0.15876   0.00000  Uiso   1.00
C95    C     0.97215   0.07064   0.14996   0.00000  Uiso   1.00
C96    C     0.52785   0.26269   0.18336   0.00000  Uiso   1.00
Cu97   Cu    0.75501   0.17246   0.22813   0.00000  Uiso   1.00
Cu98   Cu    0.74500   0.16087   0.10521   0.00000  Uiso   1.00
H99    H     0.89234   0.25010   0.17720   0.00000  Uiso   1.00
H100   H     0.60766   0.08323   0.15612   0.00000  Uiso   1.00
H101   H     0.95272   0.03312   0.14138   0.00000  Uiso   1.00
H102   H     0.54728   0.30022   0.19195   0.00000  Uiso   1.00
H103   H     0.53429   0.03401   0.14083   0.00000  Uiso   1.00
H104   H     0.96571   0.29933   0.19248   0.00000  Uiso   1.00
H105   H     0.75040   0.32105   0.09643   0.00000  Uiso   1.00
H106   H     0.74960   0.01229   0.23691   0.00000  Uiso   1.00
N107   N     0.73745   0.15214   0.01284   0.00000  Uiso   1.00
N108   N     0.76256   0.18119   0.32049   0.00000  Uiso   1.00
O109   O     0.75326   0.09538   0.20659   0.00000  Uiso   1.00
O110   O     0.74675   0.23796   0.12674   0.00000  Uiso   1.00
O111   O     0.74480   0.08559   0.10279   0.00000  Uiso   1.00
O112   O     0.75520   0.24774   0.23055   0.00000  Uiso   1.00
O113   O     0.68936   0.17155   0.21857   0.00000  Uiso   1.00
O114   O     0.81065   0.16179   0.11476   0.00000  Uiso   1.00
O115   O     0.68090   0.16176   0.11477   0.00000  Uiso   1.00
O116   O     0.81910   0.17157   0.21857   0.00000  Uiso   1.00
O117   O     0.87996   0.07478   0.17418   0.00000  Uiso   1.00
C118   C     0.89106   0.06965   0.23526   0.00000  Uiso   1.00
H119   H     0.89288   0.10835   0.26905   0.00000  Uiso   1.00
H120   H     0.92387   0.05195   0.23986   0.00000  Uiso   1.00
C121   C     0.85559   0.03362   0.25257   0.00000  Uiso   1.00
H122   H     0.84960   0.32936   0.21753   0.00000  Uiso   1.00
H123   H     0.86692   0.02475   0.29748   0.00000  Uiso   1.00
H124   H     0.82400   0.05383   0.25675   0.00000  Uiso   1.00
O125   O     0.62004   0.25855   0.15915   0.00000  Uiso   1.00
C126   C     0.60895   0.26367   0.09807   0.00000  Uiso   1.00
H127   H     0.57613   0.28135   0.09345   0.00000  Uiso   1.00
H128   H     0.60715   0.22497   0.06429   0.00000  Uiso   1.00
C129   C     0.64441   0.29972   0.08076   0.00000  Uiso   1.00
H130   H     0.67601   0.27954   0.07660   0.00000  Uiso   1.00
H131   H     0.63308   0.30859   0.03585   0.00000  Uiso   1.00
H132   H     0.65038   0.00398   0.11581   0.00000  Uiso   1.00
O133   O     0.72274   0.10511   0.30955   0.00000  Uiso   1.00
C134   C     0.67806   0.09406   0.31987   0.00000  Uiso   1.00
H135   H     0.65758   0.12844   0.31809   0.00000  Uiso   1.00
H136   H     0.67679   0.08296   0.03114   0.00000  Uiso   1.00
C137   C     0.65714   0.04728   0.27037   0.00000  Uiso   1.00
H138   H     0.67365   0.01091   0.27526   0.00000  Uiso   1.00
H139   H     0.62071   0.04119   0.27447   0.00000  Uiso   1.00
H140   H     0.66136   0.05463   0.22449   0.00000  Uiso   1.00
O141   O     0.77726   0.22822   0.02378   0.00000  Uiso   1.00
C142   C     0.82194   0.23927   0.01347   0.00000  Uiso   1.00
H143   H     0.82322   0.25036   0.30220   0.00000  Uiso   1.00
H144   H     0.84242   0.20489   0.01526   0.00000  Uiso   1.00
C145   C     0.84286   0.28606   0.06297   0.00000  Uiso   1.00
H146   H     0.83861   0.27873   0.10886   0.00000  Uiso   1.00
H147   H     0.87929   0.29215   0.05889   0.00000  Uiso   1.00
H148   H     0.82635   0.32243   0.05805   0.00000  Uiso   1.00
C149   C     0.24913   0.40006   0.15123   0.00000  Uiso   1.00
C150   C     0.25087   0.59995   0.18210   0.00000  Uiso   1.00
C151   C     0.01859   0.40439   0.14927   0.00000  Uiso   1.00
C152   C     0.48141   0.59561   0.18405   0.00000  Uiso   1.00
C153   C     0.24999   0.34427   0.14271   0.00000  Uiso   1.00
C154   C     0.25002   0.65573   0.19063   0.00000  Uiso   1.00
C155   C     0.16458   0.50010   0.16666   0.00000  Uiso   1.00
C156   C     0.33542   0.49990   0.16668   0.00000  Uiso   1.00
C157   C     0.40892   0.54694   0.17269   0.00000  Uiso   1.00
C158   C     0.09108   0.45306   0.16064   0.00000  Uiso   1.00
C159   C     0.38364   0.49932   0.16706   0.00000  Uiso   1.00
C160   C     0.11636   0.50068   0.16627   0.00000  Uiso   1.00
C161   C     0.40459   0.45211   0.16606   0.00000  Uiso   1.00
C162   C     0.09541   0.54789   0.16727   0.00000  Uiso   1.00
C163   C     0.45095   0.45151   0.16081   0.00000  Uiso   1.00
C164   C     0.04905   0.54849   0.17252   0.00000  Uiso   1.00
C165   C     0.47659   0.49979   0.16697   0.00000  Uiso   1.00
C166   C     0.02341   0.50022   0.16636   0.00000  Uiso   1.00
C167   C     0.45553   0.54773   0.17457   0.00000  Uiso   1.00
C168   C     0.04447   0.45227   0.15876   0.00000  Uiso   1.00
C169   C     0.47215   0.40397   0.14996   0.00000  Uiso   1.00
C170   C     0.02785   0.59603   0.18336   0.00000  Uiso   1.00
Cu171  Cu    0.25501   0.50579   0.22813   0.00000  Uiso   1.00
Cu172  Cu    0.24500   0.49421   0.10521   0.00000  Uiso   1.00
H173   H     0.39234   0.58344   0.17720   0.00000  Uiso   1.00
H174   H     0.10766   0.41656   0.15612   0.00000  Uiso   1.00
H175   H     0.45272   0.36645   0.14138   0.00000  Uiso   1.00
H176   H     0.04728   0.63355   0.19195   0.00000  Uiso   1.00
H177   H     0.03429   0.36734   0.14083   0.00000  Uiso   1.00
H178   H     0.46571   0.63266   0.19248   0.00000  Uiso   1.00
H179   H     0.25040   0.65438   0.09643   0.00000  Uiso   1.00
H180   H     0.24960   0.34562   0.23691   0.00000  Uiso   1.00
N181   N     0.23745   0.48547   0.01284   0.00000  Uiso   1.00
N182   N     0.26256   0.51453   0.32049   0.00000  Uiso   1.00
O183   O     0.25326   0.42871   0.20659   0.00000  Uiso   1.00
O184   O     0.24675   0.57129   0.12674   0.00000  Uiso   1.00
O185   O     0.24480   0.41892   0.10279   0.00000  Uiso   1.00
O186   O     0.25520   0.58108   0.23055   0.00000  Uiso   1.00
O187   O     0.18936   0.50488   0.21857   0.00000  Uiso   1.00
O188   O     0.31065   0.49512   0.11476   0.00000  Uiso   1.00
O189   O     0.18090   0.49510   0.11477   0.00000  Uiso   1.00
O190   O     0.31910   0.50490   0.21857   0.00000  Uiso   1.00
O191   O     0.37996   0.40811   0.17418   0.00000  Uiso   1.00
C192   C     0.39106   0.40299   0.23526   0.00000  Uiso   1.00
H193   H     0.39288   0.44168   0.26905   0.00000  Uiso   1.00
H194   H     0.42387   0.38528   0.23986   0.00000  Uiso   1.00
C195   C     0.35559   0.36695   0.25257   0.00000  Uiso   1.00
H196   H     0.34960   0.66269   0.21753   0.00000  Uiso   1.00
H197   H     0.36692   0.35808   0.29748   0.00000  Uiso   1.00
H198   H     0.32400   0.38716   0.25675   0.00000  Uiso   1.00
O199   O     0.12004   0.59189   0.15915   0.00000  Uiso   1.00
C200   C     0.10895   0.59700   0.09807   0.00000  Uiso   1.00
H201   H     0.07613   0.61468   0.09345   0.00000  Uiso   1.00
H202   H     0.10715   0.55831   0.06429   0.00000  Uiso   1.00
C203   C     0.14441   0.63306   0.08076   0.00000  Uiso   1.00
H204   H     0.17601   0.61287   0.07660   0.00000  Uiso   1.00
H205   H     0.13308   0.64192   0.03585   0.00000  Uiso   1.00
H206   H     0.15038   0.33732   0.11581   0.00000  Uiso   1.00
O207   O     0.22274   0.43844   0.30955   0.00000  Uiso   1.00
C208   C     0.17806   0.42739   0.31987   0.00000  Uiso   1.00
H209   H     0.15758   0.46178   0.31809   0.00000  Uiso   1.00
H210   H     0.17679   0.41629   0.03114   0.00000  Uiso   1.00
C211   C     0.15714   0.38061   0.27037   0.00000  Uiso   1.00
H212   H     0.17365   0.34425   0.27526   0.00000  Uiso   1.00
H213   H     0.12071   0.37452   0.27447   0.00000  Uiso   1.00
H214   H     0.16136   0.38796   0.22449   0.00000  Uiso   1.00
O215   O     0.27726   0.56156   0.02378   0.00000  Uiso   1.00
C216   C     0.32194   0.57260   0.01347   0.00000  Uiso   1.00
H217   H     0.32322   0.58370   0.30220   0.00000  Uiso   1.00
H218   H     0.34242   0.53822   0.01526   0.00000  Uiso   1.00
C219   C     0.34286   0.61940   0.06297   0.00000  Uiso   1.00
H220   H     0.33861   0.61206   0.10886   0.00000  Uiso   1.00
H221   H     0.37929   0.62548   0.05889   0.00000  Uiso   1.00
H222   H     0.32635   0.65576   0.05805   0.00000  Uiso   1.00
C223   C     0.74913   0.40006   0.15123   0.00000  Uiso   1.00
C224   C     0.75087   0.59995   0.18210   0.00000  Uiso   1.00
C225   C     0.51859   0.40439   0.14927   0.00000  Uiso   1.00
C226   C     0.98141   0.59561   0.18405   0.00000  Uiso   1.00
C227   C     0.74999   0.34427   0.14271   0.00000  Uiso   1.00
C228   C     0.75002   0.65573   0.19063   0.00000  Uiso   1.00
C229   C     0.66458   0.50010   0.16666   0.00000  Uiso   1.00
C230   C     0.83542   0.49990   0.16668   0.00000  Uiso   1.00
C231   C     0.90892   0.54694   0.17269   0.00000  Uiso   1.00
C232   C     0.59108   0.45306   0.16064   0.00000  Uiso   1.00
C233   C     0.88364   0.49932   0.16706   0.00000  Uiso   1.00
C234   C     0.61636   0.50068   0.16627   0.00000  Uiso   1.00
C235   C     0.90459   0.45211   0.16606   0.00000  Uiso   1.00
C236   C     0.59541   0.54789   0.16727   0.00000  Uiso   1.00
C237   C     0.95095   0.45151   0.16081   0.00000  Uiso   1.00
C238   C     0.54905   0.54849   0.17252   0.00000  Uiso   1.00
C239   C     0.97659   0.49979   0.16697   0.00000  Uiso   1.00
C240   C     0.52341   0.50022   0.16636   0.00000  Uiso   1.00
C241   C     0.95553   0.54773   0.17457   0.00000  Uiso   1.00
C242   C     0.54447   0.45227   0.15876   0.00000  Uiso   1.00
C243   C     0.97215   0.40397   0.14996   0.00000  Uiso   1.00
C244   C     0.52785   0.59603   0.18336   0.00000  Uiso   1.00
Cu245  Cu    0.75501   0.50579   0.22813   0.00000  Uiso   1.00
Cu246  Cu    0.74500   0.49421   0.10521   0.00000  Uiso   1.00
H247   H     0.89234   0.58344   0.17720   0.00000  Uiso   1.00
H248   H     0.60766   0.41656   0.15612   0.00000  Uiso   1.00
H249   H     0.95272   0.36645   0.14138   0.00000  Uiso   1.00
H250   H     0.54728   0.63355   0.19195   0.00000  Uiso   1.00
H251   H     0.53429   0.36734   0.14083   0.00000  Uiso   1.00
H252   H     0.96571   0.63266   0.19248   0.00000  Uiso   1.00
H253   H     0.75040   0.65438   0.09643   0.00000  Uiso   1.00
H254   H     0.74960   0.34562   0.23691   0.00000  Uiso   1.00
N255   N     0.73745   0.48547   0.01284   0.00000  Uiso   1.00
N256   N     0.76256   0.51453   0.32049   0.00000  Uiso   1.00
O257   O     0.75326   0.42871   0.20659   0.00000  Uiso   1.00
O258   O     0.74675   0.57129   0.12674   0.00000  Uiso   1.00
O259   O     0.74480   0.41892   0.10279   0.00000  Uiso   1.00
O260   O     0.75520   0.58108   0.23055   0.00000  Uiso   1.00
O261   O     0.68936   0.50488   0.21857   0.00000  Uiso   1.00
O262   O     0.81065   0.49512   0.11476   0.00000  Uiso   1.00
O263   O     0.68090   0.49510   0.11477   0.00000  Uiso   1.00
O264   O     0.81910   0.50490   0.21857   0.00000  Uiso   1.00
O265   O     0.87996   0.40811   0.17418   0.00000  Uiso   1.00
C266   C     0.89106   0.40299   0.23526   0.00000  Uiso   1.00
H267   H     0.89288   0.44168   0.26905   0.00000  Uiso   1.00
H268   H     0.92387   0.38528   0.23986   0.00000  Uiso   1.00
C269   C     0.85559   0.36695   0.25257   0.00000  Uiso   1.00
H270   H     0.84960   0.66269   0.21753   0.00000  Uiso   1.00
H271   H     0.86692   0.35808   0.29748   0.00000  Uiso   1.00
H272   H     0.82400   0.38716   0.25675   0.00000  Uiso   1.00
O273   O     0.62004   0.59189   0.15915   0.00000  Uiso   1.00
C274   C     0.60895   0.59700   0.09807   0.00000  Uiso   1.00
H275   H     0.57613   0.61468   0.09345   0.00000  Uiso   1.00
H276   H     0.60715   0.55831   0.06429   0.00000  Uiso   1.00
C277   C     0.64441   0.63306   0.08076   0.00000  Uiso   1.00
H278   H     0.67601   0.61287   0.07660   0.00000  Uiso   1.00
H279   H     0.63308   0.64192   0.03585   0.00000  Uiso   1.00
H280   H     0.65038   0.33732   0.11581   0.00000  Uiso   1.00
O281   O     0.72274   0.43844   0.30955   0.00000  Uiso   1.00
C282   C     0.67806   0.42739   0.31987   0.00000  Uiso   1.00
H283   H     0.65758   0.46178   0.31809   0.00000  Uiso   1.00
H284   H     0.67679   0.41629   0.03114   0.00000  Uiso   1.00
C285   C     0.65714   0.38061   0.27037   0.00000  Uiso   1.00
H286   H     0.67365   0.34425   0.27526   0.00000  Uiso   1.00
H287   H     0.62071   0.37452   0.27447   0.00000  Uiso   1.00
H288   H     0.66136   0.38796   0.22449   0.00000  Uiso   1.00
O289   O     0.77726   0.56156   0.02378   0.00000  Uiso   1.00
C290   C     0.82194   0.57260   0.01347   0.00000  Uiso   1.00
H291   H     0.82322   0.58370   0.30220   0.00000  Uiso   1.00
H292   H     0.84242   0.53822   0.01526   0.00000  Uiso   1.00
C293   C     0.84286   0.61940   0.06297   0.00000  Uiso   1.00
H294   H     0.83861   0.61206   0.10886   0.00000  Uiso   1.00
H295   H     0.87929   0.62548   0.05889   0.00000  Uiso   1.00
H296   H     0.82635   0.65576   0.05805   0.00000  Uiso   1.00
C297   C     0.24913   0.73339   0.15123   0.00000  Uiso   1.00
C298   C     0.25087   0.93328   0.18210   0.00000  Uiso   1.00
C299   C     0.01859   0.73772   0.14927   0.00000  Uiso   1.00
C300   C     0.48141   0.92894   0.18405   0.00000  Uiso   1.00
C301   C     0.24999   0.67760   0.14271   0.00000  Uiso   1.00
C302   C     0.25002   0.98906   0.19063   0.00000  Uiso   1.00
C303   C     0.16458   0.83343   0.16666   0.00000  Uiso   1.00
C304   C     0.33542   0.83324   0.16668   0.00000  Uiso   1.00
C305   C     0.40892   0.88027   0.17269   0.00000  Uiso   1.00
C306   C     0.09108   0.78639   0.16064   0.00000  Uiso   1.00
C307   C     0.38364   0.83266   0.16706   0.00000  Uiso   1.00
C308   C     0.11636   0.83401   0.16627   0.00000  Uiso   1.00
C309   C     0.40459   0.78544   0.16606   0.00000  Uiso   1.00
C310   C     0.09541   0.88122   0.16727   0.00000  Uiso   1.00
C311   C     0.45095   0.78485   0.16081   0.00000  Uiso   1.00
C312   C     0.04905   0.88182   0.17252   0.00000  Uiso   1.00
C313   C     0.47659   0.83312   0.16697   0.00000  Uiso   1.00
C314   C     0.02341   0.83355   0.16636   0.00000  Uiso   1.00
C315   C     0.45553   0.88106   0.17457   0.00000  Uiso   1.00
C316   C     0.04447   0.78561   0.15876   0.00000  Uiso   1.00
C317   C     0.47215   0.73731   0.14996   0.00000  Uiso   1.00
C318   C     0.02785   0.92936   0.18336   0.00000  Uiso   1.00
Cu319  Cu    0.25501   0.83913   0.22813   0.00000  Uiso   1.00
Cu320  Cu    0.24500   0.82754   0.10521   0.00000  Uiso   1.00
H321   H     0.39234   0.91677   0.17720   0.00000  Uiso   1.00
H322   H     0.10766   0.74990   0.15612   0.00000  Uiso   1.00
H323   H     0.45272   0.69978   0.14138   0.00000  Uiso   1.00
H324   H     0.04728   0.96688   0.19195   0.00000  Uiso   1.00
H325   H     0.03429   0.70067   0.14083   0.00000  Uiso   1.00
H326   H     0.46571   0.96599   0.19248   0.00000  Uiso   1.00
H327   H     0.25040   0.98771   0.09643   0.00000  Uiso   1.00
H328   H     0.24960   0.67895   0.23691   0.00000  Uiso   1.00
N329   N     0.23745   0.81881   0.01284   0.00000  Uiso   1.00
N330   N     0.26256   0.84786   0.32049   0.00000  Uiso   1.00
O331   O     0.25326   0.76204   0.20659   0.00000  Uiso   1.00
O332   O     0.24675   0.90462   0.12674   0.00000  Uiso   1.00
O333   O     0.24480   0.75226   0.10279   0.00000  Uiso   1.00
O334   O     0.25520   0.91441   0.23055   0.00000  Uiso   1.00
O335   O     0.18936   0.83821   0.21857   0.00000  Uiso   1.00
O336   O     0.31065   0.82845   0.11476   0.00000  Uiso   1.00
O337   O     0.18090   0.82843   0.11477   0.00000  Uiso   1.00
O338   O     0.31910   0.83824   0.21857   0.00000  Uiso   1.00
O339   O     0.37996   0.74145   0.17418   0.00000  Uiso   1.00
C340   C     0.39106   0.73632   0.23526   0.00000  Uiso   1.00
H341   H     0.39288   0.77502   0.26905   0.00000  Uiso   1.00
H342   H     0.42387   0.71862   0.23986   0.00000  Uiso   1.00
C343   C     0.35559   0.70029   0.25257   0.00000  Uiso   1.00
H344   H     0.34960   0.99603   0.21753   0.00000  Uiso   1.00
H345   H     0.36692   0.69141   0.29748   0.00000  Uiso   1.00
H346   H     0.32400   0.72049   0.25675   0.00000  Uiso   1.00
O347   O     0.12004   0.92522   0.15915   0.00000  Uiso   1.00
C348   C     0.10895   0.93034   0.09807   0.00000  Uiso   1.00
H349   H     0.07613   0.94802   0.09345   0.00000  Uiso   1.00
H350   H     0.10715   0.89164   0.06429   0.00000  Uiso   1.00
C351   C     0.14441   0.96639   0.08076   0.00000  Uiso   1.00
H352   H     0.17601   0.94620   0.07660   0.00000  Uiso   1.00
H353   H     0.13308   0.97526   0.03585   0.00000  Uiso   1.00
H354   H     0.15038   0.67065   0.11581   0.00000  Uiso   1.00
O355   O     0.22274   0.77178   0.30955   0.00000  Uiso   1.00
C356   C     0.17806   0.76073   0.31987   0.00000  Uiso   1.00
H357   H     0.15758   0.79511   0.31809   0.00000  Uiso   1.00
H358   H     0.17679   0.74963   0.03114   0.00000  Uiso   1.00
C359   C     0.15714   0.71394   0.27037   0.00000  Uiso   1.00
H360   H     0.17365   0.67758   0.27526   0.00000  Uiso   1.00
H361   H     0.12071   0.70785   0.27447   0.00000  Uiso   1.00
H362   H     0.16136   0.72129   0.22449   0.00000  Uiso   1.00
O363   O     0.27726   0.89489   0.02378   0.00000  Uiso   1.00
C364   C     0.32194   0.90594   0.01347   0.00000  Uiso   1.00
H365   H     0.32322   0.91703   0.30220   0.00000  Uiso   1.00
H366   H     0.34242   0.87156   0.01526   0.00000  Uiso   1.00
C367   C     0.34286   0.95273   0.06297   0.00000  Uiso   1.00
H368   H     0.33861   0.94540   0.10886   0.00000  Uiso   1.00
H369   H     0.37929   0.95881   0.05889   0.00000  Uiso   1.00
H370   H     0.32635   0.98910   0.05805   0.00000  Uiso   1.00
C371   C     0.74913   0.73339   0.15123   0.00000  Uiso   1.00
C372   C     0.75087   0.93328   0.18210   0.00000  Uiso   1.00
C373   C     0.51859   0.73772   0.14927   0.00000  Uiso   1.00
C374   C     0.98141   0.92894   0.18405   0.00000  Uiso   1.00
C375   C     0.74999   0.67760   0.14271   0.00000  Uiso   1.00
C376   C     0.75002   0.98906   0.19063   0.00000  Uiso   1.00
C377   C     0.66458   0.83343   0.16666   0.00000  Uiso   1.00
C378   C     0.83542   0.83324   0.16668   0.00000  Uiso   1.00
C379   C     0.90892   0.88027   0.17269   0.00000  Uiso   1.00
C380   C     0.59108   0.78639   0.16064   0.00000  Uiso   1.00
C381   C     0.88364   0.83266   0.16706   0.00000  Uiso   1.00
C382   C     0.61636   0.83401   0.16627   0.00000  Uiso   1.00
C383   C     0.90459   0.78544   0.16606   0.00000  Uiso   1.00
C384   C     0.59541   0.88122   0.16727   0.00000  Uiso   1.00
C385   C     0.95095   0.78485   0.16081   0.00000  Uiso   1.00
C386   C     0.54905   0.88182   0.17252   0.00000  Uiso   1.00
C387   C     0.97659   0.83312   0.16697   0.00000  Uiso   1.00
C388   C     0.52341   0.83355   0.16636   0.00000  Uiso   1.00
C389   C     0.95553   0.88106   0.17457   0.00000  Uiso   1.00
C390   C     0.54447   0.78561   0.15876   0.00000  Uiso   1.00
C391   C     0.97215   0.73731   0.14996   0.00000  Uiso   1.00
C392   C     0.52785   0.92936   0.18336   0.00000  Uiso   1.00
Cu393  Cu    0.75501   0.83913   0.22813   0.00000  Uiso   1.00
Cu394  Cu    0.74500   0.82754   0.10521   0.00000  Uiso   1.00
H395   H     0.89234   0.91677   0.17720   0.00000  Uiso   1.00
H396   H     0.60766   0.74990   0.15612   0.00000  Uiso   1.00
H397   H     0.95272   0.69978   0.14138   0.00000  Uiso   1.00
H398   H     0.54728   0.96688   0.19195   0.00000  Uiso   1.00
H399   H     0.53429   0.70067   0.14083   0.00000  Uiso   1.00
H400   H     0.96571   0.96599   0.19248   0.00000  Uiso   1.00
H401   H     0.75040   0.98771   0.09643   0.00000  Uiso   1.00
H402   H     0.74960   0.67895   0.23691   0.00000  Uiso   1.00
N403   N     0.73745   0.81881   0.01284   0.00000  Uiso   1.00
N404   N     0.76256   0.84786   0.32049   0.00000  Uiso   1.00
O405   O     0.75326   0.76204   0.20659   0.00000  Uiso   1.00
O406   O     0.74675   0.90462   0.12674   0.00000  Uiso   1.00
O407   O     0.74480   0.75226   0.10279   0.00000  Uiso   1.00
O408   O     0.75520   0.91441   0.23055   0.00000  Uiso   1.00
O409   O     0.68936   0.83821   0.21857   0.00000  Uiso   1.00
O410   O     0.81065   0.82845   0.11476   0.00000  Uiso   1.00
O411   O     0.68090   0.82843   0.11477   0.00000  Uiso   1.00
O412   O     0.81910   0.83824   0.21857   0.00000  Uiso   1.00
O413   O     0.87996   0.74145   0.17418   0.00000  Uiso   1.00
C414   C     0.89106   0.73632   0.23526   0.00000  Uiso   1.00
H415   H     0.89288   0.77502   0.26905   0.00000  Uiso   1.00
H416   H     0.92387   0.71862   0.23986   0.00000  Uiso   1.00
C417   C     0.85559   0.70029   0.25257   0.00000  Uiso   1.00
H418   H     0.84960   0.99603   0.21753   0.00000  Uiso   1.00
H419   H     0.86692   0.69141   0.29748   0.00000  Uiso   1.00
H420   H     0.82400   0.72049   0.25675   0.00000  Uiso   1.00
O421   O     0.62004   0.92522   0.15915   0.00000  Uiso   1.00
C422   C     0.60895   0.93034   0.09807   0.00000  Uiso   1.00
H423   H     0.57613   0.94802   0.09345   0.00000  Uiso   1.00
H424   H     0.60715   0.89164   0.06429   0.00000  Uiso   1.00
C425   C     0.64441   0.96639   0.08076   0.00000  Uiso   1.00
H426   H     0.67601   0.94620   0.07660   0.00000  Uiso   1.00
H427   H     0.63308   0.97526   0.03585   0.00000  Uiso   1.00
H428   H     0.65038   0.67065   0.11581   0.00000  Uiso   1.00
O429   O     0.72274   0.77178   0.30955   0.00000  Uiso   1.00
C430   C     0.67806   0.76073   0.31987   0.00000  Uiso   1.00
H431   H     0.65758   0.79511   0.31809   0.00000  Uiso   1.00
H432   H     0.67679   0.74963   0.03114   0.00000  Uiso   1.00
C433   C     0.65714   0.71394   0.27037   0.00000  Uiso   1.00
H434   H     0.67365   0.67758   0.27526   0.00000  Uiso   1.00
H435   H     0.62071   0.70785   0.27447   0.00000  Uiso   1.00
H436   H     0.66136   0.72129   0.22449   0.00000  Uiso   1.00
O437   O     0.77726   0.89489   0.02378   0.00000  Uiso   1.00
C438   C     0.82194   0.90594   0.01347   0.00000  Uiso   1.00
H439   H     0.82322   0.91703   0.30220   0.00000  Uiso   1.00
H440   H     0.84242   0.87156   0.01526   0.00000  Uiso   1.00
C441   C     0.84286   0.95273   0.06297   0.00000  Uiso   1.00
H442   H     0.83861   0.94540   0.10886   0.00000  Uiso   1.00
H443   H     0.87929   0.95881   0.05889   0.00000  Uiso   1.00
H444   H     0.82635   0.98910   0.05805   0.00000  Uiso   1.00
C445   C     0.24913   0.06672   0.48456   0.00000  Uiso   1.00
C446   C     0.25087   0.26661   0.51544   0.00000  Uiso   1.00
C447   C     0.01859   0.07106   0.48260   0.00000  Uiso   1.00
C448   C     0.48141   0.26228   0.51739   0.00000  Uiso   1.00
C449   C     0.24999   0.01094   0.47604   0.00000  Uiso   1.00
C450   C     0.25002   0.32240   0.52396   0.00000  Uiso   1.00
C451   C     0.16458   0.16676   0.49999   0.00000  Uiso   1.00
C452   C     0.33542   0.16657   0.50001   0.00000  Uiso   1.00
C453   C     0.40892   0.21361   0.50602   0.00000  Uiso   1.00
C454   C     0.09108   0.11973   0.49397   0.00000  Uiso   1.00
C455   C     0.38364   0.16599   0.50039   0.00000  Uiso   1.00
C456   C     0.11636   0.16734   0.49961   0.00000  Uiso   1.00
C457   C     0.40459   0.11878   0.49939   0.00000  Uiso   1.00
C458   C     0.09541   0.21456   0.50061   0.00000  Uiso   1.00
C459   C     0.45095   0.11818   0.49414   0.00000  Uiso   1.00
C460   C     0.04905   0.21515   0.50585   0.00000  Uiso   1.00
C461   C     0.47659   0.16645   0.50030   0.00000  Uiso   1.00
C462   C     0.02341   0.16688   0.49969   0.00000  Uiso   1.00
C463   C     0.45553   0.21439   0.50790   0.00000  Uiso   1.00
C464   C     0.04447   0.11894   0.49209   0.00000  Uiso   1.00
C465   C     0.47215   0.07064   0.48329   0.00000  Uiso   1.00
C466   C     0.02785   0.26269   0.51670   0.00000  Uiso   1.00
Cu467  Cu    0.25501   0.17246   0.56146   0.00000  Uiso   1.00
Cu468  Cu    0.24500   0.16087   0.43854   0.00000  Uiso   1.00
H469   H     0.39234   0.25010   0.51053   0.00000  Uiso   1.00
H470   H     0.10766   0.08323   0.48946   0.00000  Uiso   1.00
H471   H     0.45272   0.03312   0.47471   0.00000  Uiso   1.00
H472   H     0.04728   0.30022   0.52528   0.00000  Uiso   1.00
H473   H     0.03429   0.03401   0.47417   0.00000  Uiso   1.00
H474   H     0.46571   0.29933   0.52581   0.00000  Uiso   1.00
H475   H     0.25040   0.32105   0.42976   0.00000  Uiso   1.00
H476   H     0.24960   0.01229   0.57024   0.00000  Uiso   1.00
N477   N     0.23745   0.15214   0.34617   0.00000  Uiso   1.00
N478   N     0.26256   0.18119   0.65383   0.00000  Uiso   1.00
O479   O     0.25326   0.09538   0.53992   0.00000  Uiso   1.00
O480   O     0.24675   0.23796   0.46008   0.00000  Uiso   1.00
O481   O     0.24480   0.08559   0.43612   0.00000  Uiso   1.00
O482   O     0.25520   0.24774   0.56388   0.00000  Uiso   1.00
O483   O     0.18936   0.17155   0.55191   0.00000  Uiso   1.00
O484   O     0.31065   0.16179   0.44809   0.00000  Uiso   1.00
O485   O     0.18090   0.16176   0.44810   0.00000  Uiso   1.00
O486   O     0.31910   0.17157   0.55190   0.00000  Uiso   1.00
O487   O     0.37996   0.07478   0.50751   0.00000  Uiso   1.00
C488   C     0.39106   0.06965   0.56859   0.00000  Uiso   1.00
H489   H     0.39288   0.10835   0.60238   0.00000  Uiso   1.00
H490   H     0.42387   0.05195   0.57319   0.00000  Uiso   1.00
C491   C     0.35559   0.03362   0.58590   0.00000  Uiso   1.00
H492   H     0.34960   0.32936   0.55086   0.00000  Uiso   1.00
H493   H     0.36692   0.02475   0.63082   0.00000  Uiso   1.00
H494   H     0.32400   0.05383   0.59008   0.00000  Uiso   1.00
O495   O     0.12004   0.25855   0.49249   0.00000  Uiso   1.00
C496   C     0.10895   0.26367   0.43140   0.00000  Uiso   1.00
H497   H     0.07613   0.28135   0.42678   0.00000  Uiso   1.00
H498   H     0.10715   0.22497   0.39762   0.00000  Uiso   1.00
C499   C     0.14441   0.29972   0.41410   0.00000  Uiso   1.00
H500   H     0.17601   0.27954   0.40993   0.00000  Uiso   1.00
H501   H     0.13308   0.30859   0.36918   0.00000  Uiso   1.00
H502   H     0.15038   0.00398   0.44914   0.00000  Uiso   1.00
O503   O     0.22274   0.10511   0.64289   0.00000  Uiso   1.00
C504   C     0.17806   0.09406   0.65321   0.00000  Uiso   1.00
H505   H     0.15758   0.12844   0.65143   0.00000  Uiso   1.00
H506   H     0.17679   0.08296   0.36447   0.00000  Uiso   1.00
C507   C     0.15714   0.04728   0.60371   0.00000  Uiso   1.00
H508   H     0.17365   0.01091   0.60859   0.00000  Uiso   1.00
H509   H     0.12071   0.04119   0.60780   0.00000  Uiso   1.00
H510   H     0.16136   0.05463   0.55782   0.00000  Uiso   1.00
O511   O     0.27726   0.22822   0.35711   0.00000  Uiso   1.00
C512   C     0.32194   0.23927   0.34680   0.00000  Uiso   1.00
H513   H     0.32322   0.25036   0.63554   0.00000  Uiso   1.00
H514   H     0.34242   0.20489   0.34860   0.00000  Uiso   1.00
C515   C     0.34286   0.28606   0.39630   0.00000  Uiso   1.00
H516   H     0.33861   0.27873   0.44219   0.00000  Uiso   1.00
H517   H     0.37929   0.29215   0.39222   0.00000  Uiso   1.00
H518   H     0.32635   0.32243   0.39138   0.00000  Uiso   1.00
C519   C     0.74913   0.06672   0.48456   0.00000  Uiso   1.00
C520   C     0.75087   0.26661   0.51544   0.00000  Uiso   1.00
C521   C     0.51859   0.07106   0.48260   0.00000  Uiso   1.00
C522   C     0.98141   0.26228   0.51739   0.00000  Uiso   1.00
C523   C     0.74999   0.01094   0.47604   0.00000  Uiso   1.00
C524   C     0.75002   0.32240   0.52396   0.00000  Uiso   1.00
C525   C     0.66458   0.16676   0.49999   0.00000  Uiso   1.00
C526   C     0.83542   0.16657   0.50001   0.00000  Uiso   1.00
C527   C     0.90892   0.21361   0.50602   0.00000  Uiso   1.00
C528   C     0.59108   0.11973   0.49397   0.00000  Uiso   1.00
C529   C     0.88364   0.16599   0.50039   0.00000  Uiso   1.00
C530   C     0.61636   0.16734   0.49961   0.00000  Uiso   1.00
C531   C     0.90459   0.11878   0.49939   0.00000  Uiso   1.00
C532   C     0.59541   0.21456   0.50061   0.00000  Uiso   1.00
C533   C     0.95095   0.11818   0.49414   0.00000  Uiso   1.00
C534   C     0.54905   0.21515   0.50585   0.00000  Uiso   1.00
C535   C     0.97659   0.16645   0.50030   0.00000  Uiso   1.00
C536   C     0.52341   0.16688   0.49969   0.00000  Uiso   1.00
C537   C     0.95553   0.21439   0.50790   0.00000  Uiso   1.00
C538   C     0.54447   0.11894   0.49209   0.00000  Uiso   1.00
C539   C     0.97215   0.07064   0.48329   0.00000  Uiso   1.00
C540   C     0.52785   0.26269   0.51670   0.00000  Uiso   1.00
Cu541  Cu    0.75501   0.17246   0.56146   0.00000  Uiso   1.00
Cu542  Cu    0.74500   0.16087   0.43854   0.00000  Uiso   1.00
H543   H     0.89234   0.25010   0.51053   0.00000  Uiso   1.00
H544   H     0.60766   0.08323   0.48946   0.00000  Uiso   1.00
H545   H     0.95272   0.03312   0.47471   0.00000  Uiso   1.00
H546   H     0.54728   0.30022   0.52528   0.00000  Uiso   1.00
H547   H     0.53429   0.03401   0.47417   0.00000  Uiso   1.00
H548   H     0.96571   0.29933   0.52581   0.00000  Uiso   1.00
H549   H     0.75040   0.32105   0.42976   0.00000  Uiso   1.00
H550   H     0.74960   0.01229   0.57024   0.00000  Uiso   1.00
N551   N     0.73745   0.15214   0.34617   0.00000  Uiso   1.00
N552   N     0.76256   0.18119   0.65383   0.00000  Uiso   1.00
O553   O     0.75326   0.09538   0.53992   0.00000  Uiso   1.00
O554   O     0.74675   0.23796   0.46008   0.00000  Uiso   1.00
O555   O     0.74480   0.08559   0.43612   0.00000  Uiso   1.00
O556   O     0.75520   0.24774   0.56388   0.00000  Uiso   1.00
O557   O     0.68936   0.17155   0.55191   0.00000  Uiso   1.00
O558   O     0.81065   0.16179   0.44809   0.00000  Uiso   1.00
O559   O     0.68090   0.16176   0.44810   0.00000  Uiso   1.00
O560   O     0.81910   0.17157   0.55190   0.00000  Uiso   1.00
O561   O     0.87996   0.07478   0.50751   0.00000  Uiso   1.00
C562   C     0.89106   0.06965   0.56859   0.00000  Uiso   1.00
H563   H     0.89288   0.10835   0.60238   0.00000  Uiso   1.00
H564   H     0.92387   0.05195   0.57319   0.00000  Uiso   1.00
C565   C     0.85559   0.03362   0.58590   0.00000  Uiso   1.00
H566   H     0.84960   0.32936   0.55086   0.00000  Uiso   1.00
H567   H     0.86692   0.02475   0.63082   0.00000  Uiso   1.00
H568   H     0.82400   0.05383   0.59008   0.00000  Uiso   1.00
O569   O     0.62004   0.25855   0.49249   0.00000  Uiso   1.00
C570   C     0.60895   0.26367   0.43140   0.00000  Uiso   1.00
H571   H     0.57613   0.28135   0.42678   0.00000  Uiso   1.00
H572   H     0.60715   0.22497   0.39762   0.00000  Uiso   1.00
C573   C     0.64441   0.29972   0.41410   0.00000  Uiso   1.00
H574   H     0.67601   0.27954   0.40993   0.00000  Uiso   1.00
H575   H     0.63308   0.30859   0.36918   0.00000  Uiso   1.00
H576   H     0.65038   0.00398   0.44914   0.00000  Uiso   1.00
O577   O     0.72274   0.10511   0.64289   0.00000  Uiso   1.00
C578   C     0.67806   0.09406   0.65321   0.00000  Uiso   1.00
H579   H     0.65758   0.12844   0.65143   0.00000  Uiso   1.00
H580   H     0.67679   0.08296   0.36447   0.00000  Uiso   1.00
C581   C     0.65714   0.04728   0.60371   0.00000  Uiso   1.00
H582   H     0.67365   0.01091   0.60859   0.00000  Uiso   1.00
H583   H     0.62071   0.04119   0.60780   0.00000  Uiso   1.00
H584   H     0.66136   0.05463   0.55782   0.00000  Uiso   1.00
O585   O     0.77726   0.22822   0.35711   0.00000  Uiso   1.00
C586   C     0.82194   0.23927   0.34680   0.00000  Uiso   1.00
H587   H     0.82322   0.25036   0.63554   0.00000  Uiso   1.00
H588   H     0.84242   0.20489   0.34860   0.00000  Uiso   1.00
C589   C     0.84286   0.28606   0.39630   0.00000  Uiso   1.00
H590   H     0.83861   0.27873   0.44219   0.00000  Uiso   1.00
H591   H     0.87929   0.29215   0.39222   0.00000  Uiso   1.00
H592   H     0.82635   0.32243   0.39138   0.00000  Uiso   1.00
C593   C     0.24913   0.40006   0.48456   0.00000  Uiso   1.00
C594   C     0.25087   0.59995   0.51544   0.00000  Uiso   1.00
C595   C     0.01859   0.40439   0.48260   0.00000  Uiso   1.00
C596   C     0.48141   0.59561   0.51739   0.00000  Uiso   1.00
C597   C     0.24999   0.34427   0.47604   0.00000  Uiso   1.00
C598   C     0.25002   0.65573   0.52396   0.00000  Uiso   1.00
C599   C     0.16458   0.50010   0.49999   0.00000  Uiso   1.00
C600   C     0.33542   0.49990   0.50001   0.00000  Uiso   1.00
C601   C     0.40892   0.54694   0.50602   0.00000  Uiso   1.00
C602   C     0.09108   0.45306   0.49397   0.00000  Uiso   1.00
C603   C     0.38364   0.49932   0.50039   0.00000  Uiso   1.00
C604   C     0.11636   0.50068   0.49961   0.00000  Uiso   1.00
C605   C     0.40459   0.45211   0.49939   0.00000  Uiso   1.00
C606   C     0.09541   0.54789   0.50061   0.00000  Uiso   1.00
C607   C     0.45095   0.45151   0.49414   0.00000  Uiso   1.00
C608   C     0.04905   0.54849   0.50585   0.00000  Uiso   1.00
C609   C     0.47659   0.49979   0.50030   0.00000  Uiso   1.00
C610   C     0.02341   0.50022   0.49969   0.00000  Uiso   1.00
C611   C     0.45553   0.54773   0.50790   0.00000  Uiso   1.00
C612   C     0.04447   0.45227   0.49209   0.00000  Uiso   1.00
C613   C     0.47215   0.40397   0.48329   0.00000  Uiso   1.00
C614   C     0.02785   0.59603   0.51670   0.00000  Uiso   1.00
Cu615  Cu    0.25501   0.50579   0.56146   0.00000  Uiso   1.00
Cu616  Cu    0.24500   0.49421   0.43854   0.00000  Uiso   1.00
H617   H     0.39234   0.58344   0.51053   0.00000  Uiso   1.00
H618   H     0.10766   0.41656   0.48946   0.00000  Uiso   1.00
H619   H     0.45272   0.36645   0.47471   0.00000  Uiso   1.00
H620   H     0.04728   0.63355   0.52528   0.00000  Uiso   1.00
H621   H     0.03429   0.36734   0.47417   0.00000  Uiso   1.00
H622   H     0.46571   0.63266   0.52581   0.00000  Uiso   1.00
H623   H     0.25040   0.65438   0.42976   0.00000  Uiso   1.00
H624   H     0.24960   0.34562   0.57024   0.00000  Uiso   1.00
N625   N     0.23745   0.48547   0.34617   0.00000  Uiso   1.00
N626   N     0.26256   0.51453   0.65383   0.00000  Uiso   1.00
O627   O     0.25326   0.42871   0.53992   0.00000  Uiso   1.00
O628   O     0.24675   0.57129   0.46008   0.00000  Uiso   1.00
O629   O     0.24480   0.41892   0.43612   0.00000  Uiso   1.00
O630   O     0.25520   0.58108   0.56388   0.00000  Uiso   1.00
O631   O     0.18936   0.50488   0.55191   0.00000  Uiso   1.00
O632   O     0.31065   0.49512   0.44809   0.00000  Uiso   1.00
O633   O     0.18090   0.49510   0.44810   0.00000  Uiso   1.00
O634   O     0.31910   0.50490   0.55190   0.00000  Uiso   1.00
O635   O     0.37996   0.40811   0.50751   0.00000  Uiso   1.00
C636   C     0.39106   0.40299   0.56859   0.00000  Uiso   1.00
H637   H     0.39288   0.44168   0.60238   0.00000  Uiso   1.00
H638   H     0.42387   0.38528   0.57319   0.00000  Uiso   1.00
C639   C     0.35559   0.36695   0.58590   0.00000  Uiso   1.00
H640   H     0.34960   0.66269   0.55086   0.00000  Uiso   1.00
H641   H     0.36692   0.35808   0.63082   0.00000  Uiso   1.00
H642   H     0.32400   0.38716   0.59008   0.00000  Uiso   1.00
O643   O     0.12004   0.59189   0.49249   0.00000  Uiso   1.00
C644   C     0.10895   0.59700   0.43140   0.00000  Uiso   1.00
H645   H     0.07613   0.61468   0.42678   0.00000  Uiso   1.00
H646   H     0.10715   0.55831   0.39762   0.00000  Uiso   1.00
C647   C     0.14441   0.63306   0.41410   0.00000  Uiso   1.00
H648   H     0.17601   0.61287   0.40993   0.00000  Uiso   1.00
H649   H     0.13308   0.64192   0.36918   0.00000  Uiso   1.00
H650   H     0.15038   0.33732   0.44914   0.00000  Uiso   1.00
O651   O     0.22274   0.43844   0.64289   0.00000  Uiso   1.00
C652   C     0.17806   0.42739   0.65321   0.00000  Uiso   1.00
H653   H     0.15758   0.46178   0.65143   0.00000  Uiso   1.00
H654   H     0.17679   0.41629   0.36447   0.00000  Uiso   1.00
C655   C     0.15714   0.38061   0.60371   0.00000  Uiso   1.00
H656   H     0.17365   0.34425   0.60859   0.00000  Uiso   1.00
H657   H     0.12071   0.37452   0.60780   0.00000  Uiso   1.00
H658   H     0.16136   0.38796   0.55782   0.00000  Uiso   1.00
O659   O     0.27726   0.56156   0.35711   0.00000  Uiso   1.00
C660   C     0.32194   0.57260   0.34680   0.00000  Uiso   1.00
H661   H     0.32322   0.58370   0.63554   0.00000  Uiso   1.00
H662   H     0.34242   0.53822   0.34860   0.00000  Uiso   1.00
C663   C     0.34286   0.61940   0.39630   0.00000  Uiso   1.00
H664   H     0.33861   0.61206   0.44219   0.00000  Uiso   1.00
H665   H     0.37929   0.62548   0.39222   0.00000  Uiso   1.00
H666   H     0.32635   0.65576   0.39138   0.00000  Uiso   1.00
C667   C     0.74913   0.40006   0.48456   0.00000  Uiso   1.00
C668   C     0.75087   0.59995   0.51544   0.00000  Uiso   1.00
C669   C     0.51859   0.40439   0.48260   0.00000  Uiso   1.00
C670   C     0.98141   0.59561   0.51739   0.00000  Uiso   1.00
C671   C     0.74999   0.34427   0.47604   0.00000  Uiso   1.00
C672   C     0.75002   0.65573   0.52396   0.00000  Uiso   1.00
C673   C     0.66458   0.50010   0.49999   0.00000  Uiso   1.00
C674   C     0.83542   0.49990   0.50001   0.00000  Uiso   1.00
C675   C     0.90892   0.54694   0.50602   0.00000  Uiso   1.00
C676   C     0.59108   0.45306   0.49397   0.00000  Uiso   1.00
C677   C     0.88364   0.49932   0.50039   0.00000  Uiso   1.00
C678   C     0.61636   0.50068   0.49961   0.00000  Uiso   1.00
C679   C     0.90459   0.45211   0.49939   0.00000  Uiso   1.00
C680   C     0.59541   0.54789   0.50061   0.00000  Uiso   1.00
C681   C     0.95095   0.45151   0.49414   0.00000  Uiso   1.00
C682   C     0.54905   0.54849   0.50585   0.00000  Uiso   1.00
C683   C     0.97659   0.49979   0.50030   0.00000  Uiso   1.00
C684   C     0.52341   0.50022   0.49969   0.00000  Uiso   1.00
C685   C     0.95553   0.54773   0.50790   0.00000  Uiso   1.00
C686   C     0.54447   0.45227   0.49209   0.00000  Uiso   1.00
C687   C     0.97215   0.40397   0.48329   0.00000  Uiso   1.00
C688   C     0.52785   0.59603   0.51670   0.00000  Uiso   1.00
Cu689  Cu    0.75501   0.50579   0.56146   0.00000  Uiso   1.00
Cu690  Cu    0.74500   0.49421   0.43854   0.00000  Uiso   1.00
H691   H     0.89234   0.58344   0.51053   0.00000  Uiso   1.00
H692   H     0.60766   0.41656   0.48946   0.00000  Uiso   1.00
H693   H     0.95272   0.36645   0.47471   0.00000  Uiso   1.00
H694   H     0.54728   0.63355   0.52528   0.00000  Uiso   1.00
H695   H     0.53429   0.36734   0.47417   0.00000  Uiso   1.00
H696   H     0.96571   0.63266   0.52581   0.00000  Uiso   1.00
H697   H     0.75040   0.65438   0.42976   0.00000  Uiso   1.00
H698   H     0.74960   0.34562   0.57024   0.00000  Uiso   1.00
N699   N     0.73745   0.48547   0.34617   0.00000  Uiso   1.00
N700   N     0.76256   0.51453   0.65383   0.00000  Uiso   1.00
O701   O     0.75326   0.42871   0.53992   0.00000  Uiso   1.00
O702   O     0.74675   0.57129   0.46008   0.00000  Uiso   1.00
O703   O     0.74480   0.41892   0.43612   0.00000  Uiso   1.00
O704   O     0.75520   0.58108   0.56388   0.00000  Uiso   1.00
O705   O     0.68936   0.50488   0.55191   0.00000  Uiso   1.00
O706   O     0.81065   0.49512   0.44809   0.00000  Uiso   1.00
O707   O     0.68090   0.49510   0.44810   0.00000  Uiso   1.00
O708   O     0.81910   0.50490   0.55190   0.00000  Uiso   1.00
O709   O     0.87996   0.40811   0.50751   0.00000  Uiso   1.00
C710   C     0.89106   0.40299   0.56859   0.00000  Uiso   1.00
H711   H     0.89288   0.44168   0.60238   0.00000  Uiso   1.00
H712   H     0.92387   0.38528   0.57319   0.00000  Uiso   1.00
C713   C     0.85559   0.36695   0.58590   0.00000  Uiso   1.00
H714   H     0.84960   0.66269   0.55086   0.00000  Uiso   1.00
H715   H     0.86692   0.35808   0.63082   0.00000  Uiso   1.00
H716   H     0.82400   0.38716   0.59008   0.00000  Uiso   1.00
O717   O     0.62004   0.59189   0.49249   0.00000  Uiso   1.00
C718   C     0.60895   0.59700   0.43140   0.00000  Uiso   1.00
H719   H     0.57613   0.61468   0.42678   0.00000  Uiso   1.00
H720   H     0.60715   0.55831   0.39762   0.00000  Uiso   1.00
C721   C     0.64441   0.63306   0.41410   0.00000  Uiso   1.00
H722   H     0.67601   0.61287   0.40993   0.00000  Uiso   1.00
H723   H     0.63308   0.64192   0.36918   0.00000  Uiso   1.00
H724   H     0.65038   0.33732   0.44914   0.00000  Uiso   1.00
O725   O     0.72274   0.43844   0.64289   0.00000  Uiso   1.00
C726   C     0.67806   0.42739   0.65321   0.00000  Uiso   1.00
H727   H     0.65758   0.46178   0.65143   0.00000  Uiso   1.00
H728   H     0.67679   0.41629   0.36447   0.00000  Uiso   1.00
C729   C     0.65714   0.38061   0.60371   0.00000  Uiso   1.00
H730   H     0.67365   0.34425   0.60859   0.00000  Uiso   1.00
H731   H     0.62071   0.37452   0.60780   0.00000  Uiso   1.00
H732   H     0.66136   0.38796   0.55782   0.00000  Uiso   1.00
O733   O     0.77726   0.56156   0.35711   0.00000  Uiso   1.00
C734   C     0.82194   0.57260   0.34680   0.00000  Uiso   1.00
H735   H     0.82322   0.58370   0.63554   0.00000  Uiso   1.00
H736   H     0.84242   0.53822   0.34860   0.00000  Uiso   1.00
C737   C     0.84286   0.61940   0.39630   0.00000  Uiso   1.00
H738   H     0.83861   0.61206   0.44219   0.00000  Uiso   1.00
H739   H     0.87929   0.62548   0.39222   0.00000  Uiso   1.00
H740   H     0.82635   0.65576   0.39138   0.00000  Uiso   1.00
C741   C     0.24913   0.73339   0.48456   0.00000  Uiso   1.00
C742   C     0.25087   0.93328   0.51544   0.00000  Uiso   1.00
C743   C     0.01859   0.73772   0.48260   0.00000  Uiso   1.00
C744   C     0.48141   0.92894   0.51739   0.00000  Uiso   1.00
C745   C     0.24999   0.67760   0.47604   0.00000  Uiso   1.00
C746   C     0.25002   0.98906   0.52396   0.00000  Uiso   1.00
C747   C     0.16458   0.83343   0.49999   0.00000  Uiso   1.00
C748   C     0.33542   0.83324   0.50001   0.00000  Uiso   1.00
C749   C     0.40892   0.88027   0.50602   0.00000  Uiso   1.00
C750   C     0.09108   0.78639   0.49397   0.00000  Uiso   1.00
C751   C     0.38364   0.83266   0.50039   0.00000  Uiso   1.00
C752   C     0.11636   0.83401   0.49961   0.00000  Uiso   1.00
C753   C     0.40459   0.78544   0.49939   0.00000  Uiso   1.00
C754   C     0.09541   0.88122   0.50061   0.00000  Uiso   1.00
C755   C     0.45095   0.78485   0.49414   0.00000  Uiso   1.00
C756   C     0.04905   0.88182   0.50585   0.00000  Uiso   1.00
C757   C     0.47659   0.83312   0.50030   0.00000  Uiso   1.00
C758   C     0.02341   0.83355   0.49969   0.00000  Uiso   1.00
C759   C     0.45553   0.88106   0.50790   0.00000  Uiso   1.00
C760   C     0.04447   0.78561   0.49209   0.00000  Uiso   1.00
C761   C     0.47215   0.73731   0.48329   0.00000  Uiso   1.00
C762   C     0.02785   0.92936   0.51670   0.00000  Uiso   1.00
Cu763  Cu    0.25501   0.83913   0.56146   0.00000  Uiso   1.00
Cu764  Cu    0.24500   0.82754   0.43854   0.00000  Uiso   1.00
H765   H     0.39234   0.91677   0.51053   0.00000  Uiso   1.00
H766   H     0.10766   0.74990   0.48946   0.00000  Uiso   1.00
H767   H     0.45272   0.69978   0.47471   0.00000  Uiso   1.00
H768   H     0.04728   0.96688   0.52528   0.00000  Uiso   1.00
H769   H     0.03429   0.70067   0.47417   0.00000  Uiso   1.00
H770   H     0.46571   0.96599   0.52581   0.00000  Uiso   1.00
H771   H     0.25040   0.98771   0.42976   0.00000  Uiso   1.00
H772   H     0.24960   0.67895   0.57024   0.00000  Uiso   1.00
N773   N     0.23745   0.81881   0.34617   0.00000  Uiso   1.00
N774   N     0.26256   0.84786   0.65383   0.00000  Uiso   1.00
O775   O     0.25326   0.76204   0.53992   0.00000  Uiso   1.00
O776   O     0.24675   0.90462   0.46008   0.00000  Uiso   1.00
O777   O     0.24480   0.75226   0.43612   0.00000  Uiso   1.00
O778   O     0.25520   0.91441   0.56388   0.00000  Uiso   1.00
O779   O     0.18936   0.83821   0.55191   0.00000  Uiso   1.00
O780   O     0.31065   0.82845   0.44809   0.00000  Uiso   1.00
O781   O     0.18090   0.82843   0.44810   0.00000  Uiso   1.00
O782   O     0.31910   0.83824   0.55190   0.00000  Uiso   1.00
O783   O     0.37996   0.74145   0.50751   0.00000  Uiso   1.00
C784   C     0.39106   0.73632   0.56859   0.00000  Uiso   1.00
H785   H     0.39288   0.77502   0.60238   0.00000  Uiso   1.00
H786   H     0.42387   0.71862   0.57319   0.00000  Uiso   1.00
C787   C     0.35559   0.70029   0.58590   0.00000  Uiso   1.00
H788   H     0.34960   0.99603   0.55086   0.00000  Uiso   1.00
H789   H     0.36692   0.69141   0.63082   0.00000  Uiso   1.00
H790   H     0.32400   0.72049   0.59008   0.00000  Uiso   1.00
O791   O     0.12004   0.92522   0.49249   0.00000  Uiso   1.00
C792   C     0.10895   0.93034   0.43140   0.00000  Uiso   1.00
H793   H     0.07613   0.94802   0.42678   0.00000  Uiso   1.00
H794   H     0.10715   0.89164   0.39762   0.00000  Uiso   1.00
C795   C     0.14441   0.96639   0.41410   0.00000  Uiso   1.00
H796   H     0.17601   0.94620   0.40993   0.00000  Uiso   1.00
H797   H     0.13308   0.97526   0.36918   0.00000  Uiso   1.00
H798   H     0.15038   0.67065   0.44914   0.00000  Uiso   1.00
O799   O     0.22274   0.77178   0.64289   0.00000  Uiso   1.00
C800   C     0.17806   0.76073   0.65321   0.00000  Uiso   1.00
H801   H     0.15758   0.79511   0.65143   0.00000  Uiso   1.00
H802   H     0.17679   0.74963   0.36447   0.00000  Uiso   1.00
C803   C     0.15714   0.71394   0.60371   0.00000  Uiso   1.00
H804   H     0.17365   0.67758   0.60859   0.00000  Uiso   1.00
H805   H     0.12071   0.70785   0.60780   0.00000  Uiso   1.00
H806   H     0.16136   0.72129   0.55782   0.00000  Uiso   1.00
O807   O     0.27726   0.89489   0.35711   0.00000  Uiso   1.00
C808   C     0.32194   0.90594   0.34680   0.00000  Uiso   1.00
H809   H     0.32322   0.91703   0.63554   0.00000  Uiso   1.00
H810   H     0.34242   0.87156   0.34860   0.00000  Uiso   1.00
C811   C     0.34286   0.95273   0.39630   0.00000  Uiso   1.00
H812   H     0.33861   0.94540   0.44219   0.00000  Uiso   1.00
H813   H     0.37929   0.95881   0.39222   0.00000  Uiso   1.00
H814   H     0.32635   0.98910   0.39138   0.00000  Uiso   1.00
C815   C     0.74913   0.73339   0.48456   0.00000  Uiso   1.00
C816   C     0.75087   0.93328   0.51544   0.00000  Uiso   1.00
C817   C     0.51859   0.73772   0.48260   0.00000  Uiso   1.00
C818   C     0.98141   0.92894   0.51739   0.00000  Uiso   1.00
C819   C     0.74999   0.67760   0.47604   0.00000  Uiso   1.00
C820   C     0.75002   0.98906   0.52396   0.00000  Uiso   1.00
C821   C     0.66458   0.83343   0.49999   0.00000  Uiso   1.00
C822   C     0.83542   0.83324   0.50001   0.00000  Uiso   1.00
C823   C     0.90892   0.88027   0.50602   0.00000  Uiso   1.00
C824   C     0.59108   0.78639   0.49397   0.00000  Uiso   1.00
C825   C     0.88364   0.83266   0.50039   0.00000  Uiso   1.00
C826   C     0.61636   0.83401   0.49961   0.00000  Uiso   1.00
C827   C     0.90459   0.78544   0.49939   0.00000  Uiso   1.00
C828   C     0.59541   0.88122   0.50061   0.00000  Uiso   1.00
C829   C     0.95095   0.78485   0.49414   0.00000  Uiso   1.00
C830   C     0.54905   0.88182   0.50585   0.00000  Uiso   1.00
C831   C     0.97659   0.83312   0.50030   0.00000  Uiso   1.00
C832   C     0.52341   0.83355   0.49969   0.00000  Uiso   1.00
C833   C     0.95553   0.88106   0.50790   0.00000  Uiso   1.00
C834   C     0.54447   0.78561   0.49209   0.00000  Uiso   1.00
C835   C     0.97215   0.73731   0.48329   0.00000  Uiso   1.00
C836   C     0.52785   0.92936   0.51670   0.00000  Uiso   1.00
Cu837  Cu    0.75501   0.83913   0.56146   0.00000  Uiso   1.00
Cu838  Cu    0.74500   0.82754   0.43854   0.00000  Uiso   1.00
H839   H     0.89234   0.91677   0.51053   0.00000  Uiso   1.00
H840   H     0.60766   0.74990   0.48946   0.00000  Uiso   1.00
H841   H     0.95272   0.69978   0.47471   0.00000  Uiso   1.00
H842   H     0.54728   0.96688   0.52528   0.00000  Uiso   1.00
H843   H     0.53429   0.70067   0.47417   0.00000  Uiso   1.00
H844   H     0.96571   0.96599   0.52581   0.00000  Uiso   1.00
H845   H     0.75040   0.98771   0.42976   0.00000  Uiso   1.00
H846   H     0.74960   0.67895   0.57024   0.00000  Uiso   1.00
N847   N     0.73745   0.81881   0.34617   0.00000  Uiso   1.00
N848   N     0.76256   0.84786   0.65383   0.00000  Uiso   1.00
O849   O     0.75326   0.76204   0.53992   0.00000  Uiso   1.00
O850   O     0.74675   0.90462   0.46008   0.00000  Uiso   1.00
O851   O     0.74480   0.75226   0.43612   0.00000  Uiso   1.00
O852   O     0.75520   0.91441   0.56388   0.00000  Uiso   1.00
O853   O     0.68936   0.83821   0.55191   0.00000  Uiso   1.00
O854   O     0.81065   0.82845   0.44809   0.00000  Uiso   1.00
O855   O     0.68090   0.82843   0.44810   0.00000  Uiso   1.00
O856   O     0.81910   0.83824   0.55190   0.00000  Uiso   1.00
O857   O     0.87996   0.74145   0.50751   0.00000  Uiso   1.00
C858   C     0.89106   0.73632   0.56859   0.00000  Uiso   1.00
H859   H     0.89288   0.77502   0.60238   0.00000  Uiso   1.00
H860   H     0.92387   0.71862   0.57319   0.00000  Uiso   1.00
C861   C     0.85559   0.70029   0.58590   0.00000  Uiso   1.00
H862   H     0.84960   0.99603   0.55086   0.00000  Uiso   1.00
H863   H     0.86692   0.69141   0.63082   0.00000  Uiso   1.00
H864   H     0.82400   0.72049   0.59008   0.00000  Uiso   1.00
O865   O     0.62004   0.92522   0.49249   0.00000  Uiso   1.00
C866   C     0.60895   0.93034   0.43140   0.00000  Uiso   1.00
H867   H     0.57613   0.94802   0.42678   0.00000  Uiso   1.00
H868   H     0.60715   0.89164   0.39762   0.00000  Uiso   1.00
C869   C     0.64441   0.96639   0.41410   0.00000  Uiso   1.00
H870   H     0.67601   0.94620   0.40993   0.00000  Uiso   1.00
H871   H     0.63308   0.97526   0.36918   0.00000  Uiso   1.00
H872   H     0.65038   0.67065   0.44914   0.00000  Uiso   1.00
O873   O     0.72274   0.77178   0.64289   0.00000  Uiso   1.00
C874   C     0.67806   0.76073   0.65321   0.00000  Uiso   1.00
H875   H     0.65758   0.79511   0.65143   0.00000  Uiso   1.00
H876   H     0.67679   0.74963   0.36447   0.00000  Uiso   1.00
C877   C     0.65714   0.71394   0.60371   0.00000  Uiso   1.00
H878   H     0.67365   0.67758   0.60859   0.00000  Uiso   1.00
H879   H     0.62071   0.70785   0.60780   0.00000  Uiso   1.00
H880   H     0.66136   0.72129   0.55782   0.00000  Uiso   1.00
O881   O     0.77726   0.89489   0.35711   0.00000  Uiso   1.00
C882   C     0.82194   0.90594   0.34680   0.00000  Uiso   1.00
H883   H     0.82322   0.91703   0.63554   0.00000  Uiso   1.00
H884   H     0.84242   0.87156   0.34860   0.00000  Uiso   1.00
C885   C     0.84286   0.95273   0.39630   0.00000  Uiso   1.00
H886   H     0.83861   0.94540   0.44219   0.00000  Uiso   1.00
H887   H     0.87929   0.95881   0.39222   0.00000  Uiso   1.00
H888   H     0.82635   0.98910   0.39138   0.00000  Uiso   1.00
C889   C     0.24913   0.06672   0.81790   0.00000  Uiso   1.00
C890   C     0.25087   0.26661   0.84877   0.00000  Uiso   1.00
C891   C     0.01859   0.07106   0.81593   0.00000  Uiso   1.00
C892   C     0.48141   0.26228   0.85072   0.00000  Uiso   1.00
C893   C     0.24999   0.01094   0.80937   0.00000  Uiso   1.00
C894   C     0.25002   0.32240   0.85729   0.00000  Uiso   1.00
C895   C     0.16458   0.16676   0.83332   0.00000  Uiso   1.00
C896   C     0.33542   0.16657   0.83334   0.00000  Uiso   1.00
C897   C     0.40892   0.21361   0.83935   0.00000  Uiso   1.00
C898   C     0.09108   0.11973   0.82731   0.00000  Uiso   1.00
C899   C     0.38364   0.16599   0.83373   0.00000  Uiso   1.00
C900   C     0.11636   0.16734   0.83294   0.00000  Uiso   1.00
C901   C     0.40459   0.11878   0.83273   0.00000  Uiso   1.00
C902   C     0.09541   0.21456   0.83394   0.00000  Uiso   1.00
C903   C     0.45095   0.11818   0.82747   0.00000  Uiso   1.00
C904   C     0.04905   0.21515   0.83919   0.00000  Uiso   1.00
C905   C     0.47659   0.16645   0.83364   0.00000  Uiso   1.00
C906   C     0.02341   0.16688   0.83302   0.00000  Uiso   1.00
C907   C     0.45553   0.21439   0.84123   0.00000  Uiso   1.00
C908   C     0.04447   0.11894   0.82542   0.00000  Uiso   1.00
C909   C     0.47215   0.07064   0.81663   0.00000  Uiso   1.00
C910   C     0.02785   0.26269   0.85003   0.00000  Uiso   1.00
Cu911  Cu    0.25501   0.17246   0.89479   0.00000  Uiso   1.00
Cu912  Cu    0.24500   0.16087   0.77187   0.00000  Uiso   1.00
H913   H     0.39234   0.25010   0.84387   0.00000  Uiso   1.00
H914   H     0.10766   0.08323   0.82279   0.00000  Uiso   1.00
H915   H     0.45272   0.03312   0.80804   0.00000  Uiso   1.00
H916   H     0.04728   0.30022   0.85861   0.00000  Uiso   1.00
H917   H     0.03429   0.03401   0.80750   0.00000  Uiso   1.00
H918   H     0.46571   0.29933   0.85915   0.00000  Uiso   1.00
H919   H     0.25040   0.32105   0.76309   0.00000  Uiso   1.00
H920   H     0.24960   0.01229   0.90358   0.00000  Uiso   1.00
N921   N     0.23745   0.15214   0.67951   0.00000  Uiso   1.00
N922   N     0.26256   0.18119   0.98716   0.00000  Uiso   1.00
O923   O     0.25326   0.09538   0.87326   0.00000  Uiso   1.00
O924   O     0.24675   0.23796   0.79341   0.00000  Uiso   1.00
O925   O     0.24480   0.08559   0.76945   0.00000  Uiso   1.00
O926   O     0.25520   0.24774   0.89721   0.00000  Uiso   1.00
O927   O     0.18936   0.17155   0.88524   0.00000  Uiso   1.00
O928   O     0.31065   0.16179   0.78143   0.00000  Uiso   1.00
O929   O     0.18090   0.16176   0.78143   0.00000  Uiso   1.00
O930   O     0.31910   0.17157   0.88523   0.00000  Uiso   1.00
O931   O     0.37996   0.07478   0.84084   0.00000  Uiso   1.00
C932   C     0.39106   0.06965   0.90193   0.00000  Uiso   1.00
H933   H     0.39288   0.10835   0.93571   0.00000  Uiso   1.00
H934   H     0.42387   0.05195   0.90652   0.00000  Uiso   1.00
C935   C     0.35559   0.03362   0.91924   0.00000  Uiso   1.00
H936   H     0.34960   0.32936   0.88419   0.00000  Uiso   1.00
H937   H     0.36692   0.02475   0.96415   0.00000  Uiso   1.00
H938   H     0.32400   0.05383   0.92341   0.00000  Uiso   1.00
O939   O     0.12004   0.25855   0.82582   0.00000  Uiso   1.00
C940   C     0.10895   0.26367   0.76473   0.00000  Uiso   1.00
H941   H     0.07613   0.28135   0.76012   0.00000  Uiso   1.00
H942   H     0.10715   0.22497   0.73096   0.00000  Uiso   1.00
C943   C     0.14441   0.29972   0.74743   0.00000  Uiso   1.00
H944   H     0.17601   0.27954   0.74326   0.00000  Uiso   1.00
H945   H     0.13308   0.30859   0.70251   0.00000  Uiso   1.00
H946   H     0.15038   0.00398   0.78247   0.00000  Uiso   1.00
O947   O     0.22274   0.10511   0.97622   0.00000  Uiso   1.00
C948   C     0.17806   0.09406   0.98654   0.00000  Uiso   1.00
H949   H     0.15758   0.12844   0.98476   0.00000  Uiso   1.00
H950   H     0.17679   0.08296   0.69780   0.00000  Uiso   1.00
C951   C     0.15714   0.04728   0.93704   0.00000  Uiso   1.00
H952   H     0.17365   0.01091   0.94193   0.00000  Uiso   1.00
H953   H     0.12071   0.04119   0.94113   0.00000  Uiso   1.00
H954   H     0.16136   0.05463   0.89115   0.00000  Uiso   1.00
O955   O     0.27726   0.22822   0.69045   0.00000  Uiso   1.00
C956   C     0.32194   0.23927   0.68013   0.00000  Uiso   1.00
H957   H     0.32322   0.25036   0.96887   0.00000  Uiso   1.00
H958   H     0.34242   0.20489   0.68193   0.00000  Uiso   1.00
C959   C     0.34286   0.28606   0.72963   0.00000  Uiso   1.00
H960   H     0.33861   0.27873   0.77552   0.00000  Uiso   1.00
H961   H     0.37929   0.29215   0.72555   0.00000  Uiso   1.00
H962   H     0.32635   0.32243   0.72472   0.00000  Uiso   1.00
C963   C     0.74913   0.06672   0.81790   0.00000  Uiso   1.00
C964   C     0.75087   0.26661   0.84877   0.00000  Uiso   1.00
C965   C     0.51859   0.07106   0.81593   0.00000  Uiso   1.00
C966   C     0.98141   0.26228   0.85072   0.00000  Uiso   1.00
C967   C     0.74999   0.01094   0.80937   0.00000  Uiso   1.00
C968   C     0.75002   0.32240   0.85729   0.00000  Uiso   1.00
C969   C     0.66458   0.16676   0.83332   0.00000  Uiso   1.00
C970   C     0.83542   0.16657   0.83334   0.00000  Uiso   1.00
C971   C     0.90892   0.21361   0.83935   0.00000  Uiso   1.00
C972   C     0.59108   0.11973   0.82731   0.00000  Uiso   1.00
C973   C     0.88364   0.16599   0.83373   0.00000  Uiso   1.00
C974   C     0.61636   0.16734   0.83294   0.00000  Uiso   1.00
C975   C     0.90459   0.11878   0.83273   0.00000  Uiso   1.00
C976   C     0.59541   0.21456   0.83394   0.00000  Uiso   1.00
C977   C     0.95095   0.11818   0.82747   0.00000  Uiso   1.00
C978   C     0.54905   0.21515   0.83919   0.00000  Uiso   1.00
C979   C     0.97659   0.16645   0.83364   0.00000  Uiso   1.00
C980   C     0.52341   0.16688   0.83302   0.00000  Uiso   1.00
C981   C     0.95553   0.21439   0.84123   0.00000  Uiso   1.00
C982   C     0.54447   0.11894   0.82542   0.00000  Uiso   1.00
C983   C     0.97215   0.07064   0.81663   0.00000  Uiso   1.00
C984   C     0.52785   0.26269   0.85003   0.00000  Uiso   1.00
Cu985  Cu    0.75501   0.17246   0.89479   0.00000  Uiso   1.00
Cu986  Cu    0.74500   0.16087   0.77187   0.00000  Uiso   1.00
H987   H     0.89234   0.25010   0.84387   0.00000  Uiso   1.00
H988   H     0.60766   0.08323   0.82279   0.00000  Uiso   1.00
H989   H     0.95272   0.03312   0.80804   0.00000  Uiso   1.00
H990   H     0.54728   0.30022   0.85861   0.00000  Uiso   1.00
H991   H     0.53429   0.03401   0.80750   0.00000  Uiso   1.00
H992   H     0.96571   0.29933   0.85915   0.00000  Uiso   1.00
H993   H     0.75040   0.32105   0.76309   0.00000  Uiso   1.00
H994   H     0.74960   0.01229   0.90358   0.00000  Uiso   1.00
N995   N     0.73745   0.15214   0.67951   0.00000  Uiso   1.00
N996   N     0.76256   0.18119   0.98716   0.00000  Uiso   1.00
O997   O     0.75326   0.09538   0.87326   0.00000  Uiso   1.00
O998   O     0.74675   0.23796   0.79341   0.00000  Uiso   1.00
O999   O     0.74480   0.08559   0.76945   0.00000  Uiso   1.00
O1000  O     0.75520   0.24774   0.89721   0.00000  Uiso   1.00
O1001  O     0.68936   0.17155   0.88524   0.00000  Uiso   1.00
O1002  O     0.81065   0.16179   0.78143   0.00000  Uiso   1.00
O1003  O     0.68090   0.16176   0.78143   0.00000  Uiso   1.00
O1004  O     0.81910   0.17157   0.88523   0.00000  Uiso   1.00
O1005  O     0.87996   0.07478   0.84084   0.00000  Uiso   1.00
C1006  C     0.89106   0.06965   0.90193   0.00000  Uiso   1.00
H1007  H     0.89288   0.10835   0.93571   0.00000  Uiso   1.00
H1008  H     0.92387   0.05195   0.90652   0.00000  Uiso   1.00
C1009  C     0.85559   0.03362   0.91924   0.00000  Uiso   1.00
H1010  H     0.84960   0.32936   0.88419   0.00000  Uiso   1.00
H1011  H     0.86692   0.02475   0.96415   0.00000  Uiso   1.00
H1012  H     0.82400   0.05383   0.92341   0.00000  Uiso   1.00
O1013  O     0.62004   0.25855   0.82582   0.00000  Uiso   1.00
C1014  C     0.60895   0.26367   0.76473   0.00000  Uiso   1.00
H1015  H     0.57613   0.28135   0.76012   0.00000  Uiso   1.00
H1016  H     0.60715   0.22497   0.73096   0.00000  Uiso   1.00
C1017  C     0.64441   0.29972   0.74743   0.00000  Uiso   1.00
H1018  H     0.67601   0.27954   0.74326   0.00000  Uiso   1.00
H1019  H     0.63308   0.30859   0.70251   0.00000  Uiso   1.00
H1020  H     0.65038   0.00398   0.78247   0.00000  Uiso   1.00
O1021  O     0.72274   0.10511   0.97622   0.00000  Uiso   1.00
C1022  C     0.67806   0.09406   0.98654   0.00000  Uiso   1.00
H1023  H     0.65758   0.12844   0.98476   0.00000  Uiso   1.00
H1024  H     0.67679   0.08296   0.69780   0.00000  Uiso   1.00
C1025  C     0.65714   0.04728   0.93704   0.00000  Uiso   1.00
H1026  H     0.67365   0.01091   0.94193   0.00000  Uiso   1.00
H1027  H     0.62071   0.04119   0.94113   0.00000  Uiso   1.00
H1028  H     0.66136   0.05463   0.89115   0.00000  Uiso   1.00
O1029  O     0.77726   0.22822   0.69045   0.00000  Uiso   1.00
C1030  C     0.82194   0.23927   0.68013   0.00000  Uiso   1.00
H1031  H     0.82322   0.25036   0.96887   0.00000  Uiso   1.00
H1032  H     0.84242   0.20489   0.68193   0.00000  Uiso   1.00
C1033  C     0.84286   0.28606   0.72963   0.00000  Uiso   1.00
H1034  H     0.83861   0.27873   0.77552   0.00000  Uiso   1.00
H1035  H     0.87929   0.29215   0.72555   0.00000  Uiso   1.00
H1036  H     0.82635   0.32243   0.72472   0.00000  Uiso   1.00
C1037  C     0.24913   0.40006   0.81790   0.00000  Uiso   1.00
C1038  C     0.25087   0.59995   0.84877   0.00000  Uiso   1.00
C1039  C     0.01859   0.40439   0.81593   0.00000  Uiso   1.00
C1040  C     0.48141   0.59561   0.85072   0.00000  Uiso   1.00
C1041  C     0.24999   0.34427   0.80937   0.00000  Uiso   1.00
C1042  C     0.25002   0.65573   0.85729   0.00000  Uiso   1.00
C1043  C     0.16458   0.50010   0.83332   0.00000  Uiso   1.00
C1044  C     0.33542   0.49990   0.83334   0.00000  Uiso   1.00
C1045  C     0.40892   0.54694   0.83935   0.00000  Uiso   1.00
C1046  C     0.09108   0.45306   0.82731   0.00000  Uiso   1.00
C1047  C     0.38364   0.49932   0.83373   0.00000  Uiso   1.00
C1048  C     0.11636   0.50068   0.83294   0.00000  Uiso   1.00
C1049  C     0.40459   0.45211   0.83273   0.00000  Uiso   1.00
C1050  C     0.09541   0.54789   0.83394   0.00000  Uiso   1.00
C1051  C     0.45095   0.45151   0.82747   0.00000  Uiso   1.00
C1052  C     0.04905   0.54849   0.83919   0.00000  Uiso   1.00
C1053  C     0.47659   0.49979   0.83364   0.00000  Uiso   1.00
C1054  C     0.02341   0.50022   0.83302   0.00000  Uiso   1.00
C1055  C     0.45553   0.54773   0.84123   0.00000  Uiso   1.00
C1056  C     0.04447   0.45227   0.82542   0.00000  Uiso   1.00
C1057  C     0.47215   0.40397   0.81663   0.00000  Uiso   1.00
C1058  C     0.02785   0.59603   0.85003   0.00000  Uiso   1.00
Cu1059 Cu    0.25501   0.50579   0.89479   0.00000  Uiso   1.00
Cu1060 Cu    0.24500   0.49421   0.77187   0.00000  Uiso   1.00
H1061  H     0.39234   0.58344   0.84387   0.00000  Uiso   1.00
H1062  H     0.10766   0.41656   0.82279   0.00000  Uiso   1.00
H1063  H     0.45272   0.36645   0.80804   0.00000  Uiso   1.00
H1064  H     0.04728   0.63355   0.85861   0.00000  Uiso   1.00
H1065  H     0.03429   0.36734   0.80750   0.00000  Uiso   1.00
H1066  H     0.46571   0.63266   0.85915   0.00000  Uiso   1.00
H1067  H     0.25040   0.65438   0.76309   0.00000  Uiso   1.00
H1068  H     0.24960   0.34562   0.90358   0.00000  Uiso   1.00
N1069  N     0.23745   0.48547   0.67951   0.00000  Uiso   1.00
N1070  N     0.26256   0.51453   0.98716   0.00000  Uiso   1.00
O1071  O     0.25326   0.42871   0.87326   0.00000  Uiso   1.00
O1072  O     0.24675   0.57129   0.79341   0.00000  Uiso   1.00
O1073  O     0.24480   0.41892   0.76945   0.00000  Uiso   1.00
O1074  O     0.25520   0.58108   0.89721   0.00000  Uiso   1.00
O1075  O     0.18936   0.50488   0.88524   0.00000  Uiso   1.00
O1076  O     0.31065   0.49512   0.78143   0.00000  Uiso   1.00
O1077  O     0.18090   0.49510   0.78143   0.00000  Uiso   1.00
O1078  O     0.31910   0.50490   0.88523   0.00000  Uiso   1.00
O1079  O     0.37996   0.40811   0.84084   0.00000  Uiso   1.00
C1080  C     0.39106   0.40299   0.90193   0.00000  Uiso   1.00
H1081  H     0.39288   0.44168   0.93571   0.00000  Uiso   1.00
H1082  H     0.42387   0.38528   0.90652   0.00000  Uiso   1.00
C1083  C     0.35559   0.36695   0.91924   0.00000  Uiso   1.00
H1084  H     0.34960   0.66269   0.88419   0.00000  Uiso   1.00
H1085  H     0.36692   0.35808   0.96415   0.00000  Uiso   1.00
H1086  H     0.32400   0.38716   0.92341   0.00000  Uiso   1.00
O1087  O     0.12004   0.59189   0.82582   0.00000  Uiso   1.00
C1088  C     0.10895   0.59700   0.76473   0.00000  Uiso   1.00
H1089  H     0.07613   0.61468   0.76012   0.00000  Uiso   1.00
H1090  H     0.10715   0.55831   0.73096   0.00000  Uiso   1.00
C1091  C     0.14441   0.63306   0.74743   0.00000  Uiso   1.00
H1092  H     0.17601   0.61287   0.74326   0.00000  Uiso   1.00
H1093  H     0.13308   0.64192   0.70251   0.00000  Uiso   1.00
H1094  H     0.15038   0.33732   0.78247   0.00000  Uiso   1.00
O1095  O     0.22274   0.43844   0.97622   0.00000  Uiso   1.00
C1096  C     0.17806   0.42739   0.98654   0.00000  Uiso   1.00
H1097  H     0.15758   0.46178   0.98476   0.00000  Uiso   1.00
H1098  H     0.17679   0.41629   0.69780   0.00000  Uiso   1.00
C1099  C     0.15714   0.38061   0.93704   0.00000  Uiso   1.00
H1100  H     0.17365   0.34425   0.94193   0.00000  Uiso   1.00
H1101  H     0.12071   0.37452   0.94113   0.00000  Uiso   1.00
H1102  H     0.16136   0.38796   0.89115   0.00000  Uiso   1.00
O1103  O     0.27726   0.56156   0.69045   0.00000  Uiso   1.00
C1104  C     0.32194   0.57260   0.68013   0.00000  Uiso   1.00
H1105  H     0.32322   0.58370   0.96887   0.00000  Uiso   1.00
H1106  H     0.34242   0.53822   0.68193   0.00000  Uiso   1.00
C1107  C     0.34286   0.61940   0.72963   0.00000  Uiso   1.00
H1108  H     0.33861   0.61206   0.77552   0.00000  Uiso   1.00
H1109  H     0.37929   0.62548   0.72555   0.00000  Uiso   1.00
H1110  H     0.32635   0.65576   0.72472   0.00000  Uiso   1.00
C1111  C     0.74913   0.40006   0.81790   0.00000  Uiso   1.00
C1112  C     0.75087   0.59995   0.84877   0.00000  Uiso   1.00
C1113  C     0.51859   0.40439   0.81593   0.00000  Uiso   1.00
C1114  C     0.98141   0.59561   0.85072   0.00000  Uiso   1.00
C1115  C     0.74999   0.34427   0.80937   0.00000  Uiso   1.00
C1116  C     0.75002   0.65573   0.85729   0.00000  Uiso   1.00
C1117  C     0.66458   0.50010   0.83332   0.00000  Uiso   1.00
C1118  C     0.83542   0.49990   0.83334   0.00000  Uiso   1.00
C1119  C     0.90892   0.54694   0.83935   0.00000  Uiso   1.00
C1120  C     0.59108   0.45306   0.82731   0.00000  Uiso   1.00
C1121  C     0.88364   0.49932   0.83373   0.00000  Uiso   1.00
C1122  C     0.61636   0.50068   0.83294   0.00000  Uiso   1.00
C1123  C     0.90459   0.45211   0.83273   0.00000  Uiso   1.00
C1124  C     0.59541   0.54789   0.83394   0.00000  Uiso   1.00
C1125  C     0.95095   0.45151   0.82747   0.00000  Uiso   1.00
C1126  C     0.54905   0.54849   0.83919   0.00000  Uiso   1.00
C1127  C     0.97659   0.49979   0.83364   0.00000  Uiso   1.00
C1128  C     0.52341   0.50022   0.83302   0.00000  Uiso   1.00
C1129  C     0.95553   0.54773   0.84123   0.00000  Uiso   1.00
C1130  C     0.54447   0.45227   0.82542   0.00000  Uiso   1.00
C1131  C     0.97215   0.40397   0.81663   0.00000  Uiso   1.00
C1132  C     0.52785   0.59603   0.85003   0.00000  Uiso   1.00
Cu1133 Cu    0.75501   0.50579   0.89479   0.00000  Uiso   1.00
Cu1134 Cu    0.74500   0.49421   0.77187   0.00000  Uiso   1.00
H1135  H     0.89234   0.58344   0.84387   0.00000  Uiso   1.00
H1136  H     0.60766   0.41656   0.82279   0.00000  Uiso   1.00
H1137  H     0.95272   0.36645   0.80804   0.00000  Uiso   1.00
H1138  H     0.54728   0.63355   0.85861   0.00000  Uiso   1.00
H1139  H     0.53429   0.36734   0.80750   0.00000  Uiso   1.00
H1140  H     0.96571   0.63266   0.85915   0.00000  Uiso   1.00
H1141  H     0.75040   0.65438   0.76309   0.00000  Uiso   1.00
H1142  H     0.74960   0.34562   0.90358   0.00000  Uiso   1.00
N1143  N     0.73745   0.48547   0.67951   0.00000  Uiso   1.00
N1144  N     0.76256   0.51453   0.98716   0.00000  Uiso   1.00
O1145  O     0.75326   0.42871   0.87326   0.00000  Uiso   1.00
O1146  O     0.74675   0.57129   0.79341   0.00000  Uiso   1.00
O1147  O     0.74480   0.41892   0.76945   0.00000  Uiso   1.00
O1148  O     0.75520   0.58108   0.89721   0.00000  Uiso   1.00
O1149  O     0.68936   0.50488   0.88524   0.00000  Uiso   1.00
O1150  O     0.81065   0.49512   0.78143   0.00000  Uiso   1.00
O1151  O     0.68090   0.49510   0.78143   0.00000  Uiso   1.00
O1152  O     0.81910   0.50490   0.88523   0.00000  Uiso   1.00
O1153  O     0.87996   0.40811   0.84084   0.00000  Uiso   1.00
C1154  C     0.89106   0.40299   0.90193   0.00000  Uiso   1.00
H1155  H     0.89288   0.44168   0.93571   0.00000  Uiso   1.00
H1156  H     0.92387   0.38528   0.90652   0.00000  Uiso   1.00
C1157  C     0.85559   0.36695   0.91924   0.00000  Uiso   1.00
H1158  H     0.84960   0.66269   0.88419   0.00000  Uiso   1.00
H1159  H     0.86692   0.35808   0.96415   0.00000  Uiso   1.00
H1160  H     0.82400   0.38716   0.92341   0.00000  Uiso   1.00
O1161  O     0.62004   0.59189   0.82582   0.00000  Uiso   1.00
C1162  C     0.60895   0.59700   0.76473   0.00000  Uiso   1.00
H1163  H     0.57613   0.61468   0.76012   0.00000  Uiso   1.00
H1164  H     0.60715   0.55831   0.73096   0.00000  Uiso   1.00
C1165  C     0.64441   0.63306   0.74743   0.00000  Uiso   1.00
H1166  H     0.67601   0.61287   0.74326   0.00000  Uiso   1.00
H1167  H     0.63308   0.64192   0.70251   0.00000  Uiso   1.00
H1168  H     0.65038   0.33732   0.78247   0.00000  Uiso   1.00
O1169  O     0.72274   0.43844   0.97622   0.00000  Uiso   1.00
C1170  C     0.67806   0.42739   0.98654   0.00000  Uiso   1.00
H1171  H     0.65758   0.46178   0.98476   0.00000  Uiso   1.00
H1172  H     0.67679   0.41629   0.69780   0.00000  Uiso   1.00
C1173  C     0.65714   0.38061   0.93704   0.00000  Uiso   1.00
H1174  H     0.67365   0.34425   0.94193   0.00000  Uiso   1.00
H1175  H     0.62071   0.37452   0.94113   0.00000  Uiso   1.00
H1176  H     0.66136   0.38796   0.89115   0.00000  Uiso   1.00
O1177  O     0.77726   0.56156   0.69045   0.00000  Uiso   1.00
C1178  C     0.82194   0.57260   0.68013   0.00000  Uiso   1.00
H1179  H     0.82322   0.58370   0.96887   0.00000  Uiso   1.00
H1180  H     0.84242   0.53822   0.68193   0.00000  Uiso   1.00
C1181  C     0.84286   0.61940   0.72963   0.00000  Uiso   1.00
H1182  H     0.83861   0.61206   0.77552   0.00000  Uiso   1.00
H1183  H     0.87929   0.62548   0.72555   0.00000  Uiso   1.00
H1184  H     0.82635   0.65576   0.72472   0.00000  Uiso   1.00
C1185  C     0.24913   0.73339   0.81790   0.00000  Uiso   1.00
C1186  C     0.25087   0.93328   0.84877   0.00000  Uiso   1.00
C1187  C     0.01859   0.73772   0.81593   0.00000  Uiso   1.00
C1188  C     0.48141   0.92894   0.85072   0.00000  Uiso   1.00
C1189  C     0.24999   0.67760   0.80937   0.00000  Uiso   1.00
C1190  C     0.25002   0.98906   0.85729   0.00000  Uiso   1.00
C1191  C     0.16458   0.83343   0.83332   0.00000  Uiso   1.00
C1192  C     0.33542   0.83324   0.83334   0.00000  Uiso   1.00
C1193  C     0.40892   0.88027   0.83935   0.00000  Uiso   1.00
C1194  C     0.09108   0.78639   0.82731   0.00000  Uiso   1.00
C1195  C     0.38364   0.83266   0.83373   0.00000  Uiso   1.00
C1196  C     0.11636   0.83401   0.83294   0.00000  Uiso   1.00
C1197  C     0.40459   0.78544   0.83273   0.00000  Uiso   1.00
C1198  C     0.09541   0.88122   0.83394   0.00000  Uiso   1.00
C1199  C     0.45095   0.78485   0.82747   0.00000  Uiso   1.00
C1200  C     0.04905   0.88182   0.83919   0.00000  Uiso   1.00
C1201  C     0.47659   0.83312   0.83364   0.00000  Uiso   1.00
C1202  C     0.02341   0.83355   0.83302   0.00000  Uiso   1.00
C1203  C     0.45553   0.88106   0.84123   0.00000  Uiso   1.00
C1204  C     0.04447   0.78561   0.82542   0.00000  Uiso   1.00
C1205  C     0.47215   0.73731   0.81663   0.00000  Uiso   1.00
C1206  C     0.02785   0.92936   0.85003   0.00000  Uiso   1.00
Cu1207 Cu    0.25501   0.83913   0.89479   0.00000  Uiso   1.00
Cu1208 Cu    0.24500   0.82754   0.77187   0.00000  Uiso   1.00
H1209  H     0.39234   0.91677   0.84387   0.00000  Uiso   1.00
H1210  H     0.10766   0.74990   0.82279   0.00000  Uiso   1.00
H1211  H     0.45272   0.69978   0.80804   0.00000  Uiso   1.00
H1212  H     0.04728   0.96688   0.85861   0.00000  Uiso   1.00
H1213  H     0.03429   0.70067   0.80750   0.00000  Uiso   1.00
H1214  H     0.46571   0.96599   0.85915   0.00000  Uiso   1.00
H1215  H     0.25040   0.98771   0.76309   0.00000  Uiso   1.00
H1216  H     0.24960   0.67895   0.90358   0.00000  Uiso   1.00
N1217  N     0.23745   0.81881   0.67951   0.00000  Uiso   1.00
N1218  N     0.26256   0.84786   0.98716   0.00000  Uiso   1.00
O1219  O     0.25326   0.76204   0.87326   0.00000  Uiso   1.00
O1220  O     0.24675   0.90462   0.79341   0.00000  Uiso   1.00
O1221  O     0.24480   0.75226   0.76945   0.00000  Uiso   1.00
O1222  O     0.25520   0.91441   0.89721   0.00000  Uiso   1.00
O1223  O     0.18936   0.83821   0.88524   0.00000  Uiso   1.00
O1224  O     0.31065   0.82845   0.78143   0.00000  Uiso   1.00
O1225  O     0.18090   0.82843   0.78143   0.00000  Uiso   1.00
O1226  O     0.31910   0.83824   0.88523   0.00000  Uiso   1.00
O1227  O     0.37996   0.74145   0.84084   0.00000  Uiso   1.00
C1228  C     0.39106   0.73632   0.90193   0.00000  Uiso   1.00
H1229  H     0.39288   0.77502   0.93571   0.00000  Uiso   1.00
H1230  H     0.42387   0.71862   0.90652   0.00000  Uiso   1.00
C1231  C     0.35559   0.70029   0.91924   0.00000  Uiso   1.00
H1232  H     0.34960   0.99603   0.88419   0.00000  Uiso   1.00
H1233  H     0.36692   0.69141   0.96415   0.00000  Uiso   1.00
H1234  H     0.32400   0.72049   0.92341   0.00000  Uiso   1.00
O1235  O     0.12004   0.92522   0.82582   0.00000  Uiso   1.00
C1236  C     0.10895   0.93034   0.76473   0.00000  Uiso   1.00
H1237  H     0.07613   0.94802   0.76012   0.00000  Uiso   1.00
H1238  H     0.10715   0.89164   0.73096   0.00000  Uiso   1.00
C1239  C     0.14441   0.96639   0.74743   0.00000  Uiso   1.00
H1240  H     0.17601   0.94620   0.74326   0.00000  Uiso   1.00
H1241  H     0.13308   0.97526   0.70251   0.00000  Uiso   1.00
H1242  H     0.15038   0.67065   0.78247   0.00000  Uiso   1.00
O1243  O     0.22274   0.77178   0.97622   0.00000  Uiso   1.00
C1244  C     0.17806   0.76073   0.98654   0.00000  Uiso   1.00
H1245  H     0.15758   0.79511   0.98476   0.00000  Uiso   1.00
H1246  H     0.17679   0.74963   0.69780   0.00000  Uiso   1.00
C1247  C     0.15714   0.71394   0.93704   0.00000  Uiso   1.00
H1248  H     0.17365   0.67758   0.94193   0.00000  Uiso   1.00
H1249  H     0.12071   0.70785   0.94113   0.00000  Uiso   1.00
H1250  H     0.16136   0.72129   0.89115   0.00000  Uiso   1.00
O1251  O     0.27726   0.89489   0.69045   0.00000  Uiso   1.00
C1252  C     0.32194   0.90594   0.68013   0.00000  Uiso   1.00
H1253  H     0.32322   0.91703   0.96887   0.00000  Uiso   1.00
H1254  H     0.34242   0.87156   0.68193   0.00000  Uiso   1.00
C1255  C     0.34286   0.95273   0.72963   0.00000  Uiso   1.00
H1256  H     0.33861   0.94540   0.77552   0.00000  Uiso   1.00
H1257  H     0.37929   0.95881   0.72555   0.00000  Uiso   1.00
H1258  H     0.32635   0.98910   0.72472   0.00000  Uiso   1.00
C1259  C     0.74913   0.73339   0.81790   0.00000  Uiso   1.00
C1260  C     0.75087   0.93328   0.84877   0.00000  Uiso   1.00
C1261  C     0.51859   0.73772   0.81593   0.00000  Uiso   1.00
C1262  C     0.98141   0.92894   0.85072   0.00000  Uiso   1.00
C1263  C     0.74999   0.67760   0.80937   0.00000  Uiso   1.00
C1264  C     0.75002   0.98906   0.85729   0.00000  Uiso   1.00
C1265  C     0.66458   0.83343   0.83332   0.00000  Uiso   1.00
C1266  C     0.83542   0.83324   0.83334   0.00000  Uiso   1.00
C1267  C     0.90892   0.88027   0.83935   0.00000  Uiso   1.00
C1268  C     0.59108   0.78639   0.82731   0.00000  Uiso   1.00
C1269  C     0.88364   0.83266   0.83373   0.00000  Uiso   1.00
C1270  C     0.61636   0.83401   0.83294   0.00000  Uiso   1.00
C1271  C     0.90459   0.78544   0.83273   0.00000  Uiso   1.00
C1272  C     0.59541   0.88122   0.83394   0.00000  Uiso   1.00
C1273  C     0.95095   0.78485   0.82747   0.00000  Uiso   1.00
C1274  C     0.54905   0.88182   0.83919   0.00000  Uiso   1.00
C1275  C     0.97659   0.83312   0.83364   0.00000  Uiso   1.00
C1276  C     0.52341   0.83355   0.83302   0.00000  Uiso   1.00
C1277  C     0.95553   0.88106   0.84123   0.00000  Uiso   1.00
C1278  C     0.54447   0.78561   0.82542   0.00000  Uiso   1.00
C1279  C     0.97215   0.73731   0.81663   0.00000  Uiso   1.00
C1280  C     0.52785   0.92936   0.85003   0.00000  Uiso   1.00
Cu1281 Cu    0.75501   0.83913   0.89479   0.00000  Uiso   1.00
Cu1282 Cu    0.74500   0.82754   0.77187   0.00000  Uiso   1.00
H1283  H     0.89234   0.91677   0.84387   0.00000  Uiso   1.00
H1284  H     0.60766   0.74990   0.82279   0.00000  Uiso   1.00
H1285  H     0.95272   0.69978   0.80804   0.00000  Uiso   1.00
H1286  H     0.54728   0.96688   0.85861   0.00000  Uiso   1.00
H1287  H     0.53429   0.70067   0.80750   0.00000  Uiso   1.00
H1288  H     0.96571   0.96599   0.85915   0.00000  Uiso   1.00
H1289  H     0.75040   0.98771   0.76309   0.00000  Uiso   1.00
H1290  H     0.74960   0.67895   0.90358   0.00000  Uiso   1.00
N1291  N     0.73745   0.81881   0.67951   0.00000  Uiso   1.00
N1292  N     0.76256   0.84786   0.98716   0.00000  Uiso   1.00
O1293  O     0.75326   0.76204   0.87326   0.00000  Uiso   1.00
O1294  O     0.74675   0.90462   0.79341   0.00000  Uiso   1.00
O1295  O     0.74480   0.75226   0.76945   0.00000  Uiso   1.00
O1296  O     0.75520   0.91441   0.89721   0.00000  Uiso   1.00
O1297  O     0.68936   0.83821   0.88524   0.00000  Uiso   1.00
O1298  O     0.81065   0.82845   0.78143   0.00000  Uiso   1.00
O1299  O     0.68090   0.82843   0.78143   0.00000  Uiso   1.00
O1300  O     0.81910   0.83824   0.88523   0.00000  Uiso   1.00
O1301  O     0.87996   0.74145   0.84084   0.00000  Uiso   1.00
C1302  C     0.89106   0.73632   0.90193   0.00000  Uiso   1.00
H1303  H     0.89288   0.77502   0.93571   0.00000  Uiso   1.00
H1304  H     0.92387   0.71862   0.90652   0.00000  Uiso   1.00
C1305  C     0.85559   0.70029   0.91924   0.00000  Uiso   1.00
H1306  H     0.84960   0.99603   0.88419   0.00000  Uiso   1.00
H1307  H     0.86692   0.69141   0.96415   0.00000  Uiso   1.00
H1308  H     0.82400   0.72049   0.92341   0.00000  Uiso   1.00
O1309  O     0.62004   0.92522   0.82582   0.00000  Uiso   1.00
C1310  C     0.60895   0.93034   0.76473   0.00000  Uiso   1.00
H1311  H     0.57613   0.94802   0.76012   0.00000  Uiso   1.00
H1312  H     0.60715   0.89164   0.73096   0.00000  Uiso   1.00
C1313  C     0.64441   0.96639   0.74743   0.00000  Uiso   1.00
H1314  H     0.67601   0.94620   0.74326   0.00000  Uiso   1.00
H1315  H     0.63308   0.97526   0.70251   0.00000  Uiso   1.00
H1316  H     0.65038   0.67065   0.78247   0.00000  Uiso   1.00
O1317  O     0.72274   0.77178   0.97622   0.00000  Uiso   1.00
C1318  C     0.67806   0.76073   0.98654   0.00000  Uiso   1.00
H1319  H     0.65758   0.79511   0.98476   0.00000  Uiso   1.00
H1320  H     0.67679   0.74963   0.69780   0.00000  Uiso   1.00
C1321  C     0.65714   0.71394   0.93704   0.00000  Uiso   1.00
H1322  H     0.67365   0.67758   0.94193   0.00000  Uiso   1.00
H1323  H     0.62071   0.70785   0.94113   0.00000  Uiso   1.00
H1324  H     0.66136   0.72129   0.89115   0.00000  Uiso   1.00
O1325  O     0.77726   0.89489   0.69045   0.00000  Uiso   1.00
C1326  C     0.82194   0.90594   0.68013   0.00000  Uiso   1.00
H1327  H     0.82322   0.91703   0.96887   0.00000  Uiso   1.00
H1328  H     0.84242   0.87156   0.68193   0.00000  Uiso   1.00
C1329  C     0.84286   0.95273   0.72963   0.00000  Uiso   1.00
H1330  H     0.83861   0.94540   0.77552   0.00000  Uiso   1.00
H1331  H     0.87929   0.95881   0.72555   0.00000  Uiso   1.00
H1332  H     0.82635   0.98910   0.72472   0.00000  Uiso   1.00
loop_
_geom_bond_atom_site_label_1
_geom_bond_atom_site_label_2
_geom_bond_distance
_geom_bond_site_symmetry_2
_ccdc_geom_bond_type
C1     O37     1.288   .     A
C1     C5      1.424   .     S
C1     O35     1.296   .     A
C2     O38     1.288   .     A
C2     C6      1.424   .     S
C2     O36     1.296   .     A
C3     C20     1.399   .     A
C3     H29     1.081   .     S
C3     C95     1.393   1_455 S
C4     C19     1.399   .     A
C4     H30     1.081   .     S
C4     C96     1.393   .     S
C5     C302    1.325   1_545 S
C5     H327    1.086   1_545 S
C6     C153    1.325   .     S
C6     H180    1.086   .     S
C7     C12     1.444   .     S
C7     O39     1.300   .     A
C7     O41     1.293   .     A
C8     C11     1.444   .     S
C8     O40     1.300   .     A
C8     O42     1.293   .     A
C9     H25     1.083   .     S
C9     C11     1.395   .     A
C9     C19     1.392   .     A
C10    C20     1.392   .     A
C10    H26     1.083   .     S
C10    C12     1.395   .     A
C11    C13     1.404   .     A
C12    C14     1.404   .     A
C13    C15     1.406   .     A
C13    O43     1.387   .     S
C14    O51     1.387   .     S
C14    C16     1.406   .     A
C15    C21     1.403   .     A
C15    C17     1.413   .     A
C16    C18     1.413   .     A
C16    C22     1.403   .     A
C17    C19     1.411   .     A
C17    C92     1.404   .     S
C18    C20     1.410   .     A
C18    C91     1.404   1_455 S
C21    H27     1.081   .     S
C21    C77     1.393   .     S
C22    H28     1.081   .     S
C22    C78     1.393   1_455 S
Cu23   O38     1.948   .     S
Cu23   O35     1.955   .     S
Cu23   N34     2.031   .     S
Cu23   O42     1.954   .     S
Cu23   O39     1.956   .     S
Cu23   Cu24    2.703   .     S
Cu24   O37     1.948   .     S
Cu24   O41     1.954   .     S
Cu24   O36     1.955   .     S
Cu24   O40     1.956   .     S
Cu24   N33     2.031   .     S
H31    C153    1.086   .     S
H32    C302    1.086   1_545 S
N33    N922    1.301   1_554 S
N33    O947    1.345   1_554 S
N34    N477    1.301   .     S
N34    O511    1.345   .     S
O43    C44     1.419   .     S
C44    C47     1.518   .     S
C44    H45     1.117   .     S
C44    H46     1.111   .     S
C47    H50     1.107   .     S
C47    H49     1.111   .     S
C47    H344    1.109   1_545 S
H48    C195    1.109   .     S
O51    C52     1.419   .     S
C52    C55     1.518   .     S
C52    H53     1.111   .     S
C52    H54     1.117   .     S
C55    H56     1.107   .     S
C55    H57     1.111   .     S
C55    H206    1.109   .     S
H58    C351    1.109   1_545 S
O59    C60     1.407   .     S
O59    N477    1.345   .     S
C60    C63     1.521   .     S
C60    H61     1.115   .     S
C60    H506    1.107   .     S
H62    C948    1.107   1_554 S
C63    H64     1.111   .     S
C63    H65     1.111   .     S
C63    H66     1.109   .     S
O67    C68     1.407   .     S
O67    N922    1.345   1_554 S
C68    C71     1.521   .     S
C68    H70     1.115   .     S
C68    H957    1.107   1_554 S
H69    C512    1.107   .     S
C71    H74     1.111   .     S
C71    H72     1.109   .     S
C71    H73     1.111   .     S
C75    O111    1.288   .     A
C75    C79     1.424   .     S
C75    O109    1.296   .     A
C76    O112    1.288   .     A
C76    C80     1.424   .     S
C76    O110    1.296   .     A
C77    C94     1.399   .     A
C77    H103    1.081   .     S
C78    C93     1.399   .     A
C78    H104    1.081   .     S
C78    C22     1.393   1_655 S
C79    C376    1.325   1_545 S
C79    H401    1.086   1_545 S
C80    C227    1.325   .     S
C80    H254    1.086   .     S
C81    C86     1.444   .     S
C81    O113    1.300   .     A
C81    O115    1.293   .     A
C82    C85     1.444   .     S
C82    O114    1.300   .     A
C82    O116    1.293   .     A
C83    H99     1.083   .     S
C83    C85     1.395   .     A
C83    C93     1.392   .     A
C84    C94     1.392   .     A
C84    H100    1.083   .     S
C84    C86     1.395   .     A
C85    C87     1.404   .     A
C86    C88     1.404   .     A
C87    C89     1.406   .     A
C87    O117    1.387   .     S
C88    O125    1.387   .     S
C88    C90     1.406   .     A
C89    C95     1.403   .     A
C89    C91     1.413   .     A
C90    C92     1.413   .     A
C90    C96     1.403   .     A
C91    C93     1.411   .     A
C91    C18     1.404   1_655 S
C92    C94     1.410   .     A
C95    H101    1.081   .     S
C95    C3      1.393   1_655 S
C96    H102    1.081   .     S
Cu97   O112    1.948   .     S
Cu97   O109    1.955   .     S
Cu97   N108    2.031   .     S
Cu97   O116    1.954   .     S
Cu97   O113    1.956   .     S
Cu97   Cu98    2.703   .     S
Cu98   O111    1.948   .     S
Cu98   O115    1.954   .     S
Cu98   O110    1.955   .     S
Cu98   O114    1.956   .     S
Cu98   N107    2.031   .     S
H105   C227    1.086   .     S
H106   C376    1.086   1_545 S
N107   N996    1.301   1_554 S
N107   O1021   1.345   1_554 S
N108   N551    1.301   .     S
N108   O585    1.345   .     S
O117   C118    1.419   .     S
C118   C121    1.518   .     S
C118   H119    1.117   .     S
C118   H120    1.111   .     S
C121   H124    1.107   .     S
C121   H123    1.111   .     S
C121   H418    1.109   1_545 S
H122   C269    1.109   .     S
O125   C126    1.419   .     S
C126   C129    1.518   .     S
C126   H127    1.111   .     S
C126   H128    1.117   .     S
C129   H130    1.107   .     S
C129   H131    1.111   .     S
C129   H280    1.109   .     S
H132   C425    1.109   1_545 S
O133   C134    1.407   .     S
O133   N551    1.345   .     S
C134   C137    1.521   .     S
C134   H135    1.115   .     S
C134   H580    1.107   .     S
H136   C1022   1.107   1_554 S
C137   H138    1.111   .     S
C137   H139    1.111   .     S
C137   H140    1.109   .     S
O141   C142    1.407   .     S
O141   N996    1.345   1_554 S
C142   C145    1.521   .     S
C142   H144    1.115   .     S
C142   H1031   1.107   1_554 S
H143   C586    1.107   .     S
C145   H148    1.111   .     S
C145   H146    1.109   .     S
C145   H147    1.111   .     S
C149   O185    1.288   .     A
C149   C153    1.424   .     S
C149   O183    1.296   .     A
C150   O186    1.288   .     A
C150   C154    1.424   .     S
C150   O184    1.296   .     A
C151   C168    1.399   .     A
C151   H177    1.081   .     S
C151   C243    1.393   1_455 S
C152   C167    1.399   .     A
C152   H178    1.081   .     S
C152   C244    1.393   .     S
C154   C301    1.325   .     S
C154   H328    1.086   .     S
C155   C160    1.444   .     S
C155   O187    1.300   .     A
C155   O189    1.293   .     A
C156   C159    1.444   .     S
C156   O188    1.300   .     A
C156   O190    1.293   .     A
C157   H173    1.083   .     S
C157   C159    1.395   .     A
C157   C167    1.392   .     A
C158   C168    1.392   .     A
C158   H174    1.083   .     S
C158   C160    1.395   .     A
C159   C161    1.404   .     A
C160   C162    1.404   .     A
C161   C163    1.406   .     A
C161   O191    1.387   .     S
C162   O199    1.387   .     S
C162   C164    1.406   .     A
C163   C169    1.403   .     A
C163   C165    1.413   .     A
C164   C166    1.413   .     A
C164   C170    1.403   .     A
C165   C167    1.411   .     A
C165   C240    1.404   .     S
C166   C168    1.410   .     A
C166   C239    1.404   1_455 S
C169   H175    1.081   .     S
C169   C225    1.393   .     S
C170   H176    1.081   .     S
C170   C226    1.393   1_455 S
Cu171  O186    1.948   .     S
Cu171  O183    1.955   .     S
Cu171  N182    2.031   .     S
Cu171  O190    1.954   .     S
Cu171  O187    1.956   .     S
Cu171  Cu172   2.703   .     S
Cu172  O185    1.948   .     S
Cu172  O189    1.954   .     S
Cu172  O184    1.955   .     S
Cu172  O188    1.956   .     S
Cu172  N181    2.031   .     S
H179   C301    1.086   .     S
N181   N1070   1.301   1_554 S
N181   O1095   1.345   1_554 S
N182   N625    1.301   .     S
N182   O659    1.345   .     S
O191   C192    1.419   .     S
C192   C195    1.518   .     S
C192   H193    1.117   .     S
C192   H194    1.111   .     S
C195   H198    1.107   .     S
C195   H197    1.111   .     S
H196   C343    1.109   .     S
O199   C200    1.419   .     S
C200   C203    1.518   .     S
C200   H201    1.111   .     S
C200   H202    1.117   .     S
C203   H204    1.107   .     S
C203   H205    1.111   .     S
C203   H354    1.109   .     S
O207   C208    1.407   .     S
O207   N625    1.345   .     S
C208   C211    1.521   .     S
C208   H209    1.115   .     S
C208   H654    1.107   .     S
H210   C1096   1.107   1_554 S
C211   H212    1.111   .     S
C211   H213    1.111   .     S
C211   H214    1.109   .     S
O215   C216    1.407   .     S
O215   N1070   1.345   1_554 S
C216   C219    1.521   .     S
C216   H218    1.115   .     S
C216   H1105   1.107   1_554 S
H217   C660    1.107   .     S
C219   H222    1.111   .     S
C219   H220    1.109   .     S
C219   H221    1.111   .     S
C223   O259    1.288   .     A
C223   C227    1.424   .     S
C223   O257    1.296   .     A
C224   O260    1.288   .     A
C224   C228    1.424   .     S
C224   O258    1.296   .     A
C225   C242    1.399   .     A
C225   H251    1.081   .     S
C226   C241    1.399   .     A
C226   H252    1.081   .     S
C226   C170    1.393   1_655 S
C228   C375    1.325   .     S
C228   H402    1.086   .     S
C229   C234    1.444   .     S
C229   O261    1.300   .     A
C229   O263    1.293   .     A
C230   C233    1.444   .     S
C230   O262    1.300   .     A
C230   O264    1.293   .     A
C231   H247    1.083   .     S
C231   C233    1.395   .     A
C231   C241    1.392   .     A
C232   C242    1.392   .     A
C232   H248    1.083   .     S
C232   C234    1.395   .     A
C233   C235    1.404   .     A
C234   C236    1.404   .     A
C235   C237    1.406   .     A
C235   O265    1.387   .     S
C236   O273    1.387   .     S
C236   C238    1.406   .     A
C237   C243    1.403   .     A
C237   C239    1.413   .     A
C238   C240    1.413   .     A
C238   C244    1.403   .     A
C239   C241    1.411   .     A
C239   C166    1.404   1_655 S
C240   C242    1.410   .     A
C243   H249    1.081   .     S
C243   C151    1.393   1_655 S
C244   H250    1.081   .     S
Cu245  O260    1.948   .     S
Cu245  O257    1.955   .     S
Cu245  N256    2.031   .     S
Cu245  O264    1.954   .     S
Cu245  O261    1.956   .     S
Cu245  Cu246   2.703   .     S
Cu246  O259    1.948   .     S
Cu246  O263    1.954   .     S
Cu246  O258    1.955   .     S
Cu246  O262    1.956   .     S
Cu246  N255    2.031   .     S
H253   C375    1.086   .     S
N255   N1144   1.301   1_554 S
N255   O1169   1.345   1_554 S
N256   N699    1.301   .     S
N256   O733    1.345   .     S
O265   C266    1.419   .     S
C266   C269    1.518   .     S
C266   H267    1.117   .     S
C266   H268    1.111   .     S
C269   H272    1.107   .     S
C269   H271    1.111   .     S
H270   C417    1.109   .     S
O273   C274    1.419   .     S
C274   C277    1.518   .     S
C274   H275    1.111   .     S
C274   H276    1.117   .     S
C277   H278    1.107   .     S
C277   H279    1.111   .     S
C277   H428    1.109   .     S
O281   C282    1.407   .     S
O281   N699    1.345   .     S
C282   C285    1.521   .     S
C282   H283    1.115   .     S
C282   H728    1.107   .     S
H284   C1170   1.107   1_554 S
C285   H286    1.111   .     S
C285   H287    1.111   .     S
C285   H288    1.109   .     S
O289   C290    1.407   .     S
O289   N1144   1.345   1_554 S
C290   C293    1.521   .     S
C290   H292    1.115   .     S
C290   H1179   1.107   1_554 S
H291   C734    1.107   .     S
C293   H296    1.111   .     S
C293   H294    1.109   .     S
C293   H295    1.111   .     S
C297   O333    1.288   .     A
C297   C301    1.424   .     S
C297   O331    1.296   .     A
C298   O334    1.288   .     A
C298   C302    1.424   .     S
C298   O332    1.296   .     A
C299   C316    1.399   .     A
C299   H325    1.081   .     S
C299   C391    1.393   1_455 S
C300   C315    1.399   .     A
C300   H326    1.081   .     S
C300   C392    1.393   .     S
C302   C5      1.325   1_565 S
C302   H32     1.086   1_565 S
C303   C308    1.444   .     S
C303   O335    1.300   .     A
C303   O337    1.293   .     A
C304   C307    1.444   .     S
C304   O336    1.300   .     A
C304   O338    1.293   .     A
C305   H321    1.083   .     S
C305   C307    1.395   .     A
C305   C315    1.392   .     A
C306   C316    1.392   .     A
C306   H322    1.083   .     S
C306   C308    1.395   .     A
C307   C309    1.404   .     A
C308   C310    1.404   .     A
C309   C311    1.406   .     A
C309   O339    1.387   .     S
C310   O347    1.387   .     S
C310   C312    1.406   .     A
C311   C317    1.403   .     A
C311   C313    1.413   .     A
C312   C314    1.413   .     A
C312   C318    1.403   .     A
C313   C315    1.411   .     A
C313   C388    1.404   .     S
C314   C316    1.410   .     A
C314   C387    1.404   1_455 S
C317   H323    1.081   .     S
C317   C373    1.393   .     S
C318   H324    1.081   .     S
C318   C374    1.393   1_455 S
Cu319  O334    1.948   .     S
Cu319  O331    1.955   .     S
Cu319  N330    2.031   .     S
Cu319  O338    1.954   .     S
Cu319  O335    1.956   .     S
Cu319  Cu320   2.703   .     S
Cu320  O333    1.948   .     S
Cu320  O337    1.954   .     S
Cu320  O332    1.955   .     S
Cu320  O336    1.956   .     S
Cu320  N329    2.031   .     S
H327   C5      1.086   1_565 S
N329   N1218   1.301   1_554 S
N329   O1243   1.345   1_554 S
N330   N773    1.301   .     S
N330   O807    1.345   .     S
O339   C340    1.419   .     S
C340   C343    1.518   .     S
C340   H341    1.117   .     S
C340   H342    1.111   .     S
C343   H346    1.107   .     S
C343   H345    1.111   .     S
H344   C47     1.109   1_565 S
O347   C348    1.419   .     S
C348   C351    1.518   .     S
C348   H349    1.111   .     S
C348   H350    1.117   .     S
C351   H352    1.107   .     S
C351   H353    1.111   .     S
C351   H58     1.109   1_565 S
O355   C356    1.407   .     S
O355   N773    1.345   .     S
C356   C359    1.521   .     S
C356   H357    1.115   .     S
C356   H802    1.107   .     S
H358   C1244   1.107   1_554 S
C359   H360    1.111   .     S
C359   H361    1.111   .     S
C359   H362    1.109   .     S
O363   C364    1.407   .     S
O363   N1218   1.345   1_554 S
C364   C367    1.521   .     S
C364   H366    1.115   .     S
C364   H1253   1.107   1_554 S
H365   C808    1.107   .     S
C367   H370    1.111   .     S
C367   H368    1.109   .     S
C367   H369    1.111   .     S
C371   O407    1.288   .     A
C371   C375    1.424   .     S
C371   O405    1.296   .     A
C372   O408    1.288   .     A
C372   C376    1.424   .     S
C372   O406    1.296   .     A
C373   C390    1.399   .     A
C373   H399    1.081   .     S
C374   C389    1.399   .     A
C374   H400    1.081   .     S
C374   C318    1.393   1_655 S
C376   C79     1.325   1_565 S
C376   H106    1.086   1_565 S
C377   C382    1.444   .     S
C377   O409    1.300   .     A
C377   O411    1.293   .     A
C378   C381    1.444   .     S
C378   O410    1.300   .     A
C378   O412    1.293   .     A
C379   H395    1.083   .     S
C379   C381    1.395   .     A
C379   C389    1.392   .     A
C380   C390    1.392   .     A
C380   H396    1.083   .     S
C380   C382    1.395   .     A
C381   C383    1.404   .     A
C382   C384    1.404   .     A
C383   C385    1.406   .     A
C383   O413    1.387   .     S
C384   O421    1.387   .     S
C384   C386    1.406   .     A
C385   C391    1.403   .     A
C385   C387    1.413   .     A
C386   C388    1.413   .     A
C386   C392    1.403   .     A
C387   C389    1.411   .     A
C387   C314    1.404   1_655 S
C388   C390    1.410   .     A
C391   H397    1.081   .     S
C391   C299    1.393   1_655 S
C392   H398    1.081   .     S
Cu393  O408    1.948   .     S
Cu393  O405    1.955   .     S
Cu393  N404    2.031   .     S
Cu393  O412    1.954   .     S
Cu393  O409    1.956   .     S
Cu393  Cu394   2.703   .     S
Cu394  O407    1.948   .     S
Cu394  O411    1.954   .     S
Cu394  O406    1.955   .     S
Cu394  O410    1.956   .     S
Cu394  N403    2.031   .     S
H401   C79     1.086   1_565 S
N403   N1292   1.301   1_554 S
N403   O1317   1.345   1_554 S
N404   N847    1.301   .     S
N404   O881    1.345   .     S
O413   C414    1.419   .     S
C414   C417    1.518   .     S
C414   H415    1.117   .     S
C414   H416    1.111   .     S
C417   H420    1.107   .     S
C417   H419    1.111   .     S
H418   C121    1.109   1_565 S
O421   C422    1.419   .     S
C422   C425    1.518   .     S
C422   H423    1.111   .     S
C422   H424    1.117   .     S
C425   H426    1.107   .     S
C425   H427    1.111   .     S
C425   H132    1.109   1_565 S
O429   C430    1.407   .     S
O429   N847    1.345   .     S
C430   C433    1.521   .     S
C430   H431    1.115   .     S
C430   H876    1.107   .     S
H432   C1318   1.107   1_554 S
C433   H434    1.111   .     S
C433   H435    1.111   .     S
C433   H436    1.109   .     S
O437   C438    1.407   .     S
O437   N1292   1.345   1_554 S
C438   C441    1.521   .     S
C438   H440    1.115   .     S
C438   H1327   1.107   1_554 S
H439   C882    1.107   .     S
C441   H444    1.111   .     S
C441   H442    1.109   .     S
C441   H443    1.111   .     S
C445   O481    1.288   .     A
C445   C449    1.424   .     S
C445   O479    1.296   .     A
C446   O482    1.288   .     A
C446   C450    1.424   .     S
C446   O480    1.296   .     A
C447   C464    1.399   .     A
C447   H473    1.081   .     S
C447   C539    1.393   1_455 S
C448   C463    1.399   .     A
C448   H474    1.081   .     S
C448   C540    1.393   .     S
C449   C746    1.325   1_545 S
C449   H771    1.086   1_545 S
C450   C597    1.325   .     S
C450   H624    1.086   .     S
C451   C456    1.444   .     S
C451   O483    1.300   .     A
C451   O485    1.293   .     A
C452   C455    1.444   .     S
C452   O484    1.300   .     A
C452   O486    1.293   .     A
C453   H469    1.083   .     S
C453   C455    1.395   .     A
C453   C463    1.392   .     A
C454   C464    1.392   .     A
C454   H470    1.083   .     S
C454   C456    1.395   .     A
C455   C457    1.404   .     A
C456   C458    1.404   .     A
C457   C459    1.406   .     A
C457   O487    1.387   .     S
C458   O495    1.387   .     S
C458   C460    1.406   .     A
C459   C465    1.403   .     A
C459   C461    1.413   .     A
C460   C462    1.413   .     A
C460   C466    1.403   .     A
C461   C463    1.411   .     A
C461   C536    1.404   .     S
C462   C464    1.410   .     A
C462   C535    1.404   1_455 S
C465   H471    1.081   .     S
C465   C521    1.393   .     S
C466   H472    1.081   .     S
C466   C522    1.393   1_455 S
Cu467  O482    1.948   .     S
Cu467  O479    1.955   .     S
Cu467  N478    2.031   .     S
Cu467  O486    1.954   .     S
Cu467  O483    1.956   .     S
Cu467  Cu468   2.703   .     S
Cu468  O481    1.948   .     S
Cu468  O485    1.954   .     S
Cu468  O480    1.955   .     S
Cu468  O484    1.956   .     S
Cu468  N477    2.031   .     S
H475   C597    1.086   .     S
H476   C746    1.086   1_545 S
N478   N921    1.301   .     S
N478   O955    1.345   .     S
O487   C488    1.419   .     S
C488   C491    1.518   .     S
C488   H489    1.117   .     S
C488   H490    1.111   .     S
C491   H494    1.107   .     S
C491   H493    1.111   .     S
C491   H788    1.109   1_545 S
H492   C639    1.109   .     S
O495   C496    1.419   .     S
C496   C499    1.518   .     S
C496   H497    1.111   .     S
C496   H498    1.117   .     S
C499   H500    1.107   .     S
C499   H501    1.111   .     S
C499   H650    1.109   .     S
H502   C795    1.109   1_545 S
O503   C504    1.407   .     S
O503   N921    1.345   .     S
C504   C507    1.521   .     S
C504   H505    1.115   .     S
C504   H950    1.107   .     S
C507   H508    1.111   .     S
C507   H509    1.111   .     S
C507   H510    1.109   .     S
O511   C512    1.407   .     S
C512   C515    1.521   .     S
C512   H514    1.115   .     S
H513   C956    1.107   .     S
C515   H518    1.111   .     S
C515   H516    1.109   .     S
C515   H517    1.111   .     S
C519   O555    1.288   .     A
C519   C523    1.424   .     S
C519   O553    1.296   .     A
C520   O556    1.288   .     A
C520   C524    1.424   .     S
C520   O554    1.296   .     A
C521   C538    1.399   .     A
C521   H547    1.081   .     S
C522   C537    1.399   .     A
C522   H548    1.081   .     S
C522   C466    1.393   1_655 S
C523   C820    1.325   1_545 S
C523   H845    1.086   1_545 S
C524   C671    1.325   .     S
C524   H698    1.086   .     S
C525   C530    1.444   .     S
C525   O557    1.300   .     A
C525   O559    1.293   .     A
C526   C529    1.444   .     S
C526   O558    1.300   .     A
C526   O560    1.293   .     A
C527   H543    1.083   .     S
C527   C529    1.395   .     A
C527   C537    1.392   .     A
C528   C538    1.392   .     A
C528   H544    1.083   .     S
C528   C530    1.395   .     A
C529   C531    1.404   .     A
C530   C532    1.404   .     A
C531   C533    1.406   .     A
C531   O561    1.387   .     S
C532   O569    1.387   .     S
C532   C534    1.406   .     A
C533   C539    1.403   .     A
C533   C535    1.413   .     A
C534   C536    1.413   .     A
C534   C540    1.403   .     A
C535   C537    1.411   .     A
C535   C462    1.404   1_655 S
C536   C538    1.410   .     A
C539   H545    1.081   .     S
C539   C447    1.393   1_655 S
C540   H546    1.081   .     S
Cu541  O556    1.948   .     S
Cu541  O553    1.955   .     S
Cu541  N552    2.031   .     S
Cu541  O560    1.954   .     S
Cu541  O557    1.956   .     S
Cu541  Cu542   2.703   .     S
Cu542  O555    1.948   .     S
Cu542  O559    1.954   .     S
Cu542  O554    1.955   .     S
Cu542  O558    1.956   .     S
Cu542  N551    2.031   .     S
H549   C671    1.086   .     S
H550   C820    1.086   1_545 S
N552   N995    1.301   .     S
N552   O1029   1.345   .     S
O561   C562    1.419   .     S
C562   C565    1.518   .     S
C562   H563    1.117   .     S
C562   H564    1.111   .     S
C565   H568    1.107   .     S
C565   H567    1.111   .     S
C565   H862    1.109   1_545 S
H566   C713    1.109   .     S
O569   C570    1.419   .     S
C570   C573    1.518   .     S
C570   H571    1.111   .     S
C570   H572    1.117   .     S
C573   H574    1.107   .     S
C573   H575    1.111   .     S
C573   H724    1.109   .     S
H576   C869    1.109   1_545 S
O577   C578    1.407   .     S
O577   N995    1.345   .     S
C578   C581    1.521   .     S
C578   H579    1.115   .     S
C578   H1024   1.107   .     S
C581   H582    1.111   .     S
C581   H583    1.111   .     S
C581   H584    1.109   .     S
O585   C586    1.407   .     S
C586   C589    1.521   .     S
C586   H588    1.115   .     S
H587   C1030   1.107   .     S
C589   H592    1.111   .     S
C589   H590    1.109   .     S
C589   H591    1.111   .     S
C593   O629    1.288   .     A
C593   C597    1.424   .     S
C593   O627    1.296   .     A
C594   O630    1.288   .     A
C594   C598    1.424   .     S
C594   O628    1.296   .     A
C595   C612    1.399   .     A
C595   H621    1.081   .     S
C595   C687    1.393   1_455 S
C596   C611    1.399   .     A
C596   H622    1.081   .     S
C596   C688    1.393   .     S
C598   C745    1.325   .     S
C598   H772    1.086   .     S
C599   C604    1.444   .     S
C599   O631    1.300   .     A
C599   O633    1.293   .     A
C600   C603    1.444   .     S
C600   O632    1.300   .     A
C600   O634    1.293   .     A
C601   H617    1.083   .     S
C601   C603    1.395   .     A
C601   C611    1.392   .     A
C602   C612    1.392   .     A
C602   H618    1.083   .     S
C602   C604    1.395   .     A
C603   C605    1.404   .     A
C604   C606    1.404   .     A
C605   C607    1.406   .     A
C605   O635    1.387   .     S
C606   O643    1.387   .     S
C606   C608    1.406   .     A
C607   C613    1.403   .     A
C607   C609    1.413   .     A
C608   C610    1.413   .     A
C608   C614    1.403   .     A
C609   C611    1.411   .     A
C609   C684    1.404   .     S
C610   C612    1.410   .     A
C610   C683    1.404   1_455 S
C613   H619    1.081   .     S
C613   C669    1.393   .     S
C614   H620    1.081   .     S
C614   C670    1.393   1_455 S
Cu615  O630    1.948   .     S
Cu615  O627    1.955   .     S
Cu615  N626    2.031   .     S
Cu615  O634    1.954   .     S
Cu615  O631    1.956   .     S
Cu615  Cu616   2.703   .     S
Cu616  O629    1.948   .     S
Cu616  O633    1.954   .     S
Cu616  O628    1.955   .     S
Cu616  O632    1.956   .     S
Cu616  N625    2.031   .     S
H623   C745    1.086   .     S
N626   N1069   1.301   .     S
N626   O1103   1.345   .     S
O635   C636    1.419   .     S
C636   C639    1.518   .     S
C636   H637    1.117   .     S
C636   H638    1.111   .     S
C639   H642    1.107   .     S
C639   H641    1.111   .     S
H640   C787    1.109   .     S
O643   C644    1.419   .     S
C644   C647    1.518   .     S
C644   H645    1.111   .     S
C644   H646    1.117   .     S
C647   H648    1.107   .     S
C647   H649    1.111   .     S
C647   H798    1.109   .     S
O651   C652    1.407   .     S
O651   N1069   1.345   .     S
C652   C655    1.521   .     S
C652   H653    1.115   .     S
C652   H1098   1.107   .     S
C655   H656    1.111   .     S
C655   H657    1.111   .     S
C655   H658    1.109   .     S
O659   C660    1.407   .     S
C660   C663    1.521   .     S
C660   H662    1.115   .     S
H661   C1104   1.107   .     S
C663   H666    1.111   .     S
C663   H664    1.109   .     S
C663   H665    1.111   .     S
C667   O703    1.288   .     A
C667   C671    1.424   .     S
C667   O701    1.296   .     A
C668   O704    1.288   .     A
C668   C672    1.424   .     S
C668   O702    1.296   .     A
C669   C686    1.399   .     A
C669   H695    1.081   .     S
C670   C685    1.399   .     A
C670   H696    1.081   .     S
C670   C614    1.393   1_655 S
C672   C819    1.325   .     S
C672   H846    1.086   .     S
C673   C678    1.444   .     S
C673   O705    1.300   .     A
C673   O707    1.293   .     A
C674   C677    1.444   .     S
C674   O706    1.300   .     A
C674   O708    1.293   .     A
C675   H691    1.083   .     S
C675   C677    1.395   .     A
C675   C685    1.392   .     A
C676   C686    1.392   .     A
C676   H692    1.083   .     S
C676   C678    1.395   .     A
C677   C679    1.404   .     A
C678   C680    1.404   .     A
C679   C681    1.406   .     A
C679   O709    1.387   .     S
C680   O717    1.387   .     S
C680   C682    1.406   .     A
C681   C687    1.403   .     A
C681   C683    1.413   .     A
C682   C684    1.413   .     A
C682   C688    1.403   .     A
C683   C685    1.411   .     A
C683   C610    1.404   1_655 S
C684   C686    1.410   .     A
C687   H693    1.081   .     S
C687   C595    1.393   1_655 S
C688   H694    1.081   .     S
Cu689  O704    1.948   .     S
Cu689  O701    1.955   .     S
Cu689  N700    2.031   .     S
Cu689  O708    1.954   .     S
Cu689  O705    1.956   .     S
Cu689  Cu690   2.703   .     S
Cu690  O703    1.948   .     S
Cu690  O707    1.954   .     S
Cu690  O702    1.955   .     S
Cu690  O706    1.956   .     S
Cu690  N699    2.031   .     S
H697   C819    1.086   .     S
N700   N1143   1.301   .     S
N700   O1177   1.345   .     S
O709   C710    1.419   .     S
C710   C713    1.518   .     S
C710   H711    1.117   .     S
C710   H712    1.111   .     S
C713   H716    1.107   .     S
C713   H715    1.111   .     S
H714   C861    1.109   .     S
O717   C718    1.419   .     S
C718   C721    1.518   .     S
C718   H719    1.111   .     S
C718   H720    1.117   .     S
C721   H722    1.107   .     S
C721   H723    1.111   .     S
C721   H872    1.109   .     S
O725   C726    1.407   .     S
O725   N1143   1.345   .     S
C726   C729    1.521   .     S
C726   H727    1.115   .     S
C726   H1172   1.107   .     S
C729   H730    1.111   .     S
C729   H731    1.111   .     S
C729   H732    1.109   .     S
O733   C734    1.407   .     S
C734   C737    1.521   .     S
C734   H736    1.115   .     S
H735   C1178   1.107   .     S
C737   H740    1.111   .     S
C737   H738    1.109   .     S
C737   H739    1.111   .     S
C741   O777    1.288   .     A
C741   C745    1.424   .     S
C741   O775    1.296   .     A
C742   O778    1.288   .     A
C742   C746    1.424   .     S
C742   O776    1.296   .     A
C743   C760    1.399   .     A
C743   H769    1.081   .     S
C743   C835    1.393   1_455 S
C744   C759    1.399   .     A
C744   H770    1.081   .     S
C744   C836    1.393   .     S
C746   C449    1.325   1_565 S
C746   H476    1.086   1_565 S
C747   C752    1.444   .     S
C747   O779    1.300   .     A
C747   O781    1.293   .     A
C748   C751    1.444   .     S
C748   O780    1.300   .     A
C748   O782    1.293   .     A
C749   H765    1.083   .     S
C749   C751    1.395   .     A
C749   C759    1.392   .     A
C750   C760    1.392   .     A
C750   H766    1.083   .     S
C750   C752    1.395   .     A
C751   C753    1.404   .     A
C752   C754    1.404   .     A
C753   C755    1.406   .     A
C753   O783    1.387   .     S
C754   O791    1.387   .     S
C754   C756    1.406   .     A
C755   C761    1.403   .     A
C755   C757    1.413   .     A
C756   C758    1.413   .     A
C756   C762    1.403   .     A
C757   C759    1.411   .     A
C757   C832    1.404   .     S
C758   C760    1.410   .     A
C758   C831    1.404   1_455 S
C761   H767    1.081   .     S
C761   C817    1.393   .     S
C762   H768    1.081   .     S
C762   C818    1.393   1_455 S
Cu763  O778    1.948   .     S
Cu763  O775    1.955   .     S
Cu763  N774    2.031   .     S
Cu763  O782    1.954   .     S
Cu763  O779    1.956   .     S
Cu763  Cu764   2.703   .     S
Cu764  O777    1.948   .     S
Cu764  O781    1.954   .     S
Cu764  O776    1.955   .     S
Cu764  O780    1.956   .     S
Cu764  N773    2.031   .     S
H771   C449    1.086   1_565 S
N774   N1217   1.301   .     S
N774   O1251   1.345   .     S
O783   C784    1.419   .     S
C784   C787    1.518   .     S
C784   H785    1.117   .     S
C784   H786    1.111   .     S
C787   H790    1.107   .     S
C787   H789    1.111   .     S
H788   C491    1.109   1_565 S
O791   C792    1.419   .     S
C792   C795    1.518   .     S
C792   H793    1.111   .     S
C792   H794    1.117   .     S
C795   H796    1.107   .     S
C795   H797    1.111   .     S
C795   H502    1.109   1_565 S
O799   C800    1.407   .     S
O799   N1217   1.345   .     S
C800   C803    1.521   .     S
C800   H801    1.115   .     S
C800   H1246   1.107   .     S
C803   H804    1.111   .     S
C803   H805    1.111   .     S
C803   H806    1.109   .     S
O807   C808    1.407   .     S
C808   C811    1.521   .     S
C808   H810    1.115   .     S
H809   C1252   1.107   .     S
C811   H814    1.111   .     S
C811   H812    1.109   .     S
C811   H813    1.111   .     S
C815   O851    1.288   .     A
C815   C819    1.424   .     S
C815   O849    1.296   .     A
C816   O852    1.288   .     A
C816   C820    1.424   .     S
C816   O850    1.296   .     A
C817   C834    1.399   .     A
C817   H843    1.081   .     S
C818   C833    1.399   .     A
C818   H844    1.081   .     S
C818   C762    1.393   1_655 S
C820   C523    1.325   1_565 S
C820   H550    1.086   1_565 S
C821   C826    1.444   .     S
C821   O853    1.300   .     A
C821   O855    1.293   .     A
C822   C825    1.444   .     S
C822   O854    1.300   .     A
C822   O856    1.293   .     A
C823   H839    1.083   .     S
C823   C825    1.395   .     A
C823   C833    1.392   .     A
C824   C834    1.392   .     A
C824   H840    1.083   .     S
C824   C826    1.395   .     A
C825   C827    1.404   .     A
C826   C828    1.404   .     A
C827   C829    1.406   .     A
C827   O857    1.387   .     S
C828   O865    1.387   .     S
C828   C830    1.406   .     A
C829   C835    1.403   .     A
C829   C831    1.413   .     A
C830   C832    1.413   .     A
C830   C836    1.403   .     A
C831   C833    1.411   .     A
C831   C758    1.404   1_655 S
C832   C834    1.410   .     A
C835   H841    1.081   .     S
C835   C743    1.393   1_655 S
C836   H842    1.081   .     S
Cu837  O852    1.948   .     S
Cu837  O849    1.955   .     S
Cu837  N848    2.031   .     S
Cu837  O856    1.954   .     S
Cu837  O853    1.956   .     S
Cu837  Cu838   2.703   .     S
Cu838  O851    1.948   .     S
Cu838  O855    1.954   .     S
Cu838  O850    1.955   .     S
Cu838  O854    1.956   .     S
Cu838  N847    2.031   .     S
H845   C523    1.086   1_565 S
N848   N1291   1.301   .     S
N848   O1325   1.345   .     S
O857   C858    1.419   .     S
C858   C861    1.518   .     S
C858   H859    1.117   .     S
C858   H860    1.111   .     S
C861   H864    1.107   .     S
C861   H863    1.111   .     S
H862   C565    1.109   1_565 S
O865   C866    1.419   .     S
C866   C869    1.518   .     S
C866   H867    1.111   .     S
C866   H868    1.117   .     S
C869   H870    1.107   .     S
C869   H871    1.111   .     S
C869   H576    1.109   1_565 S
O873   C874    1.407   .     S
O873   N1291   1.345   .     S
C874   C877    1.521   .     S
C874   H875    1.115   .     S
C874   H1320   1.107   .     S
C877   H878    1.111   .     S
C877   H879    1.111   .     S
C877   H880    1.109   .     S
O881   C882    1.407   .     S
C882   C885    1.521   .     S
C882   H884    1.115   .     S
H883   C1326   1.107   .     S
C885   H888    1.111   .     S
C885   H886    1.109   .     S
C885   H887    1.111   .     S
C889   O925    1.288   .     A
C889   C893    1.424   .     S
C889   O923    1.296   .     A
C890   O926    1.288   .     A
C890   C894    1.424   .     S
C890   O924    1.296   .     A
C891   C908    1.399   .     A
C891   H917    1.081   .     S
C891   C983    1.393   1_455 S
C892   C907    1.399   .     A
C892   H918    1.081   .     S
C892   C984    1.393   .     S
C893   C1190   1.325   1_545 S
C893   H1215   1.086   1_545 S
C894   C1041   1.325   .     S
C894   H1068   1.086   .     S
C895   C900    1.444   .     S
C895   O927    1.300   .     A
C895   O929    1.293   .     A
C896   C899    1.444   .     S
C896   O928    1.300   .     A
C896   O930    1.293   .     A
C897   H913    1.083   .     S
C897   C899    1.395   .     A
C897   C907    1.392   .     A
C898   C908    1.392   .     A
C898   H914    1.083   .     S
C898   C900    1.395   .     A
C899   C901    1.404   .     A
C900   C902    1.404   .     A
C901   C903    1.406   .     A
C901   O931    1.387   .     S
C902   O939    1.387   .     S
C902   C904    1.406   .     A
C903   C909    1.403   .     A
C903   C905    1.413   .     A
C904   C906    1.413   .     A
C904   C910    1.403   .     A
C905   C907    1.411   .     A
C905   C980    1.404   .     S
C906   C908    1.410   .     A
C906   C979    1.404   1_455 S
C909   H915    1.081   .     S
C909   C965    1.393   .     S
C910   H916    1.081   .     S
C910   C966    1.393   1_455 S
Cu911  O926    1.948   .     S
Cu911  O923    1.955   .     S
Cu911  N922    2.031   .     S
Cu911  O930    1.954   .     S
Cu911  O927    1.956   .     S
Cu911  Cu912   2.703   .     S
Cu912  O925    1.948   .     S
Cu912  O929    1.954   .     S
Cu912  O924    1.955   .     S
Cu912  O928    1.956   .     S
Cu912  N921    2.031   .     S
H919   C1041   1.086   .     S
H920   C1190   1.086   1_545 S
N922   N33     1.301   1_556 S
N922   O67     1.345   1_556 S
O931   C932    1.419   .     S
C932   C935    1.518   .     S
C932   H933    1.117   .     S
C932   H934    1.111   .     S
C935   H938    1.107   .     S
C935   H937    1.111   .     S
C935   H1232   1.109   1_545 S
H936   C1083   1.109   .     S
O939   C940    1.419   .     S
C940   C943    1.518   .     S
C940   H941    1.111   .     S
C940   H942    1.117   .     S
C943   H944    1.107   .     S
C943   H945    1.111   .     S
C943   H1094   1.109   .     S
H946   C1239   1.109   1_545 S
O947   C948    1.407   .     S
O947   N33     1.345   1_556 S
C948   C951    1.521   .     S
C948   H949    1.115   .     S
C948   H62     1.107   1_556 S
C951   H952    1.111   .     S
C951   H953    1.111   .     S
C951   H954    1.109   .     S
O955   C956    1.407   .     S
C956   C959    1.521   .     S
C956   H958    1.115   .     S
H957   C68     1.107   1_556 S
C959   H962    1.111   .     S
C959   H960    1.109   .     S
C959   H961    1.111   .     S
C963   O999    1.288   .     A
C963   C967    1.424   .     S
C963   O997    1.296   .     A
C964   O1000   1.288   .     A
C964   C968    1.424   .     S
C964   O998    1.296   .     A
C965   C982    1.399   .     A
C965   H991    1.081   .     S
C966   C981    1.399   .     A
C966   H992    1.081   .     S
C966   C910    1.393   1_655 S
C967   C1264   1.325   1_545 S
C967   H1289   1.086   1_545 S
C968   C1115   1.325   .     S
C968   H1142   1.086   .     S
C969   C974    1.444   .     S
C969   O1001   1.300   .     A
C969   O1003   1.293   .     A
C970   C973    1.444   .     S
C970   O1002   1.300   .     A
C970   O1004   1.293   .     A
C971   H987    1.083   .     S
C971   C973    1.395   .     A
C971   C981    1.392   .     A
C972   C982    1.392   .     A
C972   H988    1.083   .     S
C972   C974    1.395   .     A
C973   C975    1.404   .     A
C974   C976    1.404   .     A
C975   C977    1.406   .     A
C975   O1005   1.387   .     S
C976   O1013   1.387   .     S
C976   C978    1.406   .     A
C977   C983    1.403   .     A
C977   C979    1.413   .     A
C978   C980    1.413   .     A
C978   C984    1.403   .     A
C979   C981    1.411   .     A
C979   C906    1.404   1_655 S
C980   C982    1.410   .     A
C983   H989    1.081   .     S
C983   C891    1.393   1_655 S
C984   H990    1.081   .     S
Cu985  O1000   1.948   .     S
Cu985  O997    1.955   .     S
Cu985  N996    2.031   .     S
Cu985  O1004   1.954   .     S
Cu985  O1001   1.956   .     S
Cu985  Cu986   2.703   .     S
Cu986  O999    1.948   .     S
Cu986  O1003   1.954   .     S
Cu986  O998    1.955   .     S
Cu986  O1002   1.956   .     S
Cu986  N995    2.031   .     S
H993   C1115   1.086   .     S
H994   C1264   1.086   1_545 S
N996   N107    1.301   1_556 S
N996   O141    1.345   1_556 S
O1005  C1006   1.419   .     S
C1006  C1009   1.518   .     S
C1006  H1007   1.117   .     S
C1006  H1008   1.111   .     S
C1009  H1012   1.107   .     S
C1009  H1011   1.111   .     S
C1009  H1306   1.109   1_545 S
H1010  C1157   1.109   .     S
O1013  C1014   1.419   .     S
C1014  C1017   1.518   .     S
C1014  H1015   1.111   .     S
C1014  H1016   1.117   .     S
C1017  H1018   1.107   .     S
C1017  H1019   1.111   .     S
C1017  H1168   1.109   .     S
H1020  C1313   1.109   1_545 S
O1021  C1022   1.407   .     S
O1021  N107    1.345   1_556 S
C1022  C1025   1.521   .     S
C1022  H1023   1.115   .     S
C1022  H136    1.107   1_556 S
C1025  H1026   1.111   .     S
C1025  H1027   1.111   .     S
C1025  H1028   1.109   .     S
O1029  C1030   1.407   .     S
C1030  C1033   1.521   .     S
C1030  H1032   1.115   .     S
H1031  C142    1.107   1_556 S
C1033  H1036   1.111   .     S
C1033  H1034   1.109   .     S
C1033  H1035   1.111   .     S
C1037  O1073   1.288   .     A
C1037  C1041   1.424   .     S
C1037  O1071   1.296   .     A
C1038  O1074   1.288   .     A
C1038  C1042   1.424   .     S
C1038  O1072   1.296   .     A
C1039  C1056   1.399   .     A
C1039  H1065   1.081   .     S
C1039  C1131   1.393   1_455 S
C1040  C1055   1.399   .     A
C1040  H1066   1.081   .     S
C1040  C1132   1.393   .     S
C1042  C1189   1.325   .     S
C1042  H1216   1.086   .     S
C1043  C1048   1.444   .     S
C1043  O1075   1.300   .     A
C1043  O1077   1.293   .     A
C1044  C1047   1.444   .     S
C1044  O1076   1.300   .     A
C1044  O1078   1.293   .     A
C1045  H1061   1.083   .     S
C1045  C1047   1.395   .     A
C1045  C1055   1.392   .     A
C1046  C1056   1.392   .     A
C1046  H1062   1.083   .     S
C1046  C1048   1.395   .     A
C1047  C1049   1.404   .     A
C1048  C1050   1.404   .     A
C1049  C1051   1.406   .     A
C1049  O1079   1.387   .     S
C1050  O1087   1.387   .     S
C1050  C1052   1.406   .     A
C1051  C1057   1.403   .     A
C1051  C1053   1.413   .     A
C1052  C1054   1.413   .     A
C1052  C1058   1.403   .     A
C1053  C1055   1.411   .     A
C1053  C1128   1.404   .     S
C1054  C1056   1.410   .     A
C1054  C1127   1.404   1_455 S
C1057  H1063   1.081   .     S
C1057  C1113   1.393   .     S
C1058  H1064   1.081   .     S
C1058  C1114   1.393   1_455 S
Cu1059 O1074   1.948   .     S
Cu1059 O1071   1.955   .     S
Cu1059 N1070   2.031   .     S
Cu1059 O1078   1.954   .     S
Cu1059 O1075   1.956   .     S
Cu1059 Cu1060  2.703   .     S
Cu1060 O1073   1.948   .     S
Cu1060 O1077   1.954   .     S
Cu1060 O1072   1.955   .     S
Cu1060 O1076   1.956   .     S
Cu1060 N1069   2.031   .     S
H1067  C1189   1.086   .     S
N1070  N181    1.301   1_556 S
N1070  O215    1.345   1_556 S
O1079  C1080   1.419   .     S
C1080  C1083   1.518   .     S
C1080  H1081   1.117   .     S
C1080  H1082   1.111   .     S
C1083  H1086   1.107   .     S
C1083  H1085   1.111   .     S
H1084  C1231   1.109   .     S
O1087  C1088   1.419   .     S
C1088  C1091   1.518   .     S
C1088  H1089   1.111   .     S
C1088  H1090   1.117   .     S
C1091  H1092   1.107   .     S
C1091  H1093   1.111   .     S
C1091  H1242   1.109   .     S
O1095  C1096   1.407   .     S
O1095  N181    1.345   1_556 S
C1096  C1099   1.521   .     S
C1096  H1097   1.115   .     S
C1096  H210    1.107   1_556 S
C1099  H1100   1.111   .     S
C1099  H1101   1.111   .     S
C1099  H1102   1.109   .     S
O1103  C1104   1.407   .     S
C1104  C1107   1.521   .     S
C1104  H1106   1.115   .     S
H1105  C216    1.107   1_556 S
C1107  H1110   1.111   .     S
C1107  H1108   1.109   .     S
C1107  H1109   1.111   .     S
C1111  O1147   1.288   .     A
C1111  C1115   1.424   .     S
C1111  O1145   1.296   .     A
C1112  O1148   1.288   .     A
C1112  C1116   1.424   .     S
C1112  O1146   1.296   .     A
C1113  C1130   1.399   .     A
C1113  H1139   1.081   .     S
C1114  C1129   1.399   .     A
C1114  H1140   1.081   .     S
C1114  C1058   1.393   1_655 S
C1116  C1263   1.325   .     S
C1116  H1290   1.086   .     S
C1117  C1122   1.444   .     S
C1117  O1149   1.300   .     A
C1117  O1151   1.293   .     A
C1118  C1121   1.444   .     S
C1118  O1150   1.300   .     A
C1118  O1152   1.293   .     A
C1119  H1135   1.083   .     S
C1119  C1121   1.395   .     A
C1119  C1129   1.392   .     A
C1120  C1130   1.392   .     A
C1120  H1136   1.083   .     S
C1120  C1122   1.395   .     A
C1121  C1123   1.404   .     A
C1122  C1124   1.404   .     A
C1123  C1125   1.406   .     A
C1123  O1153   1.387   .     S
C1124  O1161   1.387   .     S
C1124  C1126   1.406   .     A
C1125  C1131   1.403   .     A
C1125  C1127   1.413   .     A
C1126  C1128   1.413   .     A
C1126  C1132   1.403   .     A
C1127  C1129   1.411   .     A
C1127  C1054   1.404   1_655 S
C1128  C1130   1.410   .     A
C1131  H1137   1.081   .     S
C1131  C1039   1.393   1_655 S
C1132  H1138   1.081   .     S
Cu1133 O1148   1.948   .     S
Cu1133 O1145   1.955   .     S
Cu1133 N1144   2.031   .     S
Cu1133 O1152   1.954   .     S
Cu1133 O1149   1.956   .     S
Cu1133 Cu1134  2.703   .     S
Cu1134 O1147   1.948   .     S
Cu1134 O1151   1.954   .     S
Cu1134 O1146   1.955   .     S
Cu1134 O1150   1.956   .     S
Cu1134 N1143   2.031   .     S
H1141  C1263   1.086   .     S
N1144  N255    1.301   1_556 S
N1144  O289    1.345   1_556 S
O1153  C1154   1.419   .     S
C1154  C1157   1.518   .     S
C1154  H1155   1.117   .     S
C1154  H1156   1.111   .     S
C1157  H1160   1.107   .     S
C1157  H1159   1.111   .     S
H1158  C1305   1.109   .     S
O1161  C1162   1.419   .     S
C1162  C1165   1.518   .     S
C1162  H1163   1.111   .     S
C1162  H1164   1.117   .     S
C1165  H1166   1.107   .     S
C1165  H1167   1.111   .     S
C1165  H1316   1.109   .     S
O1169  C1170   1.407   .     S
O1169  N255    1.345   1_556 S
C1170  C1173   1.521   .     S
C1170  H1171   1.115   .     S
C1170  H284    1.107   1_556 S
C1173  H1174   1.111   .     S
C1173  H1175   1.111   .     S
C1173  H1176   1.109   .     S
O1177  C1178   1.407   .     S
C1178  C1181   1.521   .     S
C1178  H1180   1.115   .     S
H1179  C290    1.107   1_556 S
C1181  H1184   1.111   .     S
C1181  H1182   1.109   .     S
C1181  H1183   1.111   .     S
C1185  O1221   1.288   .     A
C1185  C1189   1.424   .     S
C1185  O1219   1.296   .     A
C1186  O1222   1.288   .     A
C1186  C1190   1.424   .     S
C1186  O1220   1.296   .     A
C1187  C1204   1.399   .     A
C1187  H1213   1.081   .     S
C1187  C1279   1.393   1_455 S
C1188  C1203   1.399   .     A
C1188  H1214   1.081   .     S
C1188  C1280   1.393   .     S
C1190  C893    1.325   1_565 S
C1190  H920    1.086   1_565 S
C1191  C1196   1.444   .     S
C1191  O1223   1.300   .     A
C1191  O1225   1.293   .     A
C1192  C1195   1.444   .     S
C1192  O1224   1.300   .     A
C1192  O1226   1.293   .     A
C1193  H1209   1.083   .     S
C1193  C1195   1.395   .     A
C1193  C1203   1.392   .     A
C1194  C1204   1.392   .     A
C1194  H1210   1.083   .     S
C1194  C1196   1.395   .     A
C1195  C1197   1.404   .     A
C1196  C1198   1.404   .     A
C1197  C1199   1.406   .     A
C1197  O1227   1.387   .     S
C1198  O1235   1.387   .     S
C1198  C1200   1.406   .     A
C1199  C1205   1.403   .     A
C1199  C1201   1.413   .     A
C1200  C1202   1.413   .     A
C1200  C1206   1.403   .     A
C1201  C1203   1.411   .     A
C1201  C1276   1.404   .     S
C1202  C1204   1.410   .     A
C1202  C1275   1.404   1_455 S
C1205  H1211   1.081   .     S
C1205  C1261   1.393   .     S
C1206  H1212   1.081   .     S
C1206  C1262   1.393   1_455 S
Cu1207 O1222   1.948   .     S
Cu1207 O1219   1.955   .     S
Cu1207 N1218   2.031   .     S
Cu1207 O1226   1.954   .     S
Cu1207 O1223   1.956   .     S
Cu1207 Cu1208  2.703   .     S
Cu1208 O1221   1.948   .     S
Cu1208 O1225   1.954   .     S
Cu1208 O1220   1.955   .     S
Cu1208 O1224   1.956   .     S
Cu1208 N1217   2.031   .     S
H1215  C893    1.086   1_565 S
N1218  N329    1.301   1_556 S
N1218  O363    1.345   1_556 S
O1227  C1228   1.419   .     S
C1228  C1231   1.518   .     S
C1228  H1229   1.117   .     S
C1228  H1230   1.111   .     S
C1231  H1234   1.107   .     S
C1231  H1233   1.111   .     S
H1232  C935    1.109   1_565 S
O1235  C1236   1.419   .     S
C1236  C1239   1.518   .     S
C1236  H1237   1.111   .     S
C1236  H1238   1.117   .     S
C1239  H1240   1.107   .     S
C1239  H1241   1.111   .     S
C1239  H946    1.109   1_565 S
O1243  C1244   1.407   .     S
O1243  N329    1.345   1_556 S
C1244  C1247   1.521   .     S
C1244  H1245   1.115   .     S
C1244  H358    1.107   1_556 S
C1247  H1248   1.111   .     S
C1247  H1249   1.111   .     S
C1247  H1250   1.109   .     S
O1251  C1252   1.407   .     S
C1252  C1255   1.521   .     S
C1252  H1254   1.115   .     S
H1253  C364    1.107   1_556 S
C1255  H1258   1.111   .     S
C1255  H1256   1.109   .     S
C1255  H1257   1.111   .     S
C1259  O1295   1.288   .     A
C1259  C1263   1.424   .     S
C1259  O1293   1.296   .     A
C1260  O1296   1.288   .     A
C1260  C1264   1.424   .     S
C1260  O1294   1.296   .     A
C1261  C1278   1.399   .     A
C1261  H1287   1.081   .     S
C1262  C1277   1.399   .     A
C1262  H1288   1.081   .     S
C1262  C1206   1.393   1_655 S
C1264  C967    1.325   1_565 S
C1264  H994    1.086   1_565 S
C1265  C1270   1.444   .     S
C1265  O1297   1.300   .     A
C1265  O1299   1.293   .     A
C1266  C1269   1.444   .     S
C1266  O1298   1.300   .     A
C1266  O1300   1.293   .     A
C1267  H1283   1.083   .     S
C1267  C1269   1.395   .     A
C1267  C1277   1.392   .     A
C1268  C1278   1.392   .     A
C1268  H1284   1.083   .     S
C1268  C1270   1.395   .     A
C1269  C1271   1.404   .     A
C1270  C1272   1.404   .     A
C1271  C1273   1.406   .     A
C1271  O1301   1.387   .     S
C1272  O1309   1.387   .     S
C1272  C1274   1.406   .     A
C1273  C1279   1.403   .     A
C1273  C1275   1.413   .     A
C1274  C1276   1.413   .     A
C1274  C1280   1.403   .     A
C1275  C1277   1.411   .     A
C1275  C1202   1.404   1_655 S
C1276  C1278   1.410   .     A
C1279  H1285   1.081   .     S
C1279  C1187   1.393   1_655 S
C1280  H1286   1.081   .     S
Cu1281 O1296   1.948   .     S
Cu1281 O1293   1.955   .     S
Cu1281 N1292   2.031   .     S
Cu1281 O1300   1.954   .     S
Cu1281 O1297   1.956   .     S
Cu1281 Cu1282  2.703   .     S
Cu1282 O1295   1.948   .     S
Cu1282 O1299   1.954   .     S
Cu1282 O1294   1.955   .     S
Cu1282 O1298   1.956   .     S
Cu1282 N1291   2.031   .     S
H1289  C967    1.086   1_565 S
N1292  N403    1.301   1_556 S
N1292  O437    1.345   1_556 S
O1301  C1302   1.419   .     S
C1302  C1305   1.518   .     S
C1302  H1303   1.117   .     S
C1302  H1304   1.111   .     S
C1305  H1308   1.107   .     S
C1305  H1307   1.111   .     S
H1306  C1009   1.109   1_565 S
O1309  C1310   1.419   .     S
C1310  C1313   1.518   .     S
C1310  H1311   1.111   .     S
C1310  H1312   1.117   .     S
C1313  H1314   1.107   .     S
C1313  H1315   1.111   .     S
C1313  H1020   1.109   1_565 S
O1317  C1318   1.407   .     S
O1317  N403    1.345   1_556 S
C1318  C1321   1.521   .     S
C1318  H1319   1.115   .     S
C1318  H432    1.107   1_556 S
C1321  H1322   1.111   .     S
C1321  H1323   1.111   .     S
C1321  H1324   1.109   .     S
O1325  C1326   1.407   .     S
C1326  C1329   1.521   .     S
C1326  H1328   1.115   .     S
H1327  C438    1.107   1_556 S
C1329  H1332   1.111   .     S
C1329  H1330   1.109   .     S
C1329  H1331   1.111   .     S
