data_str_m2_o2_o10_pcu_sym.123
_audit_creation_date              2020-01-03
_audit_creation_method            'Materials Studio'
_symmetry_space_group_name_H-M    'P1'
_symmetry_Int_Tables_number       1
_symmetry_cell_setting            triclinic
loop_
_symmetry_equiv_pos_as_xyz
  x,y,z
_cell_length_a                    26.1058
_cell_length_b                    30.2015
_cell_length_c                    27.8015
_cell_angle_alpha                 90.5002
_cell_angle_beta                  98.1182
_cell_angle_gamma                 91.2448
loop_
_atom_site_label
_atom_site_type_symbol
_atom_site_fract_x
_atom_site_fract_y
_atom_site_fract_z
_atom_site_U_iso_or_equiv
_atom_site_adp_type
_atom_site_occupancy
C1     C     0.16784   0.16487   0.25005   0.00000  Uiso   1.00
C2     C     0.19197   0.28299   0.44990   0.00000  Uiso   1.00
C3     C     0.16886   0.24929   0.02745   0.00000  Uiso   1.00
C4     C     0.16809   0.24841   0.47267   0.00000  Uiso   1.00
C5     C     0.06790   0.24994   0.23752   0.00000  Uiso   1.00
C6     C     0.26543   0.24993   0.26247   0.00000  Uiso   1.00
C7     C     0.01255   0.24997   0.23065   0.00000  Uiso   1.00
C8     C     0.32078   0.24973   0.26930   0.00000  Uiso   1.00
C9     C     0.18160   0.04710   0.29352   0.00000  Uiso   1.00
C10    C     0.12648   0.45147   0.22555   0.00000  Uiso   1.00
C11    C     0.18362   0.09323   0.29414   0.00000  Uiso   1.00
C12    C     0.16652   0.33480   0.25014   0.00000  Uiso   1.00
C13    C     0.12558   0.40522   0.22427   0.00000  Uiso   1.00
C14    C     0.17041   0.11637   0.25031   0.00000  Uiso   1.00
C15    C     0.16676   0.38270   0.25032   0.00000  Uiso   1.00
C16    C     0.15986   0.09268   0.20629   0.00000  Uiso   1.00
C17    C     0.20945   0.40585   0.27513   0.00000  Uiso   1.00
C18    C     0.16057   0.04656   0.20552   0.00000  Uiso   1.00
C19    C     0.21208   0.45203   0.27374   0.00000  Uiso   1.00
C20    C     0.17024   0.02358   0.24955   0.00000  Uiso   1.00
C21    C     0.16960   0.47499   0.24985   0.00000  Uiso   1.00
C22    C     0.25173   0.12243   0.34500   0.00000  Uiso   1.00
C23    C     0.21268   0.26372   0.06067   0.00000  Uiso   1.00
C24    C     0.26747   0.15094   0.39031   0.00000  Uiso   1.00
C25    C     0.08055   0.38495   0.15084   0.00000  Uiso   1.00
C26    C     0.04032   0.35176   0.12621   0.00000  Uiso   1.00
C27    C     0.19488   0.02046   0.14061   0.00000  Uiso   1.00
C28    C     0.18404   0.49103   0.09551   0.00000  Uiso   1.00
C29    C     0.29770   0.46879   0.27307   0.00000  Uiso   1.00
C30    C     0.00723   0.00177   0.29282   0.00000  Uiso   1.00
C31    C     0.28921   0.24200   0.02566   0.00000  Uiso   1.00
C32    C     0.15505   0.14400   0.48304   0.00000  Uiso   1.00
C33    C     0.08197   0.17018   0.11412   0.00000  Uiso   1.00
C34    C     0.14296   0.21405   0.44214   0.00000  Uiso   1.00
C35    C     0.03525   0.15203   0.08012   0.00000  Uiso   1.00
C36    C     0.27567   0.30955   0.39631   0.00000  Uiso   1.00
C37    C     0.30765   0.33912   0.36735   0.00000  Uiso   1.00
C38    C     0.20957   0.26522   0.11108   0.00000  Uiso   1.00
C39    C     0.14129   0.21679   0.39119   0.00000  Uiso   1.00
C40    C     0.12490   0.23409   0.09791   0.00000  Uiso   1.00
C41    C     0.19417   0.28175   0.39945   0.00000  Uiso   1.00
C42    C     0.12456   0.23602   0.04735   0.00000  Uiso   1.00
Cu43   Cu    0.16667   0.24999   0.29821   0.00000  Uiso   1.00
Cu44   Cu    0.16667   0.25000   0.20178   0.00000  Uiso   1.00
H45    H     0.32577   0.25023   0.19364   0.00000  Uiso   1.00
H46    H     0.20935   0.31104   0.47105   0.00000  Uiso   1.00
H47    H     0.26478   0.14013   0.31367   0.00000  Uiso   1.00
H48    H     0.27193   0.09032   0.35000   0.00000  Uiso   1.00
H49    H     0.30997   0.15729   0.39550   0.00000  Uiso   1.00
H50    H     0.24772   0.18317   0.38648   0.00000  Uiso   1.00
H51    H     0.25698   0.13372   0.42276   0.00000  Uiso   1.00
H52    H     0.11851   0.37716   0.13903   0.00000  Uiso   1.00
H53    H     0.06911   0.41875   0.13857   0.00000  Uiso   1.00
H54    H     0.00176   0.35865   0.13678   0.00000  Uiso   1.00
H55    H     0.03793   0.35424   0.08613   0.00000  Uiso   1.00
H56    H     0.00758   0.24944   0.30631   0.00000  Uiso   1.00
H57    H     0.05125   0.31757   0.13711   0.00000  Uiso   1.00
H58    H     0.22624   0.00517   0.16605   0.00000  Uiso   1.00
H59    H     0.20830   0.05366   0.12967   0.00000  Uiso   1.00
H60    H     0.15347   0.00562   0.06888   0.00000  Uiso   1.00
H61    H     0.21981   0.48794   0.07847   0.00000  Uiso   1.00
H62    H     0.17094   0.45753   0.10553   0.00000  Uiso   1.00
H63    H     0.28776   0.47448   0.23330   0.00000  Uiso   1.00
H64    H     0.31265   0.43477   0.27904   0.00000  Uiso   1.00
H65    H     0.01892   0.49656   0.33230   0.00000  Uiso   1.00
H66    H     0.04139   0.49726   0.27375   0.00000  Uiso   1.00
H67    H     0.18933   0.02966   0.32758   0.00000  Uiso   1.00
H68    H     0.32682   0.03614   0.28705   0.00000  Uiso   1.00
H69    H     0.28261   0.29948   0.06646   0.00000  Uiso   1.00
H70    H     0.32616   0.23786   0.05014   0.00000  Uiso   1.00
H71    H     0.29835   0.25131   0.48927   0.00000  Uiso   1.00
H72    H     0.26755   0.20975   0.02229   0.00000  Uiso   1.00
H73    H     0.08872   0.16262   0.43881   0.00000  Uiso   1.00
H74    H     0.13357   0.11817   0.00081   0.00000  Uiso   1.00
H75    H     0.18488   0.15928   0.01104   0.00000  Uiso   1.00
H76    H     0.17414   0.12803   0.45434   0.00000  Uiso   1.00
H77    H     0.07860   0.15829   0.15123   0.00000  Uiso   1.00
H78    H     0.09339   0.46903   0.20789   0.00000  Uiso   1.00
H79    H     0.11775   0.15567   0.10327   0.00000  Uiso   1.00
H80    H     0.03728   0.16263   0.04230   0.00000  Uiso   1.00
H81    H     0.03465   0.11528   0.08100   0.00000  Uiso   1.00
H82    H     0.33234   0.16404   0.09185   0.00000  Uiso   1.00
H83    H     0.28836   0.27478   0.39273   0.00000  Uiso   1.00
H84    H     0.28408   0.32031   0.43503   0.00000  Uiso   1.00
H85    H     0.01615   0.33516   0.38045   0.00000  Uiso   1.00
H86    H     0.30006   0.32990   0.32822   0.00000  Uiso   1.00
H87    H     0.29776   0.37433   0.37200   0.00000  Uiso   1.00
H88    H     0.15105   0.10973   0.17222   0.00000  Uiso   1.00
H89    H     0.24113   0.38799   0.29466   0.00000  Uiso   1.00
H90    H     0.24255   0.27768   0.13572   0.00000  Uiso   1.00
H91    H     0.12095   0.19123   0.36799   0.00000  Uiso   1.00
H92    H     0.08930   0.22668   0.02387   0.00000  Uiso   1.00
N93    N     0.16667   0.25001   0.12934   0.00000  Uiso   1.00
N94    N     0.16667   0.24999   0.37065   0.00000  Uiso   1.00
N95    N     0.25998   0.27689   0.04437   0.00000  Uiso   1.00
N96    N     0.11930   0.17673   0.46183   0.00000  Uiso   1.00
O97    O     0.16667   0.18572   0.29071   0.00000  Uiso   1.00
O98    O     0.08257   0.38173   0.20172   0.00000  Uiso   1.00
O99    O     0.14907   0.02397   0.16175   0.00000  Uiso   1.00
O100   O     0.25468   0.47509   0.29780   0.00000  Uiso   1.00
O101   O     0.08168   0.21709   0.11527   0.00000  Uiso   1.00
O102   O     0.22248   0.31366   0.37850   0.00000  Uiso   1.00
O103   O     0.16666   0.31427   0.20928   0.00000  Uiso   1.00
O104   O     0.16667   0.18573   0.20928   0.00000  Uiso   1.00
O105   O     0.16666   0.31427   0.29072   0.00000  Uiso   1.00
O106   O     0.09161   0.24999   0.28132   0.00000  Uiso   1.00
O107   O     0.24172   0.25000   0.21868   0.00000  Uiso   1.00
O108   O     0.09161   0.25000   0.19988   0.00000  Uiso   1.00
O109   O     0.24172   0.25000   0.30011   0.00000  Uiso   1.00
O110   O     0.19748   0.11529   0.33802   0.00000  Uiso   1.00
C111   C     0.50118   0.16487   0.25005   0.00000  Uiso   1.00
C112   C     0.52530   0.28299   0.44990   0.00000  Uiso   1.00
C113   C     0.50219   0.24929   0.02745   0.00000  Uiso   1.00
C114   C     0.50142   0.24841   0.47267   0.00000  Uiso   1.00
C115   C     0.40123   0.24994   0.23752   0.00000  Uiso   1.00
C116   C     0.59876   0.24993   0.26247   0.00000  Uiso   1.00
C117   C     0.34588   0.24997   0.23065   0.00000  Uiso   1.00
C118   C     0.65411   0.24973   0.26930   0.00000  Uiso   1.00
C119   C     0.51493   0.04710   0.29352   0.00000  Uiso   1.00
C120   C     0.45981   0.45147   0.22555   0.00000  Uiso   1.00
C121   C     0.51696   0.09323   0.29414   0.00000  Uiso   1.00
C122   C     0.49985   0.33480   0.25014   0.00000  Uiso   1.00
C123   C     0.45892   0.40522   0.22427   0.00000  Uiso   1.00
C124   C     0.50374   0.11637   0.25031   0.00000  Uiso   1.00
C125   C     0.50009   0.38270   0.25032   0.00000  Uiso   1.00
C126   C     0.49319   0.09268   0.20629   0.00000  Uiso   1.00
C127   C     0.54278   0.40585   0.27513   0.00000  Uiso   1.00
C128   C     0.49390   0.04656   0.20552   0.00000  Uiso   1.00
C129   C     0.54541   0.45203   0.27374   0.00000  Uiso   1.00
C130   C     0.50357   0.02358   0.24955   0.00000  Uiso   1.00
C131   C     0.50293   0.47499   0.24985   0.00000  Uiso   1.00
C132   C     0.58507   0.12243   0.34500   0.00000  Uiso   1.00
C133   C     0.54601   0.26372   0.06067   0.00000  Uiso   1.00
C134   C     0.60080   0.15094   0.39031   0.00000  Uiso   1.00
C135   C     0.41388   0.38495   0.15084   0.00000  Uiso   1.00
C136   C     0.37365   0.35176   0.12621   0.00000  Uiso   1.00
C137   C     0.52821   0.02046   0.14061   0.00000  Uiso   1.00
C138   C     0.51738   0.49103   0.09551   0.00000  Uiso   1.00
C139   C     0.63103   0.46879   0.27307   0.00000  Uiso   1.00
C140   C     0.34057   0.00177   0.29282   0.00000  Uiso   1.00
C141   C     0.62254   0.24200   0.02566   0.00000  Uiso   1.00
C142   C     0.48839   0.14400   0.48304   0.00000  Uiso   1.00
C143   C     0.41530   0.17018   0.11412   0.00000  Uiso   1.00
C144   C     0.47630   0.21405   0.44214   0.00000  Uiso   1.00
C145   C     0.36859   0.15203   0.08012   0.00000  Uiso   1.00
C146   C     0.60900   0.30955   0.39631   0.00000  Uiso   1.00
C147   C     0.64099   0.33912   0.36735   0.00000  Uiso   1.00
C148   C     0.54290   0.26522   0.11108   0.00000  Uiso   1.00
C149   C     0.47462   0.21679   0.39119   0.00000  Uiso   1.00
C150   C     0.45824   0.23409   0.09791   0.00000  Uiso   1.00
C151   C     0.52750   0.28175   0.39945   0.00000  Uiso   1.00
C152   C     0.45790   0.23602   0.04735   0.00000  Uiso   1.00
Cu153  Cu    0.50000   0.24999   0.29821   0.00000  Uiso   1.00
Cu154  Cu    0.50000   0.25000   0.20178   0.00000  Uiso   1.00
H155   H     0.65911   0.25023   0.19364   0.00000  Uiso   1.00
H156   H     0.54269   0.31104   0.47105   0.00000  Uiso   1.00
H157   H     0.59811   0.14013   0.31367   0.00000  Uiso   1.00
H158   H     0.60526   0.09032   0.35000   0.00000  Uiso   1.00
H159   H     0.64330   0.15729   0.39550   0.00000  Uiso   1.00
H160   H     0.58105   0.18317   0.38648   0.00000  Uiso   1.00
H161   H     0.59031   0.13372   0.42276   0.00000  Uiso   1.00
H162   H     0.45184   0.37716   0.13903   0.00000  Uiso   1.00
H163   H     0.40244   0.41875   0.13857   0.00000  Uiso   1.00
H164   H     0.33510   0.35865   0.13678   0.00000  Uiso   1.00
H165   H     0.37126   0.35424   0.08613   0.00000  Uiso   1.00
H166   H     0.34091   0.24944   0.30631   0.00000  Uiso   1.00
H167   H     0.38458   0.31757   0.13711   0.00000  Uiso   1.00
H168   H     0.55957   0.00517   0.16605   0.00000  Uiso   1.00
H169   H     0.54164   0.05366   0.12967   0.00000  Uiso   1.00
H170   H     0.48680   0.00562   0.06888   0.00000  Uiso   1.00
H171   H     0.55315   0.48794   0.07847   0.00000  Uiso   1.00
H172   H     0.50427   0.45753   0.10553   0.00000  Uiso   1.00
H173   H     0.62109   0.47448   0.23330   0.00000  Uiso   1.00
H174   H     0.64598   0.43477   0.27904   0.00000  Uiso   1.00
H175   H     0.35225   0.49656   0.33230   0.00000  Uiso   1.00
H176   H     0.37473   0.49726   0.27375   0.00000  Uiso   1.00
H177   H     0.52266   0.02966   0.32758   0.00000  Uiso   1.00
H178   H     0.66016   0.03614   0.28705   0.00000  Uiso   1.00
H179   H     0.61595   0.29948   0.06646   0.00000  Uiso   1.00
H180   H     0.65950   0.23786   0.05014   0.00000  Uiso   1.00
H181   H     0.63168   0.25131   0.48927   0.00000  Uiso   1.00
H182   H     0.60088   0.20975   0.02229   0.00000  Uiso   1.00
H183   H     0.42205   0.16262   0.43881   0.00000  Uiso   1.00
H184   H     0.46691   0.11817   0.00081   0.00000  Uiso   1.00
H185   H     0.51822   0.15928   0.01104   0.00000  Uiso   1.00
H186   H     0.50747   0.12803   0.45434   0.00000  Uiso   1.00
H187   H     0.41193   0.15829   0.15123   0.00000  Uiso   1.00
H188   H     0.42672   0.46903   0.20789   0.00000  Uiso   1.00
H189   H     0.45109   0.15567   0.10327   0.00000  Uiso   1.00
H190   H     0.37061   0.16263   0.04230   0.00000  Uiso   1.00
H191   H     0.36799   0.11528   0.08100   0.00000  Uiso   1.00
H192   H     0.66567   0.16404   0.09185   0.00000  Uiso   1.00
H193   H     0.62169   0.27478   0.39273   0.00000  Uiso   1.00
H194   H     0.61741   0.32031   0.43503   0.00000  Uiso   1.00
H195   H     0.34948   0.33516   0.38045   0.00000  Uiso   1.00
H196   H     0.63339   0.32990   0.32822   0.00000  Uiso   1.00
H197   H     0.63109   0.37433   0.37200   0.00000  Uiso   1.00
H198   H     0.48438   0.10973   0.17222   0.00000  Uiso   1.00
H199   H     0.57447   0.38799   0.29466   0.00000  Uiso   1.00
H200   H     0.57588   0.27768   0.13572   0.00000  Uiso   1.00
H201   H     0.45428   0.19123   0.36799   0.00000  Uiso   1.00
H202   H     0.42263   0.22668   0.02387   0.00000  Uiso   1.00
N203   N     0.50000   0.25001   0.12934   0.00000  Uiso   1.00
N204   N     0.50000   0.24999   0.37065   0.00000  Uiso   1.00
N205   N     0.59332   0.27689   0.04437   0.00000  Uiso   1.00
N206   N     0.45263   0.17673   0.46183   0.00000  Uiso   1.00
O207   O     0.50000   0.18572   0.29071   0.00000  Uiso   1.00
O208   O     0.41590   0.38173   0.20172   0.00000  Uiso   1.00
O209   O     0.48240   0.02397   0.16175   0.00000  Uiso   1.00
O210   O     0.58802   0.47509   0.29780   0.00000  Uiso   1.00
O211   O     0.41502   0.21709   0.11527   0.00000  Uiso   1.00
O212   O     0.55581   0.31366   0.37850   0.00000  Uiso   1.00
O213   O     0.50000   0.31427   0.20928   0.00000  Uiso   1.00
O214   O     0.50000   0.18573   0.20928   0.00000  Uiso   1.00
O215   O     0.50000   0.31427   0.29072   0.00000  Uiso   1.00
O216   O     0.42495   0.24999   0.28132   0.00000  Uiso   1.00
O217   O     0.57505   0.25000   0.21868   0.00000  Uiso   1.00
O218   O     0.42495   0.25000   0.19988   0.00000  Uiso   1.00
O219   O     0.57505   0.25000   0.30011   0.00000  Uiso   1.00
O220   O     0.53082   0.11529   0.33802   0.00000  Uiso   1.00
C221   C     0.83451   0.16487   0.25005   0.00000  Uiso   1.00
C222   C     0.85863   0.28299   0.44990   0.00000  Uiso   1.00
C223   C     0.83553   0.24929   0.02745   0.00000  Uiso   1.00
C224   C     0.83475   0.24841   0.47267   0.00000  Uiso   1.00
C225   C     0.73457   0.24994   0.23752   0.00000  Uiso   1.00
C226   C     0.93210   0.24993   0.26247   0.00000  Uiso   1.00
C227   C     0.67922   0.24997   0.23065   0.00000  Uiso   1.00
C228   C     0.98745   0.24973   0.26930   0.00000  Uiso   1.00
C229   C     0.84826   0.04710   0.29352   0.00000  Uiso   1.00
C230   C     0.79315   0.45147   0.22555   0.00000  Uiso   1.00
C231   C     0.85029   0.09323   0.29414   0.00000  Uiso   1.00
C232   C     0.83318   0.33480   0.25014   0.00000  Uiso   1.00
C233   C     0.79225   0.40522   0.22427   0.00000  Uiso   1.00
C234   C     0.83707   0.11637   0.25031   0.00000  Uiso   1.00
C235   C     0.83343   0.38270   0.25032   0.00000  Uiso   1.00
C236   C     0.82653   0.09268   0.20629   0.00000  Uiso   1.00
C237   C     0.87611   0.40585   0.27513   0.00000  Uiso   1.00
C238   C     0.82723   0.04656   0.20552   0.00000  Uiso   1.00
C239   C     0.87874   0.45203   0.27374   0.00000  Uiso   1.00
C240   C     0.83691   0.02358   0.24955   0.00000  Uiso   1.00
C241   C     0.83626   0.47499   0.24985   0.00000  Uiso   1.00
C242   C     0.91840   0.12243   0.34500   0.00000  Uiso   1.00
C243   C     0.87934   0.26372   0.06067   0.00000  Uiso   1.00
C244   C     0.93414   0.15094   0.39031   0.00000  Uiso   1.00
C245   C     0.74722   0.38495   0.15084   0.00000  Uiso   1.00
C246   C     0.70698   0.35176   0.12621   0.00000  Uiso   1.00
C247   C     0.86155   0.02046   0.14061   0.00000  Uiso   1.00
C248   C     0.85071   0.49103   0.09551   0.00000  Uiso   1.00
C249   C     0.96437   0.46879   0.27307   0.00000  Uiso   1.00
C250   C     0.67390   0.00177   0.29282   0.00000  Uiso   1.00
C251   C     0.95587   0.24200   0.02566   0.00000  Uiso   1.00
C252   C     0.82172   0.14400   0.48304   0.00000  Uiso   1.00
C253   C     0.74863   0.17018   0.11412   0.00000  Uiso   1.00
C254   C     0.80963   0.21405   0.44214   0.00000  Uiso   1.00
C255   C     0.70192   0.15203   0.08012   0.00000  Uiso   1.00
C256   C     0.94234   0.30955   0.39631   0.00000  Uiso   1.00
C257   C     0.97432   0.33912   0.36735   0.00000  Uiso   1.00
C258   C     0.87624   0.26522   0.11108   0.00000  Uiso   1.00
C259   C     0.80795   0.21679   0.39119   0.00000  Uiso   1.00
C260   C     0.79157   0.23409   0.09791   0.00000  Uiso   1.00
C261   C     0.86084   0.28175   0.39945   0.00000  Uiso   1.00
C262   C     0.79123   0.23602   0.04735   0.00000  Uiso   1.00
Cu263  Cu    0.83333   0.24999   0.29821   0.00000  Uiso   1.00
Cu264  Cu    0.83333   0.25000   0.20178   0.00000  Uiso   1.00
H265   H     0.99244   0.25023   0.19364   0.00000  Uiso   1.00
H266   H     0.87602   0.31104   0.47105   0.00000  Uiso   1.00
H267   H     0.93144   0.14013   0.31367   0.00000  Uiso   1.00
H268   H     0.93859   0.09032   0.35000   0.00000  Uiso   1.00
H269   H     0.97663   0.15729   0.39550   0.00000  Uiso   1.00
H270   H     0.91439   0.18317   0.38648   0.00000  Uiso   1.00
H271   H     0.92364   0.13372   0.42276   0.00000  Uiso   1.00
H272   H     0.78517   0.37716   0.13903   0.00000  Uiso   1.00
H273   H     0.73578   0.41875   0.13857   0.00000  Uiso   1.00
H274   H     0.66843   0.35865   0.13678   0.00000  Uiso   1.00
H275   H     0.70459   0.35424   0.08613   0.00000  Uiso   1.00
H276   H     0.67425   0.24944   0.30631   0.00000  Uiso   1.00
H277   H     0.71792   0.31757   0.13711   0.00000  Uiso   1.00
H278   H     0.89290   0.00517   0.16605   0.00000  Uiso   1.00
H279   H     0.87497   0.05366   0.12967   0.00000  Uiso   1.00
H280   H     0.82013   0.00562   0.06888   0.00000  Uiso   1.00
H281   H     0.88648   0.48794   0.07847   0.00000  Uiso   1.00
H282   H     0.83761   0.45753   0.10553   0.00000  Uiso   1.00
H283   H     0.95443   0.47448   0.23330   0.00000  Uiso   1.00
H284   H     0.97932   0.43477   0.27904   0.00000  Uiso   1.00
H285   H     0.68558   0.49656   0.33230   0.00000  Uiso   1.00
H286   H     0.70806   0.49726   0.27375   0.00000  Uiso   1.00
H287   H     0.85600   0.02966   0.32758   0.00000  Uiso   1.00
H288   H     0.99349   0.03614   0.28705   0.00000  Uiso   1.00
H289   H     0.94928   0.29948   0.06646   0.00000  Uiso   1.00
H290   H     0.99283   0.23786   0.05014   0.00000  Uiso   1.00
H291   H     0.96501   0.25131   0.48927   0.00000  Uiso   1.00
H292   H     0.93421   0.20975   0.02229   0.00000  Uiso   1.00
H293   H     0.75538   0.16262   0.43881   0.00000  Uiso   1.00
H294   H     0.80024   0.11817   0.00081   0.00000  Uiso   1.00
H295   H     0.85155   0.15928   0.01104   0.00000  Uiso   1.00
H296   H     0.84080   0.12803   0.45434   0.00000  Uiso   1.00
H297   H     0.74526   0.15829   0.15123   0.00000  Uiso   1.00
H298   H     0.76005   0.46903   0.20789   0.00000  Uiso   1.00
H299   H     0.78442   0.15567   0.10327   0.00000  Uiso   1.00
H300   H     0.70395   0.16263   0.04230   0.00000  Uiso   1.00
H301   H     0.70132   0.11528   0.08100   0.00000  Uiso   1.00
H302   H     0.99901   0.16404   0.09185   0.00000  Uiso   1.00
H303   H     0.95502   0.27478   0.39273   0.00000  Uiso   1.00
H304   H     0.95075   0.32031   0.43503   0.00000  Uiso   1.00
H305   H     0.68281   0.33516   0.38045   0.00000  Uiso   1.00
H306   H     0.96673   0.32990   0.32822   0.00000  Uiso   1.00
H307   H     0.96443   0.37433   0.37200   0.00000  Uiso   1.00
H308   H     0.81772   0.10973   0.17222   0.00000  Uiso   1.00
H309   H     0.90780   0.38799   0.29466   0.00000  Uiso   1.00
H310   H     0.90921   0.27768   0.13572   0.00000  Uiso   1.00
H311   H     0.78761   0.19123   0.36799   0.00000  Uiso   1.00
H312   H     0.75596   0.22668   0.02387   0.00000  Uiso   1.00
N313   N     0.83333   0.25001   0.12934   0.00000  Uiso   1.00
N314   N     0.83333   0.24999   0.37065   0.00000  Uiso   1.00
N315   N     0.92665   0.27689   0.04437   0.00000  Uiso   1.00
N316   N     0.78597   0.17673   0.46183   0.00000  Uiso   1.00
O317   O     0.83334   0.18572   0.29071   0.00000  Uiso   1.00
O318   O     0.74924   0.38173   0.20172   0.00000  Uiso   1.00
O319   O     0.81574   0.02397   0.16175   0.00000  Uiso   1.00
O320   O     0.92135   0.47509   0.29780   0.00000  Uiso   1.00
O321   O     0.74835   0.21709   0.11527   0.00000  Uiso   1.00
O322   O     0.88914   0.31366   0.37850   0.00000  Uiso   1.00
O323   O     0.83333   0.31427   0.20928   0.00000  Uiso   1.00
O324   O     0.83334   0.18573   0.20928   0.00000  Uiso   1.00
O325   O     0.83333   0.31427   0.29072   0.00000  Uiso   1.00
O326   O     0.75828   0.24999   0.28132   0.00000  Uiso   1.00
O327   O     0.90839   0.25000   0.21868   0.00000  Uiso   1.00
O328   O     0.75828   0.25000   0.19988   0.00000  Uiso   1.00
O329   O     0.90839   0.25000   0.30011   0.00000  Uiso   1.00
O330   O     0.86415   0.11529   0.33802   0.00000  Uiso   1.00
C331   C     0.16784   0.66487   0.25005   0.00000  Uiso   1.00
C332   C     0.19197   0.78299   0.44990   0.00000  Uiso   1.00
C333   C     0.16886   0.74929   0.02745   0.00000  Uiso   1.00
C334   C     0.16809   0.74841   0.47267   0.00000  Uiso   1.00
C335   C     0.06790   0.74994   0.23752   0.00000  Uiso   1.00
C336   C     0.26543   0.74993   0.26247   0.00000  Uiso   1.00
C337   C     0.01255   0.74997   0.23065   0.00000  Uiso   1.00
C338   C     0.32078   0.74973   0.26930   0.00000  Uiso   1.00
C339   C     0.18160   0.54710   0.29352   0.00000  Uiso   1.00
C340   C     0.12648   0.95147   0.22555   0.00000  Uiso   1.00
C341   C     0.18362   0.59323   0.29414   0.00000  Uiso   1.00
C342   C     0.16652   0.83480   0.25014   0.00000  Uiso   1.00
C343   C     0.12558   0.90522   0.22427   0.00000  Uiso   1.00
C344   C     0.17041   0.61637   0.25031   0.00000  Uiso   1.00
C345   C     0.16676   0.88270   0.25032   0.00000  Uiso   1.00
C346   C     0.15986   0.59268   0.20629   0.00000  Uiso   1.00
C347   C     0.20945   0.90585   0.27513   0.00000  Uiso   1.00
C348   C     0.16057   0.54656   0.20552   0.00000  Uiso   1.00
C349   C     0.21208   0.95203   0.27374   0.00000  Uiso   1.00
C350   C     0.17024   0.52358   0.24955   0.00000  Uiso   1.00
C351   C     0.16960   0.97499   0.24985   0.00000  Uiso   1.00
C352   C     0.25173   0.62243   0.34500   0.00000  Uiso   1.00
C353   C     0.21268   0.76372   0.06067   0.00000  Uiso   1.00
C354   C     0.26747   0.65094   0.39031   0.00000  Uiso   1.00
C355   C     0.08055   0.88495   0.15084   0.00000  Uiso   1.00
C356   C     0.04032   0.85176   0.12621   0.00000  Uiso   1.00
C357   C     0.19488   0.52046   0.14061   0.00000  Uiso   1.00
C358   C     0.18404   0.99103   0.09551   0.00000  Uiso   1.00
C359   C     0.29770   0.96879   0.27307   0.00000  Uiso   1.00
C360   C     0.00723   0.50177   0.29282   0.00000  Uiso   1.00
C361   C     0.28921   0.74200   0.02566   0.00000  Uiso   1.00
C362   C     0.15505   0.64400   0.48304   0.00000  Uiso   1.00
C363   C     0.08197   0.67018   0.11412   0.00000  Uiso   1.00
C364   C     0.14296   0.71405   0.44214   0.00000  Uiso   1.00
C365   C     0.03525   0.65203   0.08012   0.00000  Uiso   1.00
C366   C     0.27567   0.80955   0.39631   0.00000  Uiso   1.00
C367   C     0.30765   0.83912   0.36735   0.00000  Uiso   1.00
C368   C     0.20957   0.76522   0.11108   0.00000  Uiso   1.00
C369   C     0.14129   0.71679   0.39119   0.00000  Uiso   1.00
C370   C     0.12490   0.73409   0.09791   0.00000  Uiso   1.00
C371   C     0.19417   0.78175   0.39945   0.00000  Uiso   1.00
C372   C     0.12456   0.73602   0.04735   0.00000  Uiso   1.00
Cu373  Cu    0.16667   0.74999   0.29821   0.00000  Uiso   1.00
Cu374  Cu    0.16667   0.75000   0.20178   0.00000  Uiso   1.00
H375   H     0.32577   0.75023   0.19364   0.00000  Uiso   1.00
H376   H     0.20935   0.81104   0.47105   0.00000  Uiso   1.00
H377   H     0.26478   0.64013   0.31367   0.00000  Uiso   1.00
H378   H     0.27193   0.59032   0.35000   0.00000  Uiso   1.00
H379   H     0.30997   0.65729   0.39550   0.00000  Uiso   1.00
H380   H     0.24772   0.68317   0.38648   0.00000  Uiso   1.00
H381   H     0.25698   0.63372   0.42276   0.00000  Uiso   1.00
H382   H     0.11851   0.87716   0.13903   0.00000  Uiso   1.00
H383   H     0.06911   0.91875   0.13857   0.00000  Uiso   1.00
H384   H     0.00176   0.85865   0.13678   0.00000  Uiso   1.00
H385   H     0.03793   0.85424   0.08613   0.00000  Uiso   1.00
H386   H     0.00758   0.74944   0.30631   0.00000  Uiso   1.00
H387   H     0.05125   0.81757   0.13711   0.00000  Uiso   1.00
H388   H     0.22624   0.50517   0.16605   0.00000  Uiso   1.00
H389   H     0.20830   0.55366   0.12967   0.00000  Uiso   1.00
H390   H     0.15347   0.50562   0.06888   0.00000  Uiso   1.00
H391   H     0.21981   0.98794   0.07847   0.00000  Uiso   1.00
H392   H     0.17094   0.95753   0.10553   0.00000  Uiso   1.00
H393   H     0.28776   0.97448   0.23330   0.00000  Uiso   1.00
H394   H     0.31265   0.93477   0.27904   0.00000  Uiso   1.00
H395   H     0.01892   0.99656   0.33230   0.00000  Uiso   1.00
H396   H     0.04139   0.99726   0.27375   0.00000  Uiso   1.00
H397   H     0.18933   0.52966   0.32758   0.00000  Uiso   1.00
H398   H     0.32682   0.53614   0.28705   0.00000  Uiso   1.00
H399   H     0.28261   0.79948   0.06646   0.00000  Uiso   1.00
H400   H     0.32616   0.73786   0.05014   0.00000  Uiso   1.00
H401   H     0.29835   0.75131   0.48927   0.00000  Uiso   1.00
H402   H     0.26755   0.70975   0.02229   0.00000  Uiso   1.00
H403   H     0.08872   0.66262   0.43881   0.00000  Uiso   1.00
H404   H     0.13357   0.61817   0.00081   0.00000  Uiso   1.00
H405   H     0.18488   0.65928   0.01104   0.00000  Uiso   1.00
H406   H     0.17414   0.62803   0.45434   0.00000  Uiso   1.00
H407   H     0.07860   0.65829   0.15123   0.00000  Uiso   1.00
H408   H     0.09339   0.96903   0.20789   0.00000  Uiso   1.00
H409   H     0.11775   0.65567   0.10327   0.00000  Uiso   1.00
H410   H     0.03728   0.66263   0.04230   0.00000  Uiso   1.00
H411   H     0.03465   0.61528   0.08100   0.00000  Uiso   1.00
H412   H     0.33234   0.66404   0.09185   0.00000  Uiso   1.00
H413   H     0.28836   0.77478   0.39273   0.00000  Uiso   1.00
H414   H     0.28408   0.82031   0.43503   0.00000  Uiso   1.00
H415   H     0.01615   0.83516   0.38045   0.00000  Uiso   1.00
H416   H     0.30006   0.82990   0.32822   0.00000  Uiso   1.00
H417   H     0.29776   0.87433   0.37200   0.00000  Uiso   1.00
H418   H     0.15105   0.60973   0.17222   0.00000  Uiso   1.00
H419   H     0.24113   0.88799   0.29466   0.00000  Uiso   1.00
H420   H     0.24255   0.77768   0.13572   0.00000  Uiso   1.00
H421   H     0.12095   0.69123   0.36799   0.00000  Uiso   1.00
H422   H     0.08930   0.72668   0.02387   0.00000  Uiso   1.00
N423   N     0.16667   0.75001   0.12934   0.00000  Uiso   1.00
N424   N     0.16667   0.74999   0.37065   0.00000  Uiso   1.00
N425   N     0.25998   0.77689   0.04437   0.00000  Uiso   1.00
N426   N     0.11930   0.67673   0.46183   0.00000  Uiso   1.00
O427   O     0.16667   0.68572   0.29071   0.00000  Uiso   1.00
O428   O     0.08257   0.88173   0.20172   0.00000  Uiso   1.00
O429   O     0.14907   0.52397   0.16175   0.00000  Uiso   1.00
O430   O     0.25468   0.97509   0.29780   0.00000  Uiso   1.00
O431   O     0.08168   0.71709   0.11527   0.00000  Uiso   1.00
O432   O     0.22248   0.81366   0.37850   0.00000  Uiso   1.00
O433   O     0.16666   0.81427   0.20928   0.00000  Uiso   1.00
O434   O     0.16667   0.68573   0.20928   0.00000  Uiso   1.00
O435   O     0.16666   0.81427   0.29072   0.00000  Uiso   1.00
O436   O     0.09161   0.74999   0.28132   0.00000  Uiso   1.00
O437   O     0.24172   0.75000   0.21868   0.00000  Uiso   1.00
O438   O     0.09161   0.75000   0.19988   0.00000  Uiso   1.00
O439   O     0.24172   0.75000   0.30011   0.00000  Uiso   1.00
O440   O     0.19748   0.61529   0.33802   0.00000  Uiso   1.00
C441   C     0.50118   0.66487   0.25005   0.00000  Uiso   1.00
C442   C     0.52530   0.78299   0.44990   0.00000  Uiso   1.00
C443   C     0.50219   0.74929   0.02745   0.00000  Uiso   1.00
C444   C     0.50142   0.74841   0.47267   0.00000  Uiso   1.00
C445   C     0.40123   0.74994   0.23752   0.00000  Uiso   1.00
C446   C     0.59876   0.74993   0.26247   0.00000  Uiso   1.00
C447   C     0.34588   0.74997   0.23065   0.00000  Uiso   1.00
C448   C     0.65411   0.74973   0.26930   0.00000  Uiso   1.00
C449   C     0.51493   0.54710   0.29352   0.00000  Uiso   1.00
C450   C     0.45981   0.95147   0.22555   0.00000  Uiso   1.00
C451   C     0.51696   0.59323   0.29414   0.00000  Uiso   1.00
C452   C     0.49985   0.83480   0.25014   0.00000  Uiso   1.00
C453   C     0.45892   0.90522   0.22427   0.00000  Uiso   1.00
C454   C     0.50374   0.61637   0.25031   0.00000  Uiso   1.00
C455   C     0.50009   0.88270   0.25032   0.00000  Uiso   1.00
C456   C     0.49319   0.59268   0.20629   0.00000  Uiso   1.00
C457   C     0.54278   0.90585   0.27513   0.00000  Uiso   1.00
C458   C     0.49390   0.54656   0.20552   0.00000  Uiso   1.00
C459   C     0.54541   0.95203   0.27374   0.00000  Uiso   1.00
C460   C     0.50357   0.52358   0.24955   0.00000  Uiso   1.00
C461   C     0.50293   0.97499   0.24985   0.00000  Uiso   1.00
C462   C     0.58507   0.62243   0.34500   0.00000  Uiso   1.00
C463   C     0.54601   0.76372   0.06067   0.00000  Uiso   1.00
C464   C     0.60080   0.65094   0.39031   0.00000  Uiso   1.00
C465   C     0.41388   0.88495   0.15084   0.00000  Uiso   1.00
C466   C     0.37365   0.85176   0.12621   0.00000  Uiso   1.00
C467   C     0.52821   0.52046   0.14061   0.00000  Uiso   1.00
C468   C     0.51738   0.99103   0.09551   0.00000  Uiso   1.00
C469   C     0.63103   0.96879   0.27307   0.00000  Uiso   1.00
C470   C     0.34057   0.50177   0.29282   0.00000  Uiso   1.00
C471   C     0.62254   0.74200   0.02566   0.00000  Uiso   1.00
C472   C     0.48839   0.64400   0.48304   0.00000  Uiso   1.00
C473   C     0.41530   0.67018   0.11412   0.00000  Uiso   1.00
C474   C     0.47630   0.71405   0.44214   0.00000  Uiso   1.00
C475   C     0.36859   0.65203   0.08012   0.00000  Uiso   1.00
C476   C     0.60900   0.80955   0.39631   0.00000  Uiso   1.00
C477   C     0.64099   0.83912   0.36735   0.00000  Uiso   1.00
C478   C     0.54290   0.76522   0.11108   0.00000  Uiso   1.00
C479   C     0.47462   0.71679   0.39119   0.00000  Uiso   1.00
C480   C     0.45824   0.73409   0.09791   0.00000  Uiso   1.00
C481   C     0.52750   0.78175   0.39945   0.00000  Uiso   1.00
C482   C     0.45790   0.73602   0.04735   0.00000  Uiso   1.00
Cu483  Cu    0.50000   0.74999   0.29821   0.00000  Uiso   1.00
Cu484  Cu    0.50000   0.75000   0.20178   0.00000  Uiso   1.00
H485   H     0.65911   0.75023   0.19364   0.00000  Uiso   1.00
H486   H     0.54269   0.81104   0.47105   0.00000  Uiso   1.00
H487   H     0.59811   0.64013   0.31367   0.00000  Uiso   1.00
H488   H     0.60526   0.59032   0.35000   0.00000  Uiso   1.00
H489   H     0.64330   0.65729   0.39550   0.00000  Uiso   1.00
H490   H     0.58105   0.68317   0.38648   0.00000  Uiso   1.00
H491   H     0.59031   0.63372   0.42276   0.00000  Uiso   1.00
H492   H     0.45184   0.87716   0.13903   0.00000  Uiso   1.00
H493   H     0.40244   0.91875   0.13857   0.00000  Uiso   1.00
H494   H     0.33510   0.85865   0.13678   0.00000  Uiso   1.00
H495   H     0.37126   0.85424   0.08613   0.00000  Uiso   1.00
H496   H     0.34091   0.74944   0.30631   0.00000  Uiso   1.00
H497   H     0.38458   0.81757   0.13711   0.00000  Uiso   1.00
H498   H     0.55957   0.50517   0.16605   0.00000  Uiso   1.00
H499   H     0.54164   0.55366   0.12967   0.00000  Uiso   1.00
H500   H     0.48680   0.50562   0.06888   0.00000  Uiso   1.00
H501   H     0.55315   0.98794   0.07847   0.00000  Uiso   1.00
H502   H     0.50427   0.95753   0.10553   0.00000  Uiso   1.00
H503   H     0.62109   0.97448   0.23330   0.00000  Uiso   1.00
H504   H     0.64598   0.93477   0.27904   0.00000  Uiso   1.00
H505   H     0.35225   0.99656   0.33230   0.00000  Uiso   1.00
H506   H     0.37473   0.99726   0.27375   0.00000  Uiso   1.00
H507   H     0.52266   0.52966   0.32758   0.00000  Uiso   1.00
H508   H     0.66016   0.53614   0.28705   0.00000  Uiso   1.00
H509   H     0.61595   0.79948   0.06646   0.00000  Uiso   1.00
H510   H     0.65950   0.73786   0.05014   0.00000  Uiso   1.00
H511   H     0.63168   0.75131   0.48927   0.00000  Uiso   1.00
H512   H     0.60088   0.70975   0.02229   0.00000  Uiso   1.00
H513   H     0.42205   0.66262   0.43881   0.00000  Uiso   1.00
H514   H     0.46691   0.61817   0.00081   0.00000  Uiso   1.00
H515   H     0.51822   0.65928   0.01104   0.00000  Uiso   1.00
H516   H     0.50747   0.62803   0.45434   0.00000  Uiso   1.00
H517   H     0.41193   0.65829   0.15123   0.00000  Uiso   1.00
H518   H     0.42672   0.96903   0.20789   0.00000  Uiso   1.00
H519   H     0.45109   0.65567   0.10327   0.00000  Uiso   1.00
H520   H     0.37061   0.66263   0.04230   0.00000  Uiso   1.00
H521   H     0.36799   0.61528   0.08100   0.00000  Uiso   1.00
H522   H     0.66567   0.66404   0.09185   0.00000  Uiso   1.00
H523   H     0.62169   0.77478   0.39273   0.00000  Uiso   1.00
H524   H     0.61741   0.82031   0.43503   0.00000  Uiso   1.00
H525   H     0.34948   0.83516   0.38045   0.00000  Uiso   1.00
H526   H     0.63339   0.82990   0.32822   0.00000  Uiso   1.00
H527   H     0.63109   0.87433   0.37200   0.00000  Uiso   1.00
H528   H     0.48438   0.60973   0.17222   0.00000  Uiso   1.00
H529   H     0.57447   0.88799   0.29466   0.00000  Uiso   1.00
H530   H     0.57588   0.77768   0.13572   0.00000  Uiso   1.00
H531   H     0.45428   0.69123   0.36799   0.00000  Uiso   1.00
H532   H     0.42263   0.72668   0.02387   0.00000  Uiso   1.00
N533   N     0.50000   0.75001   0.12934   0.00000  Uiso   1.00
N534   N     0.50000   0.74999   0.37065   0.00000  Uiso   1.00
N535   N     0.59332   0.77689   0.04437   0.00000  Uiso   1.00
N536   N     0.45263   0.67673   0.46183   0.00000  Uiso   1.00
O537   O     0.50000   0.68572   0.29071   0.00000  Uiso   1.00
O538   O     0.41590   0.88173   0.20172   0.00000  Uiso   1.00
O539   O     0.48240   0.52397   0.16175   0.00000  Uiso   1.00
O540   O     0.58802   0.97509   0.29780   0.00000  Uiso   1.00
O541   O     0.41502   0.71709   0.11527   0.00000  Uiso   1.00
O542   O     0.55581   0.81366   0.37850   0.00000  Uiso   1.00
O543   O     0.50000   0.81427   0.20928   0.00000  Uiso   1.00
O544   O     0.50000   0.68573   0.20928   0.00000  Uiso   1.00
O545   O     0.50000   0.81427   0.29072   0.00000  Uiso   1.00
O546   O     0.42495   0.74999   0.28132   0.00000  Uiso   1.00
O547   O     0.57505   0.75000   0.21868   0.00000  Uiso   1.00
O548   O     0.42495   0.75000   0.19988   0.00000  Uiso   1.00
O549   O     0.57505   0.75000   0.30011   0.00000  Uiso   1.00
O550   O     0.53082   0.61529   0.33802   0.00000  Uiso   1.00
C551   C     0.83451   0.66487   0.25005   0.00000  Uiso   1.00
C552   C     0.85863   0.78299   0.44990   0.00000  Uiso   1.00
C553   C     0.83553   0.74929   0.02745   0.00000  Uiso   1.00
C554   C     0.83475   0.74841   0.47267   0.00000  Uiso   1.00
C555   C     0.73457   0.74994   0.23752   0.00000  Uiso   1.00
C556   C     0.93210   0.74993   0.26247   0.00000  Uiso   1.00
C557   C     0.67922   0.74997   0.23065   0.00000  Uiso   1.00
C558   C     0.98745   0.74973   0.26930   0.00000  Uiso   1.00
C559   C     0.84826   0.54710   0.29352   0.00000  Uiso   1.00
C560   C     0.79315   0.95147   0.22555   0.00000  Uiso   1.00
C561   C     0.85029   0.59323   0.29414   0.00000  Uiso   1.00
C562   C     0.83318   0.83480   0.25014   0.00000  Uiso   1.00
C563   C     0.79225   0.90522   0.22427   0.00000  Uiso   1.00
C564   C     0.83707   0.61637   0.25031   0.00000  Uiso   1.00
C565   C     0.83343   0.88270   0.25032   0.00000  Uiso   1.00
C566   C     0.82653   0.59268   0.20629   0.00000  Uiso   1.00
C567   C     0.87611   0.90585   0.27513   0.00000  Uiso   1.00
C568   C     0.82723   0.54656   0.20552   0.00000  Uiso   1.00
C569   C     0.87874   0.95203   0.27374   0.00000  Uiso   1.00
C570   C     0.83691   0.52358   0.24955   0.00000  Uiso   1.00
C571   C     0.83626   0.97499   0.24985   0.00000  Uiso   1.00
C572   C     0.91840   0.62243   0.34500   0.00000  Uiso   1.00
C573   C     0.87934   0.76372   0.06067   0.00000  Uiso   1.00
C574   C     0.93414   0.65094   0.39031   0.00000  Uiso   1.00
C575   C     0.74722   0.88495   0.15084   0.00000  Uiso   1.00
C576   C     0.70698   0.85176   0.12621   0.00000  Uiso   1.00
C577   C     0.86155   0.52046   0.14061   0.00000  Uiso   1.00
C578   C     0.85071   0.99103   0.09551   0.00000  Uiso   1.00
C579   C     0.96437   0.96879   0.27307   0.00000  Uiso   1.00
C580   C     0.67390   0.50177   0.29282   0.00000  Uiso   1.00
C581   C     0.95587   0.74200   0.02566   0.00000  Uiso   1.00
C582   C     0.82172   0.64400   0.48304   0.00000  Uiso   1.00
C583   C     0.74863   0.67018   0.11412   0.00000  Uiso   1.00
C584   C     0.80963   0.71405   0.44214   0.00000  Uiso   1.00
C585   C     0.70192   0.65203   0.08012   0.00000  Uiso   1.00
C586   C     0.94234   0.80955   0.39631   0.00000  Uiso   1.00
C587   C     0.97432   0.83912   0.36735   0.00000  Uiso   1.00
C588   C     0.87624   0.76522   0.11108   0.00000  Uiso   1.00
C589   C     0.80795   0.71679   0.39119   0.00000  Uiso   1.00
C590   C     0.79157   0.73409   0.09791   0.00000  Uiso   1.00
C591   C     0.86084   0.78175   0.39945   0.00000  Uiso   1.00
C592   C     0.79123   0.73602   0.04735   0.00000  Uiso   1.00
Cu593  Cu    0.83333   0.74999   0.29821   0.00000  Uiso   1.00
Cu594  Cu    0.83333   0.75000   0.20178   0.00000  Uiso   1.00
H595   H     0.99244   0.75023   0.19364   0.00000  Uiso   1.00
H596   H     0.87602   0.81104   0.47105   0.00000  Uiso   1.00
H597   H     0.93144   0.64013   0.31367   0.00000  Uiso   1.00
H598   H     0.93859   0.59032   0.35000   0.00000  Uiso   1.00
H599   H     0.97663   0.65729   0.39550   0.00000  Uiso   1.00
H600   H     0.91439   0.68317   0.38648   0.00000  Uiso   1.00
H601   H     0.92364   0.63372   0.42276   0.00000  Uiso   1.00
H602   H     0.78517   0.87716   0.13903   0.00000  Uiso   1.00
H603   H     0.73578   0.91875   0.13857   0.00000  Uiso   1.00
H604   H     0.66843   0.85865   0.13678   0.00000  Uiso   1.00
H605   H     0.70459   0.85424   0.08613   0.00000  Uiso   1.00
H606   H     0.67425   0.74944   0.30631   0.00000  Uiso   1.00
H607   H     0.71792   0.81757   0.13711   0.00000  Uiso   1.00
H608   H     0.89290   0.50517   0.16605   0.00000  Uiso   1.00
H609   H     0.87497   0.55366   0.12967   0.00000  Uiso   1.00
H610   H     0.82013   0.50562   0.06888   0.00000  Uiso   1.00
H611   H     0.88648   0.98794   0.07847   0.00000  Uiso   1.00
H612   H     0.83761   0.95753   0.10553   0.00000  Uiso   1.00
H613   H     0.95443   0.97448   0.23330   0.00000  Uiso   1.00
H614   H     0.97932   0.93477   0.27904   0.00000  Uiso   1.00
H615   H     0.68558   0.99656   0.33230   0.00000  Uiso   1.00
H616   H     0.70806   0.99726   0.27375   0.00000  Uiso   1.00
H617   H     0.85600   0.52966   0.32758   0.00000  Uiso   1.00
H618   H     0.99349   0.53614   0.28705   0.00000  Uiso   1.00
H619   H     0.94928   0.79948   0.06646   0.00000  Uiso   1.00
H620   H     0.99283   0.73786   0.05014   0.00000  Uiso   1.00
H621   H     0.96501   0.75131   0.48927   0.00000  Uiso   1.00
H622   H     0.93421   0.70975   0.02229   0.00000  Uiso   1.00
H623   H     0.75538   0.66262   0.43881   0.00000  Uiso   1.00
H624   H     0.80024   0.61817   0.00081   0.00000  Uiso   1.00
H625   H     0.85155   0.65928   0.01104   0.00000  Uiso   1.00
H626   H     0.84080   0.62803   0.45434   0.00000  Uiso   1.00
H627   H     0.74526   0.65829   0.15123   0.00000  Uiso   1.00
H628   H     0.76005   0.96903   0.20789   0.00000  Uiso   1.00
H629   H     0.78442   0.65567   0.10327   0.00000  Uiso   1.00
H630   H     0.70395   0.66263   0.04230   0.00000  Uiso   1.00
H631   H     0.70132   0.61528   0.08100   0.00000  Uiso   1.00
H632   H     0.99901   0.66404   0.09185   0.00000  Uiso   1.00
H633   H     0.95502   0.77478   0.39273   0.00000  Uiso   1.00
H634   H     0.95075   0.82031   0.43503   0.00000  Uiso   1.00
H635   H     0.68281   0.83516   0.38045   0.00000  Uiso   1.00
H636   H     0.96673   0.82990   0.32822   0.00000  Uiso   1.00
H637   H     0.96443   0.87433   0.37200   0.00000  Uiso   1.00
H638   H     0.81772   0.60973   0.17222   0.00000  Uiso   1.00
H639   H     0.90780   0.88799   0.29466   0.00000  Uiso   1.00
H640   H     0.90921   0.77768   0.13572   0.00000  Uiso   1.00
H641   H     0.78761   0.69123   0.36799   0.00000  Uiso   1.00
H642   H     0.75596   0.72668   0.02387   0.00000  Uiso   1.00
N643   N     0.83333   0.75001   0.12934   0.00000  Uiso   1.00
N644   N     0.83333   0.74999   0.37065   0.00000  Uiso   1.00
N645   N     0.92665   0.77689   0.04437   0.00000  Uiso   1.00
N646   N     0.78597   0.67673   0.46183   0.00000  Uiso   1.00
O647   O     0.83334   0.68572   0.29071   0.00000  Uiso   1.00
O648   O     0.74924   0.88173   0.20172   0.00000  Uiso   1.00
O649   O     0.81574   0.52397   0.16175   0.00000  Uiso   1.00
O650   O     0.92135   0.97509   0.29780   0.00000  Uiso   1.00
O651   O     0.74835   0.71709   0.11527   0.00000  Uiso   1.00
O652   O     0.88914   0.81366   0.37850   0.00000  Uiso   1.00
O653   O     0.83333   0.81427   0.20928   0.00000  Uiso   1.00
O654   O     0.83334   0.68573   0.20928   0.00000  Uiso   1.00
O655   O     0.83333   0.81427   0.29072   0.00000  Uiso   1.00
O656   O     0.75828   0.74999   0.28132   0.00000  Uiso   1.00
O657   O     0.90839   0.75000   0.21868   0.00000  Uiso   1.00
O658   O     0.75828   0.75000   0.19988   0.00000  Uiso   1.00
O659   O     0.90839   0.75000   0.30011   0.00000  Uiso   1.00
O660   O     0.86415   0.61529   0.33802   0.00000  Uiso   1.00
C661   C     0.16784   0.16487   0.75005   0.00000  Uiso   1.00
C662   C     0.19197   0.28299   0.94990   0.00000  Uiso   1.00
C663   C     0.16886   0.24929   0.52745   0.00000  Uiso   1.00
C664   C     0.16809   0.24841   0.97267   0.00000  Uiso   1.00
C665   C     0.06790   0.24994   0.73752   0.00000  Uiso   1.00
C666   C     0.26543   0.24993   0.76247   0.00000  Uiso   1.00
C667   C     0.01255   0.24997   0.73065   0.00000  Uiso   1.00
C668   C     0.32078   0.24973   0.76930   0.00000  Uiso   1.00
C669   C     0.18160   0.04710   0.79352   0.00000  Uiso   1.00
C670   C     0.12648   0.45147   0.72555   0.00000  Uiso   1.00
C671   C     0.18362   0.09323   0.79414   0.00000  Uiso   1.00
C672   C     0.16652   0.33480   0.75014   0.00000  Uiso   1.00
C673   C     0.12558   0.40522   0.72427   0.00000  Uiso   1.00
C674   C     0.17041   0.11637   0.75031   0.00000  Uiso   1.00
C675   C     0.16676   0.38270   0.75032   0.00000  Uiso   1.00
C676   C     0.15986   0.09268   0.70629   0.00000  Uiso   1.00
C677   C     0.20945   0.40585   0.77513   0.00000  Uiso   1.00
C678   C     0.16057   0.04656   0.70552   0.00000  Uiso   1.00
C679   C     0.21208   0.45203   0.77374   0.00000  Uiso   1.00
C680   C     0.17024   0.02358   0.74955   0.00000  Uiso   1.00
C681   C     0.16960   0.47499   0.74985   0.00000  Uiso   1.00
C682   C     0.25173   0.12243   0.84500   0.00000  Uiso   1.00
C683   C     0.21268   0.26372   0.56067   0.00000  Uiso   1.00
C684   C     0.26747   0.15094   0.89031   0.00000  Uiso   1.00
C685   C     0.08055   0.38495   0.65084   0.00000  Uiso   1.00
C686   C     0.04032   0.35176   0.62621   0.00000  Uiso   1.00
C687   C     0.19488   0.02046   0.64061   0.00000  Uiso   1.00
C688   C     0.18404   0.49103   0.59551   0.00000  Uiso   1.00
C689   C     0.29770   0.46879   0.77307   0.00000  Uiso   1.00
C690   C     0.00723   0.00177   0.79282   0.00000  Uiso   1.00
C691   C     0.28921   0.24200   0.52566   0.00000  Uiso   1.00
C692   C     0.15505   0.14400   0.98304   0.00000  Uiso   1.00
C693   C     0.08197   0.17018   0.61412   0.00000  Uiso   1.00
C694   C     0.14296   0.21405   0.94214   0.00000  Uiso   1.00
C695   C     0.03525   0.15203   0.58012   0.00000  Uiso   1.00
C696   C     0.27567   0.30955   0.89631   0.00000  Uiso   1.00
C697   C     0.30765   0.33912   0.86735   0.00000  Uiso   1.00
C698   C     0.20957   0.26522   0.61108   0.00000  Uiso   1.00
C699   C     0.14129   0.21679   0.89119   0.00000  Uiso   1.00
C700   C     0.12490   0.23409   0.59791   0.00000  Uiso   1.00
C701   C     0.19417   0.28175   0.89945   0.00000  Uiso   1.00
C702   C     0.12456   0.23602   0.54735   0.00000  Uiso   1.00
Cu703  Cu    0.16667   0.24999   0.79821   0.00000  Uiso   1.00
Cu704  Cu    0.16667   0.25000   0.70178   0.00000  Uiso   1.00
H705   H     0.32577   0.25023   0.69364   0.00000  Uiso   1.00
H706   H     0.20935   0.31104   0.97105   0.00000  Uiso   1.00
H707   H     0.26478   0.14013   0.81367   0.00000  Uiso   1.00
H708   H     0.27193   0.09032   0.85000   0.00000  Uiso   1.00
H709   H     0.30997   0.15729   0.89550   0.00000  Uiso   1.00
H710   H     0.24772   0.18317   0.88648   0.00000  Uiso   1.00
H711   H     0.25698   0.13372   0.92276   0.00000  Uiso   1.00
H712   H     0.11851   0.37716   0.63903   0.00000  Uiso   1.00
H713   H     0.06911   0.41875   0.63857   0.00000  Uiso   1.00
H714   H     0.00176   0.35865   0.63678   0.00000  Uiso   1.00
H715   H     0.03793   0.35424   0.58613   0.00000  Uiso   1.00
H716   H     0.00758   0.24944   0.80631   0.00000  Uiso   1.00
H717   H     0.05125   0.31757   0.63711   0.00000  Uiso   1.00
H718   H     0.22624   0.00517   0.66605   0.00000  Uiso   1.00
H719   H     0.20830   0.05366   0.62967   0.00000  Uiso   1.00
H720   H     0.15347   0.00562   0.56888   0.00000  Uiso   1.00
H721   H     0.21981   0.48794   0.57847   0.00000  Uiso   1.00
H722   H     0.17094   0.45753   0.60553   0.00000  Uiso   1.00
H723   H     0.28776   0.47448   0.73330   0.00000  Uiso   1.00
H724   H     0.31265   0.43477   0.77904   0.00000  Uiso   1.00
H725   H     0.01892   0.49656   0.83230   0.00000  Uiso   1.00
H726   H     0.04139   0.49726   0.77375   0.00000  Uiso   1.00
H727   H     0.18933   0.02966   0.82758   0.00000  Uiso   1.00
H728   H     0.32682   0.03614   0.78705   0.00000  Uiso   1.00
H729   H     0.28261   0.29948   0.56646   0.00000  Uiso   1.00
H730   H     0.32616   0.23786   0.55014   0.00000  Uiso   1.00
H731   H     0.29835   0.25131   0.98927   0.00000  Uiso   1.00
H732   H     0.26755   0.20975   0.52229   0.00000  Uiso   1.00
H733   H     0.08872   0.16262   0.93881   0.00000  Uiso   1.00
H734   H     0.13357   0.11817   0.50081   0.00000  Uiso   1.00
H735   H     0.18488   0.15928   0.51104   0.00000  Uiso   1.00
H736   H     0.17414   0.12803   0.95434   0.00000  Uiso   1.00
H737   H     0.07860   0.15829   0.65123   0.00000  Uiso   1.00
H738   H     0.09339   0.46903   0.70789   0.00000  Uiso   1.00
H739   H     0.11775   0.15567   0.60327   0.00000  Uiso   1.00
H740   H     0.03728   0.16263   0.54230   0.00000  Uiso   1.00
H741   H     0.03465   0.11528   0.58100   0.00000  Uiso   1.00
H742   H     0.33234   0.16404   0.59185   0.00000  Uiso   1.00
H743   H     0.28836   0.27478   0.89273   0.00000  Uiso   1.00
H744   H     0.28408   0.32031   0.93503   0.00000  Uiso   1.00
H745   H     0.01615   0.33516   0.88045   0.00000  Uiso   1.00
H746   H     0.30006   0.32990   0.82822   0.00000  Uiso   1.00
H747   H     0.29776   0.37433   0.87200   0.00000  Uiso   1.00
H748   H     0.15105   0.10973   0.67222   0.00000  Uiso   1.00
H749   H     0.24113   0.38799   0.79466   0.00000  Uiso   1.00
H750   H     0.24255   0.27768   0.63572   0.00000  Uiso   1.00
H751   H     0.12095   0.19123   0.86799   0.00000  Uiso   1.00
H752   H     0.08930   0.22668   0.52387   0.00000  Uiso   1.00
N753   N     0.16667   0.25001   0.62934   0.00000  Uiso   1.00
N754   N     0.16667   0.24999   0.87065   0.00000  Uiso   1.00
N755   N     0.25998   0.27689   0.54437   0.00000  Uiso   1.00
N756   N     0.11930   0.17673   0.96183   0.00000  Uiso   1.00
O757   O     0.16667   0.18572   0.79071   0.00000  Uiso   1.00
O758   O     0.08257   0.38173   0.70172   0.00000  Uiso   1.00
O759   O     0.14907   0.02397   0.66175   0.00000  Uiso   1.00
O760   O     0.25468   0.47509   0.79780   0.00000  Uiso   1.00
O761   O     0.08168   0.21709   0.61527   0.00000  Uiso   1.00
O762   O     0.22248   0.31366   0.87850   0.00000  Uiso   1.00
O763   O     0.16666   0.31427   0.70928   0.00000  Uiso   1.00
O764   O     0.16667   0.18573   0.70928   0.00000  Uiso   1.00
O765   O     0.16666   0.31427   0.79072   0.00000  Uiso   1.00
O766   O     0.09161   0.24999   0.78132   0.00000  Uiso   1.00
O767   O     0.24172   0.25000   0.71868   0.00000  Uiso   1.00
O768   O     0.09161   0.25000   0.69988   0.00000  Uiso   1.00
O769   O     0.24172   0.25000   0.80011   0.00000  Uiso   1.00
O770   O     0.19748   0.11529   0.83802   0.00000  Uiso   1.00
C771   C     0.50118   0.16487   0.75005   0.00000  Uiso   1.00
C772   C     0.52530   0.28299   0.94990   0.00000  Uiso   1.00
C773   C     0.50219   0.24929   0.52745   0.00000  Uiso   1.00
C774   C     0.50142   0.24841   0.97267   0.00000  Uiso   1.00
C775   C     0.40123   0.24994   0.73752   0.00000  Uiso   1.00
C776   C     0.59876   0.24993   0.76247   0.00000  Uiso   1.00
C777   C     0.34588   0.24997   0.73065   0.00000  Uiso   1.00
C778   C     0.65411   0.24973   0.76930   0.00000  Uiso   1.00
C779   C     0.51493   0.04710   0.79352   0.00000  Uiso   1.00
C780   C     0.45981   0.45147   0.72555   0.00000  Uiso   1.00
C781   C     0.51696   0.09323   0.79414   0.00000  Uiso   1.00
C782   C     0.49985   0.33480   0.75014   0.00000  Uiso   1.00
C783   C     0.45892   0.40522   0.72427   0.00000  Uiso   1.00
C784   C     0.50374   0.11637   0.75031   0.00000  Uiso   1.00
C785   C     0.50009   0.38270   0.75032   0.00000  Uiso   1.00
C786   C     0.49319   0.09268   0.70629   0.00000  Uiso   1.00
C787   C     0.54278   0.40585   0.77513   0.00000  Uiso   1.00
C788   C     0.49390   0.04656   0.70552   0.00000  Uiso   1.00
C789   C     0.54541   0.45203   0.77374   0.00000  Uiso   1.00
C790   C     0.50357   0.02358   0.74955   0.00000  Uiso   1.00
C791   C     0.50293   0.47499   0.74985   0.00000  Uiso   1.00
C792   C     0.58507   0.12243   0.84500   0.00000  Uiso   1.00
C793   C     0.54601   0.26372   0.56067   0.00000  Uiso   1.00
C794   C     0.60080   0.15094   0.89031   0.00000  Uiso   1.00
C795   C     0.41388   0.38495   0.65084   0.00000  Uiso   1.00
C796   C     0.37365   0.35176   0.62621   0.00000  Uiso   1.00
C797   C     0.52821   0.02046   0.64061   0.00000  Uiso   1.00
C798   C     0.51738   0.49103   0.59551   0.00000  Uiso   1.00
C799   C     0.63103   0.46879   0.77307   0.00000  Uiso   1.00
C800   C     0.34057   0.00177   0.79282   0.00000  Uiso   1.00
C801   C     0.62254   0.24200   0.52566   0.00000  Uiso   1.00
C802   C     0.48839   0.14400   0.98304   0.00000  Uiso   1.00
C803   C     0.41530   0.17018   0.61412   0.00000  Uiso   1.00
C804   C     0.47630   0.21405   0.94214   0.00000  Uiso   1.00
C805   C     0.36859   0.15203   0.58012   0.00000  Uiso   1.00
C806   C     0.60900   0.30955   0.89631   0.00000  Uiso   1.00
C807   C     0.64099   0.33912   0.86735   0.00000  Uiso   1.00
C808   C     0.54290   0.26522   0.61108   0.00000  Uiso   1.00
C809   C     0.47462   0.21679   0.89119   0.00000  Uiso   1.00
C810   C     0.45824   0.23409   0.59791   0.00000  Uiso   1.00
C811   C     0.52750   0.28175   0.89945   0.00000  Uiso   1.00
C812   C     0.45790   0.23602   0.54735   0.00000  Uiso   1.00
Cu813  Cu    0.50000   0.24999   0.79821   0.00000  Uiso   1.00
Cu814  Cu    0.50000   0.25000   0.70178   0.00000  Uiso   1.00
H815   H     0.65911   0.25023   0.69364   0.00000  Uiso   1.00
H816   H     0.54269   0.31104   0.97105   0.00000  Uiso   1.00
H817   H     0.59811   0.14013   0.81367   0.00000  Uiso   1.00
H818   H     0.60526   0.09032   0.85000   0.00000  Uiso   1.00
H819   H     0.64330   0.15729   0.89550   0.00000  Uiso   1.00
H820   H     0.58105   0.18317   0.88648   0.00000  Uiso   1.00
H821   H     0.59031   0.13372   0.92276   0.00000  Uiso   1.00
H822   H     0.45184   0.37716   0.63903   0.00000  Uiso   1.00
H823   H     0.40244   0.41875   0.63857   0.00000  Uiso   1.00
H824   H     0.33510   0.35865   0.63678   0.00000  Uiso   1.00
H825   H     0.37126   0.35424   0.58613   0.00000  Uiso   1.00
H826   H     0.34091   0.24944   0.80631   0.00000  Uiso   1.00
H827   H     0.38458   0.31757   0.63711   0.00000  Uiso   1.00
H828   H     0.55957   0.00517   0.66605   0.00000  Uiso   1.00
H829   H     0.54164   0.05366   0.62967   0.00000  Uiso   1.00
H830   H     0.48680   0.00562   0.56888   0.00000  Uiso   1.00
H831   H     0.55315   0.48794   0.57847   0.00000  Uiso   1.00
H832   H     0.50427   0.45753   0.60553   0.00000  Uiso   1.00
H833   H     0.62109   0.47448   0.73330   0.00000  Uiso   1.00
H834   H     0.64598   0.43477   0.77904   0.00000  Uiso   1.00
H835   H     0.35225   0.49656   0.83230   0.00000  Uiso   1.00
H836   H     0.37473   0.49726   0.77375   0.00000  Uiso   1.00
H837   H     0.52266   0.02966   0.82758   0.00000  Uiso   1.00
H838   H     0.66016   0.03614   0.78705   0.00000  Uiso   1.00
H839   H     0.61595   0.29948   0.56646   0.00000  Uiso   1.00
H840   H     0.65950   0.23786   0.55014   0.00000  Uiso   1.00
H841   H     0.63168   0.25131   0.98927   0.00000  Uiso   1.00
H842   H     0.60088   0.20975   0.52229   0.00000  Uiso   1.00
H843   H     0.42205   0.16262   0.93881   0.00000  Uiso   1.00
H844   H     0.46691   0.11817   0.50081   0.00000  Uiso   1.00
H845   H     0.51822   0.15928   0.51104   0.00000  Uiso   1.00
H846   H     0.50747   0.12803   0.95434   0.00000  Uiso   1.00
H847   H     0.41193   0.15829   0.65123   0.00000  Uiso   1.00
H848   H     0.42672   0.46903   0.70789   0.00000  Uiso   1.00
H849   H     0.45109   0.15567   0.60327   0.00000  Uiso   1.00
H850   H     0.37061   0.16263   0.54230   0.00000  Uiso   1.00
H851   H     0.36799   0.11528   0.58100   0.00000  Uiso   1.00
H852   H     0.66567   0.16404   0.59185   0.00000  Uiso   1.00
H853   H     0.62169   0.27478   0.89273   0.00000  Uiso   1.00
H854   H     0.61741   0.32031   0.93503   0.00000  Uiso   1.00
H855   H     0.34948   0.33516   0.88045   0.00000  Uiso   1.00
H856   H     0.63339   0.32990   0.82822   0.00000  Uiso   1.00
H857   H     0.63109   0.37433   0.87200   0.00000  Uiso   1.00
H858   H     0.48438   0.10973   0.67222   0.00000  Uiso   1.00
H859   H     0.57447   0.38799   0.79466   0.00000  Uiso   1.00
H860   H     0.57588   0.27768   0.63572   0.00000  Uiso   1.00
H861   H     0.45428   0.19123   0.86799   0.00000  Uiso   1.00
H862   H     0.42263   0.22668   0.52387   0.00000  Uiso   1.00
N863   N     0.50000   0.25001   0.62934   0.00000  Uiso   1.00
N864   N     0.50000   0.24999   0.87065   0.00000  Uiso   1.00
N865   N     0.59332   0.27689   0.54437   0.00000  Uiso   1.00
N866   N     0.45263   0.17673   0.96183   0.00000  Uiso   1.00
O867   O     0.50000   0.18572   0.79071   0.00000  Uiso   1.00
O868   O     0.41590   0.38173   0.70172   0.00000  Uiso   1.00
O869   O     0.48240   0.02397   0.66175   0.00000  Uiso   1.00
O870   O     0.58802   0.47509   0.79780   0.00000  Uiso   1.00
O871   O     0.41502   0.21709   0.61527   0.00000  Uiso   1.00
O872   O     0.55581   0.31366   0.87850   0.00000  Uiso   1.00
O873   O     0.50000   0.31427   0.70928   0.00000  Uiso   1.00
O874   O     0.50000   0.18573   0.70928   0.00000  Uiso   1.00
O875   O     0.50000   0.31427   0.79072   0.00000  Uiso   1.00
O876   O     0.42495   0.24999   0.78132   0.00000  Uiso   1.00
O877   O     0.57505   0.25000   0.71868   0.00000  Uiso   1.00
O878   O     0.42495   0.25000   0.69988   0.00000  Uiso   1.00
O879   O     0.57505   0.25000   0.80011   0.00000  Uiso   1.00
O880   O     0.53082   0.11529   0.83802   0.00000  Uiso   1.00
C881   C     0.83451   0.16487   0.75005   0.00000  Uiso   1.00
C882   C     0.85863   0.28299   0.94990   0.00000  Uiso   1.00
C883   C     0.83553   0.24929   0.52745   0.00000  Uiso   1.00
C884   C     0.83475   0.24841   0.97267   0.00000  Uiso   1.00
C885   C     0.73457   0.24994   0.73752   0.00000  Uiso   1.00
C886   C     0.93210   0.24993   0.76247   0.00000  Uiso   1.00
C887   C     0.67922   0.24997   0.73065   0.00000  Uiso   1.00
C888   C     0.98745   0.24973   0.76930   0.00000  Uiso   1.00
C889   C     0.84826   0.04710   0.79352   0.00000  Uiso   1.00
C890   C     0.79315   0.45147   0.72555   0.00000  Uiso   1.00
C891   C     0.85029   0.09323   0.79414   0.00000  Uiso   1.00
C892   C     0.83318   0.33480   0.75014   0.00000  Uiso   1.00
C893   C     0.79225   0.40522   0.72427   0.00000  Uiso   1.00
C894   C     0.83707   0.11637   0.75031   0.00000  Uiso   1.00
C895   C     0.83343   0.38270   0.75032   0.00000  Uiso   1.00
C896   C     0.82653   0.09268   0.70629   0.00000  Uiso   1.00
C897   C     0.87611   0.40585   0.77513   0.00000  Uiso   1.00
C898   C     0.82723   0.04656   0.70552   0.00000  Uiso   1.00
C899   C     0.87874   0.45203   0.77374   0.00000  Uiso   1.00
C900   C     0.83691   0.02358   0.74955   0.00000  Uiso   1.00
C901   C     0.83626   0.47499   0.74985   0.00000  Uiso   1.00
C902   C     0.91840   0.12243   0.84500   0.00000  Uiso   1.00
C903   C     0.87934   0.26372   0.56067   0.00000  Uiso   1.00
C904   C     0.93414   0.15094   0.89031   0.00000  Uiso   1.00
C905   C     0.74722   0.38495   0.65084   0.00000  Uiso   1.00
C906   C     0.70698   0.35176   0.62621   0.00000  Uiso   1.00
C907   C     0.86155   0.02046   0.64061   0.00000  Uiso   1.00
C908   C     0.85071   0.49103   0.59551   0.00000  Uiso   1.00
C909   C     0.96437   0.46879   0.77307   0.00000  Uiso   1.00
C910   C     0.67390   0.00177   0.79282   0.00000  Uiso   1.00
C911   C     0.95587   0.24200   0.52566   0.00000  Uiso   1.00
C912   C     0.82172   0.14400   0.98304   0.00000  Uiso   1.00
C913   C     0.74863   0.17018   0.61412   0.00000  Uiso   1.00
C914   C     0.80963   0.21405   0.94214   0.00000  Uiso   1.00
C915   C     0.70192   0.15203   0.58012   0.00000  Uiso   1.00
C916   C     0.94234   0.30955   0.89631   0.00000  Uiso   1.00
C917   C     0.97432   0.33912   0.86735   0.00000  Uiso   1.00
C918   C     0.87624   0.26522   0.61108   0.00000  Uiso   1.00
C919   C     0.80795   0.21679   0.89119   0.00000  Uiso   1.00
C920   C     0.79157   0.23409   0.59791   0.00000  Uiso   1.00
C921   C     0.86084   0.28175   0.89945   0.00000  Uiso   1.00
C922   C     0.79123   0.23602   0.54735   0.00000  Uiso   1.00
Cu923  Cu    0.83333   0.24999   0.79821   0.00000  Uiso   1.00
Cu924  Cu    0.83333   0.25000   0.70178   0.00000  Uiso   1.00
H925   H     0.99244   0.25023   0.69364   0.00000  Uiso   1.00
H926   H     0.87602   0.31104   0.97105   0.00000  Uiso   1.00
H927   H     0.93144   0.14013   0.81367   0.00000  Uiso   1.00
H928   H     0.93859   0.09032   0.85000   0.00000  Uiso   1.00
H929   H     0.97663   0.15729   0.89550   0.00000  Uiso   1.00
H930   H     0.91439   0.18317   0.88648   0.00000  Uiso   1.00
H931   H     0.92364   0.13372   0.92276   0.00000  Uiso   1.00
H932   H     0.78517   0.37716   0.63903   0.00000  Uiso   1.00
H933   H     0.73578   0.41875   0.63857   0.00000  Uiso   1.00
H934   H     0.66843   0.35865   0.63678   0.00000  Uiso   1.00
H935   H     0.70459   0.35424   0.58613   0.00000  Uiso   1.00
H936   H     0.67425   0.24944   0.80631   0.00000  Uiso   1.00
H937   H     0.71792   0.31757   0.63711   0.00000  Uiso   1.00
H938   H     0.89290   0.00517   0.66605   0.00000  Uiso   1.00
H939   H     0.87497   0.05366   0.62967   0.00000  Uiso   1.00
H940   H     0.82013   0.00562   0.56888   0.00000  Uiso   1.00
H941   H     0.88648   0.48794   0.57847   0.00000  Uiso   1.00
H942   H     0.83761   0.45753   0.60553   0.00000  Uiso   1.00
H943   H     0.95443   0.47448   0.73330   0.00000  Uiso   1.00
H944   H     0.97932   0.43477   0.77904   0.00000  Uiso   1.00
H945   H     0.68558   0.49656   0.83230   0.00000  Uiso   1.00
H946   H     0.70806   0.49726   0.77375   0.00000  Uiso   1.00
H947   H     0.85600   0.02966   0.82758   0.00000  Uiso   1.00
H948   H     0.99349   0.03614   0.78705   0.00000  Uiso   1.00
H949   H     0.94928   0.29948   0.56646   0.00000  Uiso   1.00
H950   H     0.99283   0.23786   0.55014   0.00000  Uiso   1.00
H951   H     0.96501   0.25131   0.98927   0.00000  Uiso   1.00
H952   H     0.93421   0.20975   0.52229   0.00000  Uiso   1.00
H953   H     0.75538   0.16262   0.93881   0.00000  Uiso   1.00
H954   H     0.80024   0.11817   0.50081   0.00000  Uiso   1.00
H955   H     0.85155   0.15928   0.51104   0.00000  Uiso   1.00
H956   H     0.84080   0.12803   0.95434   0.00000  Uiso   1.00
H957   H     0.74526   0.15829   0.65123   0.00000  Uiso   1.00
H958   H     0.76005   0.46903   0.70789   0.00000  Uiso   1.00
H959   H     0.78442   0.15567   0.60327   0.00000  Uiso   1.00
H960   H     0.70395   0.16263   0.54230   0.00000  Uiso   1.00
H961   H     0.70132   0.11528   0.58100   0.00000  Uiso   1.00
H962   H     0.99901   0.16404   0.59185   0.00000  Uiso   1.00
H963   H     0.95502   0.27478   0.89273   0.00000  Uiso   1.00
H964   H     0.95075   0.32031   0.93503   0.00000  Uiso   1.00
H965   H     0.68281   0.33516   0.88045   0.00000  Uiso   1.00
H966   H     0.96673   0.32990   0.82822   0.00000  Uiso   1.00
H967   H     0.96443   0.37433   0.87200   0.00000  Uiso   1.00
H968   H     0.81772   0.10973   0.67222   0.00000  Uiso   1.00
H969   H     0.90780   0.38799   0.79466   0.00000  Uiso   1.00
H970   H     0.90921   0.27768   0.63572   0.00000  Uiso   1.00
H971   H     0.78761   0.19123   0.86799   0.00000  Uiso   1.00
H972   H     0.75596   0.22668   0.52387   0.00000  Uiso   1.00
N973   N     0.83333   0.25001   0.62934   0.00000  Uiso   1.00
N974   N     0.83333   0.24999   0.87065   0.00000  Uiso   1.00
N975   N     0.92665   0.27689   0.54437   0.00000  Uiso   1.00
N976   N     0.78597   0.17673   0.96183   0.00000  Uiso   1.00
O977   O     0.83334   0.18572   0.79071   0.00000  Uiso   1.00
O978   O     0.74924   0.38173   0.70172   0.00000  Uiso   1.00
O979   O     0.81574   0.02397   0.66175   0.00000  Uiso   1.00
O980   O     0.92135   0.47509   0.79780   0.00000  Uiso   1.00
O981   O     0.74835   0.21709   0.61527   0.00000  Uiso   1.00
O982   O     0.88914   0.31366   0.87850   0.00000  Uiso   1.00
O983   O     0.83333   0.31427   0.70928   0.00000  Uiso   1.00
O984   O     0.83334   0.18573   0.70928   0.00000  Uiso   1.00
O985   O     0.83333   0.31427   0.79072   0.00000  Uiso   1.00
O986   O     0.75828   0.24999   0.78132   0.00000  Uiso   1.00
O987   O     0.90839   0.25000   0.71868   0.00000  Uiso   1.00
O988   O     0.75828   0.25000   0.69988   0.00000  Uiso   1.00
O989   O     0.90839   0.25000   0.80011   0.00000  Uiso   1.00
O990   O     0.86415   0.11529   0.83802   0.00000  Uiso   1.00
C991   C     0.16784   0.66487   0.75005   0.00000  Uiso   1.00
C992   C     0.19197   0.78299   0.94990   0.00000  Uiso   1.00
C993   C     0.16886   0.74929   0.52745   0.00000  Uiso   1.00
C994   C     0.16809   0.74841   0.97267   0.00000  Uiso   1.00
C995   C     0.06790   0.74994   0.73752   0.00000  Uiso   1.00
C996   C     0.26543   0.74993   0.76247   0.00000  Uiso   1.00
C997   C     0.01255   0.74997   0.73065   0.00000  Uiso   1.00
C998   C     0.32078   0.74973   0.76930   0.00000  Uiso   1.00
C999   C     0.18160   0.54710   0.79352   0.00000  Uiso   1.00
C1000  C     0.12648   0.95147   0.72555   0.00000  Uiso   1.00
C1001  C     0.18362   0.59323   0.79414   0.00000  Uiso   1.00
C1002  C     0.16652   0.83480   0.75014   0.00000  Uiso   1.00
C1003  C     0.12558   0.90522   0.72427   0.00000  Uiso   1.00
C1004  C     0.17041   0.61637   0.75031   0.00000  Uiso   1.00
C1005  C     0.16676   0.88270   0.75032   0.00000  Uiso   1.00
C1006  C     0.15986   0.59268   0.70629   0.00000  Uiso   1.00
C1007  C     0.20945   0.90585   0.77513   0.00000  Uiso   1.00
C1008  C     0.16057   0.54656   0.70552   0.00000  Uiso   1.00
C1009  C     0.21208   0.95203   0.77374   0.00000  Uiso   1.00
C1010  C     0.17024   0.52358   0.74955   0.00000  Uiso   1.00
C1011  C     0.16960   0.97499   0.74985   0.00000  Uiso   1.00
C1012  C     0.25173   0.62243   0.84500   0.00000  Uiso   1.00
C1013  C     0.21268   0.76372   0.56067   0.00000  Uiso   1.00
C1014  C     0.26747   0.65094   0.89031   0.00000  Uiso   1.00
C1015  C     0.08055   0.88495   0.65084   0.00000  Uiso   1.00
C1016  C     0.04032   0.85176   0.62621   0.00000  Uiso   1.00
C1017  C     0.19488   0.52046   0.64061   0.00000  Uiso   1.00
C1018  C     0.18404   0.99103   0.59551   0.00000  Uiso   1.00
C1019  C     0.29770   0.96879   0.77307   0.00000  Uiso   1.00
C1020  C     0.00723   0.50177   0.79282   0.00000  Uiso   1.00
C1021  C     0.28921   0.74200   0.52566   0.00000  Uiso   1.00
C1022  C     0.15505   0.64400   0.98304   0.00000  Uiso   1.00
C1023  C     0.08197   0.67018   0.61412   0.00000  Uiso   1.00
C1024  C     0.14296   0.71405   0.94214   0.00000  Uiso   1.00
C1025  C     0.03525   0.65203   0.58012   0.00000  Uiso   1.00
C1026  C     0.27567   0.80955   0.89631   0.00000  Uiso   1.00
C1027  C     0.30765   0.83912   0.86735   0.00000  Uiso   1.00
C1028  C     0.20957   0.76522   0.61108   0.00000  Uiso   1.00
C1029  C     0.14129   0.71679   0.89119   0.00000  Uiso   1.00
C1030  C     0.12490   0.73409   0.59791   0.00000  Uiso   1.00
C1031  C     0.19417   0.78175   0.89945   0.00000  Uiso   1.00
C1032  C     0.12456   0.73602   0.54735   0.00000  Uiso   1.00
Cu1033 Cu    0.16667   0.74999   0.79821   0.00000  Uiso   1.00
Cu1034 Cu    0.16667   0.75000   0.70178   0.00000  Uiso   1.00
H1035  H     0.32577   0.75023   0.69364   0.00000  Uiso   1.00
H1036  H     0.20935   0.81104   0.97105   0.00000  Uiso   1.00
H1037  H     0.26478   0.64013   0.81367   0.00000  Uiso   1.00
H1038  H     0.27193   0.59032   0.85000   0.00000  Uiso   1.00
H1039  H     0.30997   0.65729   0.89550   0.00000  Uiso   1.00
H1040  H     0.24772   0.68317   0.88648   0.00000  Uiso   1.00
H1041  H     0.25698   0.63372   0.92276   0.00000  Uiso   1.00
H1042  H     0.11851   0.87716   0.63903   0.00000  Uiso   1.00
H1043  H     0.06911   0.91875   0.63857   0.00000  Uiso   1.00
H1044  H     0.00176   0.85865   0.63678   0.00000  Uiso   1.00
H1045  H     0.03793   0.85424   0.58613   0.00000  Uiso   1.00
H1046  H     0.00758   0.74944   0.80631   0.00000  Uiso   1.00
H1047  H     0.05125   0.81757   0.63711   0.00000  Uiso   1.00
H1048  H     0.22624   0.50517   0.66605   0.00000  Uiso   1.00
H1049  H     0.20830   0.55366   0.62967   0.00000  Uiso   1.00
H1050  H     0.15347   0.50562   0.56888   0.00000  Uiso   1.00
H1051  H     0.21981   0.98794   0.57847   0.00000  Uiso   1.00
H1052  H     0.17094   0.95753   0.60553   0.00000  Uiso   1.00
H1053  H     0.28776   0.97448   0.73330   0.00000  Uiso   1.00
H1054  H     0.31265   0.93477   0.77904   0.00000  Uiso   1.00
H1055  H     0.01892   0.99656   0.83230   0.00000  Uiso   1.00
H1056  H     0.04139   0.99726   0.77375   0.00000  Uiso   1.00
H1057  H     0.18933   0.52966   0.82758   0.00000  Uiso   1.00
H1058  H     0.32682   0.53614   0.78705   0.00000  Uiso   1.00
H1059  H     0.28261   0.79948   0.56646   0.00000  Uiso   1.00
H1060  H     0.32616   0.73786   0.55014   0.00000  Uiso   1.00
H1061  H     0.29835   0.75131   0.98927   0.00000  Uiso   1.00
H1062  H     0.26755   0.70975   0.52229   0.00000  Uiso   1.00
H1063  H     0.08872   0.66262   0.93881   0.00000  Uiso   1.00
H1064  H     0.13357   0.61817   0.50081   0.00000  Uiso   1.00
H1065  H     0.18488   0.65928   0.51104   0.00000  Uiso   1.00
H1066  H     0.17414   0.62803   0.95434   0.00000  Uiso   1.00
H1067  H     0.07860   0.65829   0.65123   0.00000  Uiso   1.00
H1068  H     0.09339   0.96903   0.70789   0.00000  Uiso   1.00
H1069  H     0.11775   0.65567   0.60327   0.00000  Uiso   1.00
H1070  H     0.03728   0.66263   0.54230   0.00000  Uiso   1.00
H1071  H     0.03465   0.61528   0.58100   0.00000  Uiso   1.00
H1072  H     0.33234   0.66404   0.59185   0.00000  Uiso   1.00
H1073  H     0.28836   0.77478   0.89273   0.00000  Uiso   1.00
H1074  H     0.28408   0.82031   0.93503   0.00000  Uiso   1.00
H1075  H     0.01615   0.83516   0.88045   0.00000  Uiso   1.00
H1076  H     0.30006   0.82990   0.82822   0.00000  Uiso   1.00
H1077  H     0.29776   0.87433   0.87200   0.00000  Uiso   1.00
H1078  H     0.15105   0.60973   0.67222   0.00000  Uiso   1.00
H1079  H     0.24113   0.88799   0.79466   0.00000  Uiso   1.00
H1080  H     0.24255   0.77768   0.63572   0.00000  Uiso   1.00
H1081  H     0.12095   0.69123   0.86799   0.00000  Uiso   1.00
H1082  H     0.08930   0.72668   0.52387   0.00000  Uiso   1.00
N1083  N     0.16667   0.75001   0.62934   0.00000  Uiso   1.00
N1084  N     0.16667   0.74999   0.87065   0.00000  Uiso   1.00
N1085  N     0.25998   0.77689   0.54437   0.00000  Uiso   1.00
N1086  N     0.11930   0.67673   0.96183   0.00000  Uiso   1.00
O1087  O     0.16667   0.68572   0.79071   0.00000  Uiso   1.00
O1088  O     0.08257   0.88173   0.70172   0.00000  Uiso   1.00
O1089  O     0.14907   0.52397   0.66175   0.00000  Uiso   1.00
O1090  O     0.25468   0.97509   0.79780   0.00000  Uiso   1.00
O1091  O     0.08168   0.71709   0.61527   0.00000  Uiso   1.00
O1092  O     0.22248   0.81366   0.87850   0.00000  Uiso   1.00
O1093  O     0.16666   0.81427   0.70928   0.00000  Uiso   1.00
O1094  O     0.16667   0.68573   0.70928   0.00000  Uiso   1.00
O1095  O     0.16666   0.81427   0.79072   0.00000  Uiso   1.00
O1096  O     0.09161   0.74999   0.78132   0.00000  Uiso   1.00
O1097  O     0.24172   0.75000   0.71868   0.00000  Uiso   1.00
O1098  O     0.09161   0.75000   0.69988   0.00000  Uiso   1.00
O1099  O     0.24172   0.75000   0.80011   0.00000  Uiso   1.00
O1100  O     0.19748   0.61529   0.83802   0.00000  Uiso   1.00
C1101  C     0.50118   0.66487   0.75005   0.00000  Uiso   1.00
C1102  C     0.52530   0.78299   0.94990   0.00000  Uiso   1.00
C1103  C     0.50219   0.74929   0.52745   0.00000  Uiso   1.00
C1104  C     0.50142   0.74841   0.97267   0.00000  Uiso   1.00
C1105  C     0.40123   0.74994   0.73752   0.00000  Uiso   1.00
C1106  C     0.59876   0.74993   0.76247   0.00000  Uiso   1.00
C1107  C     0.34588   0.74997   0.73065   0.00000  Uiso   1.00
C1108  C     0.65411   0.74973   0.76930   0.00000  Uiso   1.00
C1109  C     0.51493   0.54710   0.79352   0.00000  Uiso   1.00
C1110  C     0.45981   0.95147   0.72555   0.00000  Uiso   1.00
C1111  C     0.51696   0.59323   0.79414   0.00000  Uiso   1.00
C1112  C     0.49985   0.83480   0.75014   0.00000  Uiso   1.00
C1113  C     0.45892   0.90522   0.72427   0.00000  Uiso   1.00
C1114  C     0.50374   0.61637   0.75031   0.00000  Uiso   1.00
C1115  C     0.50009   0.88270   0.75032   0.00000  Uiso   1.00
C1116  C     0.49319   0.59268   0.70629   0.00000  Uiso   1.00
C1117  C     0.54278   0.90585   0.77513   0.00000  Uiso   1.00
C1118  C     0.49390   0.54656   0.70552   0.00000  Uiso   1.00
C1119  C     0.54541   0.95203   0.77374   0.00000  Uiso   1.00
C1120  C     0.50357   0.52358   0.74955   0.00000  Uiso   1.00
C1121  C     0.50293   0.97499   0.74985   0.00000  Uiso   1.00
C1122  C     0.58507   0.62243   0.84500   0.00000  Uiso   1.00
C1123  C     0.54601   0.76372   0.56067   0.00000  Uiso   1.00
C1124  C     0.60080   0.65094   0.89031   0.00000  Uiso   1.00
C1125  C     0.41388   0.88495   0.65084   0.00000  Uiso   1.00
C1126  C     0.37365   0.85176   0.62621   0.00000  Uiso   1.00
C1127  C     0.52821   0.52046   0.64061   0.00000  Uiso   1.00
C1128  C     0.51738   0.99103   0.59551   0.00000  Uiso   1.00
C1129  C     0.63103   0.96879   0.77307   0.00000  Uiso   1.00
C1130  C     0.34057   0.50177   0.79282   0.00000  Uiso   1.00
C1131  C     0.62254   0.74200   0.52566   0.00000  Uiso   1.00
C1132  C     0.48839   0.64400   0.98304   0.00000  Uiso   1.00
C1133  C     0.41530   0.67018   0.61412   0.00000  Uiso   1.00
C1134  C     0.47630   0.71405   0.94214   0.00000  Uiso   1.00
C1135  C     0.36859   0.65203   0.58012   0.00000  Uiso   1.00
C1136  C     0.60900   0.80955   0.89631   0.00000  Uiso   1.00
C1137  C     0.64099   0.83912   0.86735   0.00000  Uiso   1.00
C1138  C     0.54290   0.76522   0.61108   0.00000  Uiso   1.00
C1139  C     0.47462   0.71679   0.89119   0.00000  Uiso   1.00
C1140  C     0.45824   0.73409   0.59791   0.00000  Uiso   1.00
C1141  C     0.52750   0.78175   0.89945   0.00000  Uiso   1.00
C1142  C     0.45790   0.73602   0.54735   0.00000  Uiso   1.00
Cu1143 Cu    0.50000   0.74999   0.79821   0.00000  Uiso   1.00
Cu1144 Cu    0.50000   0.75000   0.70178   0.00000  Uiso   1.00
H1145  H     0.65911   0.75023   0.69364   0.00000  Uiso   1.00
H1146  H     0.54269   0.81104   0.97105   0.00000  Uiso   1.00
H1147  H     0.59811   0.64013   0.81367   0.00000  Uiso   1.00
H1148  H     0.60526   0.59032   0.85000   0.00000  Uiso   1.00
H1149  H     0.64330   0.65729   0.89550   0.00000  Uiso   1.00
H1150  H     0.58105   0.68317   0.88648   0.00000  Uiso   1.00
H1151  H     0.59031   0.63372   0.92276   0.00000  Uiso   1.00
H1152  H     0.45184   0.87716   0.63903   0.00000  Uiso   1.00
H1153  H     0.40244   0.91875   0.63857   0.00000  Uiso   1.00
H1154  H     0.33510   0.85865   0.63678   0.00000  Uiso   1.00
H1155  H     0.37126   0.85424   0.58613   0.00000  Uiso   1.00
H1156  H     0.34091   0.74944   0.80631   0.00000  Uiso   1.00
H1157  H     0.38458   0.81757   0.63711   0.00000  Uiso   1.00
H1158  H     0.55957   0.50517   0.66605   0.00000  Uiso   1.00
H1159  H     0.54164   0.55366   0.62967   0.00000  Uiso   1.00
H1160  H     0.48680   0.50562   0.56888   0.00000  Uiso   1.00
H1161  H     0.55315   0.98794   0.57847   0.00000  Uiso   1.00
H1162  H     0.50427   0.95753   0.60553   0.00000  Uiso   1.00
H1163  H     0.62109   0.97448   0.73330   0.00000  Uiso   1.00
H1164  H     0.64598   0.93477   0.77904   0.00000  Uiso   1.00
H1165  H     0.35225   0.99656   0.83230   0.00000  Uiso   1.00
H1166  H     0.37473   0.99726   0.77375   0.00000  Uiso   1.00
H1167  H     0.52266   0.52966   0.82758   0.00000  Uiso   1.00
H1168  H     0.66016   0.53614   0.78705   0.00000  Uiso   1.00
H1169  H     0.61595   0.79948   0.56646   0.00000  Uiso   1.00
H1170  H     0.65950   0.73786   0.55014   0.00000  Uiso   1.00
H1171  H     0.63168   0.75131   0.98927   0.00000  Uiso   1.00
H1172  H     0.60088   0.70975   0.52229   0.00000  Uiso   1.00
H1173  H     0.42205   0.66262   0.93881   0.00000  Uiso   1.00
H1174  H     0.46691   0.61817   0.50081   0.00000  Uiso   1.00
H1175  H     0.51822   0.65928   0.51104   0.00000  Uiso   1.00
H1176  H     0.50747   0.62803   0.95434   0.00000  Uiso   1.00
H1177  H     0.41193   0.65829   0.65123   0.00000  Uiso   1.00
H1178  H     0.42672   0.96903   0.70789   0.00000  Uiso   1.00
H1179  H     0.45109   0.65567   0.60327   0.00000  Uiso   1.00
H1180  H     0.37061   0.66263   0.54230   0.00000  Uiso   1.00
H1181  H     0.36799   0.61528   0.58100   0.00000  Uiso   1.00
H1182  H     0.66567   0.66404   0.59185   0.00000  Uiso   1.00
H1183  H     0.62169   0.77478   0.89273   0.00000  Uiso   1.00
H1184  H     0.61741   0.82031   0.93503   0.00000  Uiso   1.00
H1185  H     0.34948   0.83516   0.88045   0.00000  Uiso   1.00
H1186  H     0.63339   0.82990   0.82822   0.00000  Uiso   1.00
H1187  H     0.63109   0.87433   0.87200   0.00000  Uiso   1.00
H1188  H     0.48438   0.60973   0.67222   0.00000  Uiso   1.00
H1189  H     0.57447   0.88799   0.79466   0.00000  Uiso   1.00
H1190  H     0.57588   0.77768   0.63572   0.00000  Uiso   1.00
H1191  H     0.45428   0.69123   0.86799   0.00000  Uiso   1.00
H1192  H     0.42263   0.72668   0.52387   0.00000  Uiso   1.00
N1193  N     0.50000   0.75001   0.62934   0.00000  Uiso   1.00
N1194  N     0.50000   0.74999   0.87065   0.00000  Uiso   1.00
N1195  N     0.59332   0.77689   0.54437   0.00000  Uiso   1.00
N1196  N     0.45263   0.67673   0.96183   0.00000  Uiso   1.00
O1197  O     0.50000   0.68572   0.79071   0.00000  Uiso   1.00
O1198  O     0.41590   0.88173   0.70172   0.00000  Uiso   1.00
O1199  O     0.48240   0.52397   0.66175   0.00000  Uiso   1.00
O1200  O     0.58802   0.97509   0.79780   0.00000  Uiso   1.00
O1201  O     0.41502   0.71709   0.61527   0.00000  Uiso   1.00
O1202  O     0.55581   0.81366   0.87850   0.00000  Uiso   1.00
O1203  O     0.50000   0.81427   0.70928   0.00000  Uiso   1.00
O1204  O     0.50000   0.68573   0.70928   0.00000  Uiso   1.00
O1205  O     0.50000   0.81427   0.79072   0.00000  Uiso   1.00
O1206  O     0.42495   0.74999   0.78132   0.00000  Uiso   1.00
O1207  O     0.57505   0.75000   0.71868   0.00000  Uiso   1.00
O1208  O     0.42495   0.75000   0.69988   0.00000  Uiso   1.00
O1209  O     0.57505   0.75000   0.80011   0.00000  Uiso   1.00
O1210  O     0.53082   0.61529   0.83802   0.00000  Uiso   1.00
C1211  C     0.83451   0.66487   0.75005   0.00000  Uiso   1.00
C1212  C     0.85863   0.78299   0.94990   0.00000  Uiso   1.00
C1213  C     0.83553   0.74929   0.52745   0.00000  Uiso   1.00
C1214  C     0.83475   0.74841   0.97267   0.00000  Uiso   1.00
C1215  C     0.73457   0.74994   0.73752   0.00000  Uiso   1.00
C1216  C     0.93210   0.74993   0.76247   0.00000  Uiso   1.00
C1217  C     0.67922   0.74997   0.73065   0.00000  Uiso   1.00
C1218  C     0.98745   0.74973   0.76930   0.00000  Uiso   1.00
C1219  C     0.84826   0.54710   0.79352   0.00000  Uiso   1.00
C1220  C     0.79315   0.95147   0.72555   0.00000  Uiso   1.00
C1221  C     0.85029   0.59323   0.79414   0.00000  Uiso   1.00
C1222  C     0.83318   0.83480   0.75014   0.00000  Uiso   1.00
C1223  C     0.79225   0.90522   0.72427   0.00000  Uiso   1.00
C1224  C     0.83707   0.61637   0.75031   0.00000  Uiso   1.00
C1225  C     0.83343   0.88270   0.75032   0.00000  Uiso   1.00
C1226  C     0.82653   0.59268   0.70629   0.00000  Uiso   1.00
C1227  C     0.87611   0.90585   0.77513   0.00000  Uiso   1.00
C1228  C     0.82723   0.54656   0.70552   0.00000  Uiso   1.00
C1229  C     0.87874   0.95203   0.77374   0.00000  Uiso   1.00
C1230  C     0.83691   0.52358   0.74955   0.00000  Uiso   1.00
C1231  C     0.83626   0.97499   0.74985   0.00000  Uiso   1.00
C1232  C     0.91840   0.62243   0.84500   0.00000  Uiso   1.00
C1233  C     0.87934   0.76372   0.56067   0.00000  Uiso   1.00
C1234  C     0.93414   0.65094   0.89031   0.00000  Uiso   1.00
C1235  C     0.74722   0.88495   0.65084   0.00000  Uiso   1.00
C1236  C     0.70698   0.85176   0.62621   0.00000  Uiso   1.00
C1237  C     0.86155   0.52046   0.64061   0.00000  Uiso   1.00
C1238  C     0.85071   0.99103   0.59551   0.00000  Uiso   1.00
C1239  C     0.96437   0.96879   0.77307   0.00000  Uiso   1.00
C1240  C     0.67390   0.50177   0.79282   0.00000  Uiso   1.00
C1241  C     0.95587   0.74200   0.52566   0.00000  Uiso   1.00
C1242  C     0.82172   0.64400   0.98304   0.00000  Uiso   1.00
C1243  C     0.74863   0.67018   0.61412   0.00000  Uiso   1.00
C1244  C     0.80963   0.71405   0.94214   0.00000  Uiso   1.00
C1245  C     0.70192   0.65203   0.58012   0.00000  Uiso   1.00
C1246  C     0.94234   0.80955   0.89631   0.00000  Uiso   1.00
C1247  C     0.97432   0.83912   0.86735   0.00000  Uiso   1.00
C1248  C     0.87624   0.76522   0.61108   0.00000  Uiso   1.00
C1249  C     0.80795   0.71679   0.89119   0.00000  Uiso   1.00
C1250  C     0.79157   0.73409   0.59791   0.00000  Uiso   1.00
C1251  C     0.86084   0.78175   0.89945   0.00000  Uiso   1.00
C1252  C     0.79123   0.73602   0.54735   0.00000  Uiso   1.00
Cu1253 Cu    0.83333   0.74999   0.79821   0.00000  Uiso   1.00
Cu1254 Cu    0.83333   0.75000   0.70178   0.00000  Uiso   1.00
H1255  H     0.99244   0.75023   0.69364   0.00000  Uiso   1.00
H1256  H     0.87602   0.81104   0.97105   0.00000  Uiso   1.00
H1257  H     0.93144   0.64013   0.81367   0.00000  Uiso   1.00
H1258  H     0.93859   0.59032   0.85000   0.00000  Uiso   1.00
H1259  H     0.97663   0.65729   0.89550   0.00000  Uiso   1.00
H1260  H     0.91439   0.68317   0.88648   0.00000  Uiso   1.00
H1261  H     0.92364   0.63372   0.92276   0.00000  Uiso   1.00
H1262  H     0.78517   0.87716   0.63903   0.00000  Uiso   1.00
H1263  H     0.73578   0.91875   0.63857   0.00000  Uiso   1.00
H1264  H     0.66843   0.85865   0.63678   0.00000  Uiso   1.00
H1265  H     0.70459   0.85424   0.58613   0.00000  Uiso   1.00
H1266  H     0.67425   0.74944   0.80631   0.00000  Uiso   1.00
H1267  H     0.71792   0.81757   0.63711   0.00000  Uiso   1.00
H1268  H     0.89290   0.50517   0.66605   0.00000  Uiso   1.00
H1269  H     0.87497   0.55366   0.62967   0.00000  Uiso   1.00
H1270  H     0.82013   0.50562   0.56888   0.00000  Uiso   1.00
H1271  H     0.88648   0.98794   0.57847   0.00000  Uiso   1.00
H1272  H     0.83761   0.95753   0.60553   0.00000  Uiso   1.00
H1273  H     0.95443   0.97448   0.73330   0.00000  Uiso   1.00
H1274  H     0.97932   0.93477   0.77904   0.00000  Uiso   1.00
H1275  H     0.68558   0.99656   0.83230   0.00000  Uiso   1.00
H1276  H     0.70806   0.99726   0.77375   0.00000  Uiso   1.00
H1277  H     0.85600   0.52966   0.82758   0.00000  Uiso   1.00
H1278  H     0.99349   0.53614   0.78705   0.00000  Uiso   1.00
H1279  H     0.94928   0.79948   0.56646   0.00000  Uiso   1.00
H1280  H     0.99283   0.73786   0.55014   0.00000  Uiso   1.00
H1281  H     0.96501   0.75131   0.98927   0.00000  Uiso   1.00
H1282  H     0.93421   0.70975   0.52229   0.00000  Uiso   1.00
H1283  H     0.75538   0.66262   0.93881   0.00000  Uiso   1.00
H1284  H     0.80024   0.61817   0.50081   0.00000  Uiso   1.00
H1285  H     0.85155   0.65928   0.51104   0.00000  Uiso   1.00
H1286  H     0.84080   0.62803   0.95434   0.00000  Uiso   1.00
H1287  H     0.74526   0.65829   0.65123   0.00000  Uiso   1.00
H1288  H     0.76005   0.96903   0.70789   0.00000  Uiso   1.00
H1289  H     0.78442   0.65567   0.60327   0.00000  Uiso   1.00
H1290  H     0.70395   0.66263   0.54230   0.00000  Uiso   1.00
H1291  H     0.70132   0.61528   0.58100   0.00000  Uiso   1.00
H1292  H     0.99901   0.66404   0.59185   0.00000  Uiso   1.00
H1293  H     0.95502   0.77478   0.89273   0.00000  Uiso   1.00
H1294  H     0.95075   0.82031   0.93503   0.00000  Uiso   1.00
H1295  H     0.68281   0.83516   0.88045   0.00000  Uiso   1.00
H1296  H     0.96673   0.82990   0.82822   0.00000  Uiso   1.00
H1297  H     0.96443   0.87433   0.87200   0.00000  Uiso   1.00
H1298  H     0.81772   0.60973   0.67222   0.00000  Uiso   1.00
H1299  H     0.90780   0.88799   0.79466   0.00000  Uiso   1.00
H1300  H     0.90921   0.77768   0.63572   0.00000  Uiso   1.00
H1301  H     0.78761   0.69123   0.86799   0.00000  Uiso   1.00
H1302  H     0.75596   0.72668   0.52387   0.00000  Uiso   1.00
N1303  N     0.83333   0.75001   0.62934   0.00000  Uiso   1.00
N1304  N     0.83333   0.74999   0.87065   0.00000  Uiso   1.00
N1305  N     0.92665   0.77689   0.54437   0.00000  Uiso   1.00
N1306  N     0.78597   0.67673   0.96183   0.00000  Uiso   1.00
O1307  O     0.83334   0.68572   0.79071   0.00000  Uiso   1.00
O1308  O     0.74924   0.88173   0.70172   0.00000  Uiso   1.00
O1309  O     0.81574   0.52397   0.66175   0.00000  Uiso   1.00
O1310  O     0.92135   0.97509   0.79780   0.00000  Uiso   1.00
O1311  O     0.74835   0.71709   0.61527   0.00000  Uiso   1.00
O1312  O     0.88914   0.81366   0.87850   0.00000  Uiso   1.00
O1313  O     0.83333   0.81427   0.70928   0.00000  Uiso   1.00
O1314  O     0.83334   0.68573   0.70928   0.00000  Uiso   1.00
O1315  O     0.83333   0.81427   0.79072   0.00000  Uiso   1.00
O1316  O     0.75828   0.74999   0.78132   0.00000  Uiso   1.00
O1317  O     0.90839   0.75000   0.71868   0.00000  Uiso   1.00
O1318  O     0.75828   0.75000   0.69988   0.00000  Uiso   1.00
O1319  O     0.90839   0.75000   0.80011   0.00000  Uiso   1.00
O1320  O     0.86415   0.61529   0.83802   0.00000  Uiso   1.00
loop_
_geom_bond_atom_site_label_1
_geom_bond_atom_site_label_2
_geom_bond_distance
_geom_bond_site_symmetry_2
_ccdc_geom_bond_type
C1     O97     1.294   .     A
C1     O104    1.299   .     A
C1     C14     1.468   .     S
C2     H46     1.081   .     S
C2     C4      1.405   .     A
C2     C41     1.412   .     A
C3     C42     1.403   .     A
C3     C23     1.423   .     A
C3     C664    1.520   1_554 S
C4     C34     1.423   .     A
C4     C663    1.520   .     S
C5     O106    1.286   .     A
C5     C7      1.431   .     S
C5     O108    1.289   .     A
C6     O107    1.286   .     A
C6     C8      1.431   .     S
C6     O109    1.289   .     A
C7     C228    1.335   1_455 S
C7     H265    1.087   1_455 S
C8     C117    1.335   .     S
C8     H166    1.087   .     S
C9     H67     1.084   .     S
C9     C20     1.400   .     A
C9     C11     1.393   .     A
C10    H78     1.083   .     S
C10    C21     1.404   .     A
C10    C13     1.397   .     A
C11    C14     1.414   .     A
C11    O110    1.383   .     S
C12    O105    1.292   .     A
C12    O103    1.290   .     A
C12    C15     1.446   .     S
C13    O98     1.384   .     S
C13    C15     1.401   .     A
C14    C16     1.402   .     A
C15    C17     1.395   .     A
C16    C18     1.393   .     A
C16    H88     1.081   .     S
C17    C19     1.396   .     A
C17    H89     1.081   .     S
C18    O99     1.382   .     S
C18    C20     1.407   .     A
C19    C21     1.409   .     A
C19    O100    1.385   .     S
C20    C351    1.467   1_545 S
C21    C350    1.467   .     S
C22    H48     1.114   .     S
C22    C24     1.522   .     S
C22    O110    1.414   .     S
C22    H47     1.116   .     S
C23    C38     1.415   .     A
C23    N95     1.424   .     S
C24    H51     1.110   .     S
C24    H50     1.110   .     S
C24    H49     1.111   .     S
C25    C26     1.522   .     S
C25    H53     1.113   .     S
C25    H52     1.116   .     S
C25    O98     1.412   .     S
C26    H55     1.110   .     S
C26    H54     1.111   .     S
C26    H57     1.111   .     S
C27    O99     1.411   .     S
C27    H58     1.115   .     S
C27    H59     1.114   .     S
C27    C358    1.520   1_545 S
C28    H61     1.110   .     S
C28    H62     1.111   .     S
C28    C357    1.520   .     S
C28    H390    1.111   .     S
C29    H63     1.115   .     S
C29    H64     1.113   .     S
C29    O100    1.412   .     S
C29    C470    1.521   .     S
C30    C579    1.521   1_445 S
C30    H395    1.111   1_545 S
C30    H396    1.110   1_545 S
C30    H288    1.111   1_455 S
C31    H70     1.110   .     S
C31    H72     1.112   .     S
C31    N95     1.449   .     S
C31    H731    1.109   1_554 S
C32    N96     1.446   .     S
C32    H76     1.111   .     S
C32    H734    1.110   .     S
C32    H735    1.110   .     S
C33    O101    1.417   .     S
C33    H79     1.118   .     S
C33    H77     1.110   .     S
C33    C35     1.522   .     S
C34    N96     1.424   .     S
C34    C39     1.414   .     A
C35    H80     1.110   .     S
C35    H81     1.110   .     S
C35    H302    1.111   1_455 S
C36    C37     1.521   .     S
C36    H83     1.116   .     S
C36    O102    1.415   .     S
C36    H84     1.112   .     S
C37    H86     1.110   .     S
C37    H87     1.111   .     S
C37    H195    1.111   .     S
C38    H90     1.080   .     S
C38    N93     1.366   .     A
C39    H91     1.082   .     S
C39    N94     1.363   .     A
C40    N93     1.373   .     A
C40    O101    1.379   .     S
C40    C42     1.406   .     A
C41    O102    1.384   .     S
C41    N94     1.368   .     A
C42    H92     1.081   .     S
Cu43   N94     2.014   .     S
Cu43   O105    1.954   .     S
Cu43   O106    1.949   .     S
Cu43   Cu44    2.681   .     S
Cu43   O97     1.950   .     S
Cu43   O109    1.953   .     S
Cu44   O104    1.954   .     S
Cu44   N93     2.014   .     S
Cu44   O108    1.953   .     S
Cu44   O103    1.950   .     S
Cu44   O107    1.949   .     S
H45    C117    1.087   .     S
H56    C228    1.087   1_455 S
H60    C358    1.111   1_545 S
H65    C360    1.111   .     S
H66    C360    1.110   .     S
H68    C140    1.111   .     S
H69    N95     1.032   .     S
H71    C691    1.109   .     S
H73    N96     1.032   .     S
H74    C692    1.110   1_554 S
H75    C692    1.110   1_554 S
H82    C145    1.111   .     S
H85    C257    1.111   1_455 S
C111   O207    1.294   .     A
C111   O214    1.299   .     A
C111   C124    1.468   .     S
C112   H156    1.081   .     S
C112   C114    1.405   .     A
C112   C151    1.412   .     A
C113   C152    1.403   .     A
C113   C133    1.423   .     A
C113   C774    1.520   1_554 S
C114   C144    1.423   .     A
C114   C773    1.520   .     S
C115   O216    1.286   .     A
C115   C117    1.431   .     S
C115   O218    1.289   .     A
C116   O217    1.286   .     A
C116   C118    1.431   .     S
C116   O219    1.289   .     A
C118   C227    1.335   .     S
C118   H276    1.087   .     S
C119   H177    1.084   .     S
C119   C130    1.400   .     A
C119   C121    1.393   .     A
C120   H188    1.083   .     S
C120   C131    1.404   .     A
C120   C123    1.397   .     A
C121   C124    1.414   .     A
C121   O220    1.383   .     S
C122   O215    1.292   .     A
C122   O213    1.290   .     A
C122   C125    1.446   .     S
C123   O208    1.384   .     S
C123   C125    1.401   .     A
C124   C126    1.402   .     A
C125   C127    1.395   .     A
C126   C128    1.393   .     A
C126   H198    1.081   .     S
C127   C129    1.396   .     A
C127   H199    1.081   .     S
C128   O209    1.382   .     S
C128   C130    1.407   .     A
C129   C131    1.409   .     A
C129   O210    1.385   .     S
C130   C461    1.467   1_545 S
C131   C460    1.467   .     S
C132   H158    1.114   .     S
C132   C134    1.522   .     S
C132   O220    1.414   .     S
C132   H157    1.116   .     S
C133   C148    1.415   .     A
C133   N205    1.424   .     S
C134   H161    1.110   .     S
C134   H160    1.110   .     S
C134   H159    1.111   .     S
C135   C136    1.522   .     S
C135   H163    1.113   .     S
C135   H162    1.116   .     S
C135   O208    1.412   .     S
C136   H165    1.110   .     S
C136   H164    1.111   .     S
C136   H167    1.111   .     S
C137   O209    1.411   .     S
C137   H168    1.115   .     S
C137   H169    1.114   .     S
C137   C468    1.520   1_545 S
C138   H171    1.110   .     S
C138   H172    1.111   .     S
C138   C467    1.520   .     S
C138   H500    1.111   .     S
C139   H173    1.115   .     S
C139   H174    1.113   .     S
C139   O210    1.412   .     S
C139   C580    1.521   .     S
C140   C359    1.521   1_545 S
C140   H505    1.111   1_545 S
C140   H506    1.110   1_545 S
C141   H180    1.110   .     S
C141   H182    1.112   .     S
C141   N205    1.449   .     S
C141   H841    1.109   1_554 S
C142   N206    1.446   .     S
C142   H186    1.111   .     S
C142   H844    1.110   .     S
C142   H845    1.110   .     S
C143   O211    1.417   .     S
C143   H189    1.118   .     S
C143   H187    1.110   .     S
C143   C145    1.522   .     S
C144   N206    1.424   .     S
C144   C149    1.414   .     A
C145   H190    1.110   .     S
C145   H191    1.110   .     S
C146   C147    1.521   .     S
C146   H193    1.116   .     S
C146   O212    1.415   .     S
C146   H194    1.112   .     S
C147   H196    1.110   .     S
C147   H197    1.111   .     S
C147   H305    1.111   .     S
C148   H200    1.080   .     S
C148   N203    1.366   .     A
C149   H201    1.082   .     S
C149   N204    1.363   .     A
C150   N203    1.373   .     A
C150   O211    1.379   .     S
C150   C152    1.406   .     A
C151   O212    1.384   .     S
C151   N204    1.368   .     A
C152   H202    1.081   .     S
Cu153  N204    2.014   .     S
Cu153  O215    1.954   .     S
Cu153  O216    1.949   .     S
Cu153  Cu154   2.681   .     S
Cu153  O207    1.950   .     S
Cu153  O219    1.953   .     S
Cu154  O214    1.954   .     S
Cu154  N203    2.014   .     S
Cu154  O218    1.953   .     S
Cu154  O213    1.950   .     S
Cu154  O217    1.949   .     S
H155   C227    1.087   .     S
H170   C468    1.111   1_545 S
H175   C470    1.111   .     S
H176   C470    1.110   .     S
H178   C250    1.111   .     S
H179   N205    1.032   .     S
H181   C801    1.109   .     S
H183   N206    1.032   .     S
H184   C802    1.110   1_554 S
H185   C802    1.110   1_554 S
H192   C255    1.111   .     S
C221   O317    1.294   .     A
C221   O324    1.299   .     A
C221   C234    1.468   .     S
C222   H266    1.081   .     S
C222   C224    1.405   .     A
C222   C261    1.412   .     A
C223   C262    1.403   .     A
C223   C243    1.423   .     A
C223   C884    1.520   1_554 S
C224   C254    1.423   .     A
C224   C883    1.520   .     S
C225   O326    1.286   .     A
C225   C227    1.431   .     S
C225   O328    1.289   .     A
C226   O327    1.286   .     A
C226   C228    1.431   .     S
C226   O329    1.289   .     A
C228   C7      1.335   1_655 S
C228   H56     1.087   1_655 S
C229   H287    1.084   .     S
C229   C240    1.400   .     A
C229   C231    1.393   .     A
C230   H298    1.083   .     S
C230   C241    1.404   .     A
C230   C233    1.397   .     A
C231   C234    1.414   .     A
C231   O330    1.383   .     S
C232   O325    1.292   .     A
C232   O323    1.290   .     A
C232   C235    1.446   .     S
C233   O318    1.384   .     S
C233   C235    1.401   .     A
C234   C236    1.402   .     A
C235   C237    1.395   .     A
C236   C238    1.393   .     A
C236   H308    1.081   .     S
C237   C239    1.396   .     A
C237   H309    1.081   .     S
C238   O319    1.382   .     S
C238   C240    1.407   .     A
C239   C241    1.409   .     A
C239   O320    1.385   .     S
C240   C571    1.467   1_545 S
C241   C570    1.467   .     S
C242   H268    1.114   .     S
C242   C244    1.522   .     S
C242   O330    1.414   .     S
C242   H267    1.116   .     S
C243   C258    1.415   .     A
C243   N315    1.424   .     S
C244   H271    1.110   .     S
C244   H270    1.110   .     S
C244   H269    1.111   .     S
C245   C246    1.522   .     S
C245   H273    1.113   .     S
C245   H272    1.116   .     S
C245   O318    1.412   .     S
C246   H275    1.110   .     S
C246   H274    1.111   .     S
C246   H277    1.111   .     S
C247   O319    1.411   .     S
C247   H278    1.115   .     S
C247   H279    1.114   .     S
C247   C578    1.520   1_545 S
C248   H281    1.110   .     S
C248   H282    1.111   .     S
C248   C577    1.520   .     S
C248   H610    1.111   .     S
C249   H283    1.115   .     S
C249   H284    1.113   .     S
C249   O320    1.412   .     S
C249   C360    1.521   1_655 S
C250   C469    1.521   1_545 S
C250   H615    1.111   1_545 S
C250   H616    1.110   1_545 S
C251   H290    1.110   .     S
C251   H292    1.112   .     S
C251   N315    1.449   .     S
C251   H951    1.109   1_554 S
C252   N316    1.446   .     S
C252   H296    1.111   .     S
C252   H954    1.110   .     S
C252   H955    1.110   .     S
C253   O321    1.417   .     S
C253   H299    1.118   .     S
C253   H297    1.110   .     S
C253   C255    1.522   .     S
C254   N316    1.424   .     S
C254   C259    1.414   .     A
C255   H300    1.110   .     S
C255   H301    1.110   .     S
C256   C257    1.521   .     S
C256   H303    1.116   .     S
C256   O322    1.415   .     S
C256   H304    1.112   .     S
C257   H306    1.110   .     S
C257   H307    1.111   .     S
C257   H85     1.111   1_655 S
C258   H310    1.080   .     S
C258   N313    1.366   .     A
C259   H311    1.082   .     S
C259   N314    1.363   .     A
C260   N313    1.373   .     A
C260   O321    1.379   .     S
C260   C262    1.406   .     A
C261   O322    1.384   .     S
C261   N314    1.368   .     A
C262   H312    1.081   .     S
Cu263  N314    2.014   .     S
Cu263  O325    1.954   .     S
Cu263  O326    1.949   .     S
Cu263  Cu264   2.681   .     S
Cu263  O317    1.950   .     S
Cu263  O329    1.953   .     S
Cu264  O324    1.954   .     S
Cu264  N313    2.014   .     S
Cu264  O328    1.953   .     S
Cu264  O323    1.950   .     S
Cu264  O327    1.949   .     S
H265   C7      1.087   1_655 S
H280   C578    1.111   1_545 S
H285   C580    1.111   .     S
H286   C580    1.110   .     S
H288   C30     1.111   1_655 S
H289   N315    1.032   .     S
H291   C911    1.109   .     S
H293   N316    1.032   .     S
H294   C912    1.110   1_554 S
H295   C912    1.110   1_554 S
H302   C35     1.111   1_655 S
C331   O427    1.294   .     A
C331   O434    1.299   .     A
C331   C344    1.468   .     S
C332   H376    1.081   .     S
C332   C334    1.405   .     A
C332   C371    1.412   .     A
C333   C372    1.403   .     A
C333   C353    1.423   .     A
C333   C994    1.520   1_554 S
C334   C364    1.423   .     A
C334   C993    1.520   .     S
C335   O436    1.286   .     A
C335   C337    1.431   .     S
C335   O438    1.289   .     A
C336   O437    1.286   .     A
C336   C338    1.431   .     S
C336   O439    1.289   .     A
C337   C558    1.335   1_455 S
C337   H595    1.087   1_455 S
C338   C447    1.335   .     S
C338   H496    1.087   .     S
C339   H397    1.084   .     S
C339   C350    1.400   .     A
C339   C341    1.393   .     A
C340   H408    1.083   .     S
C340   C351    1.404   .     A
C340   C343    1.397   .     A
C341   C344    1.414   .     A
C341   O440    1.383   .     S
C342   O435    1.292   .     A
C342   O433    1.290   .     A
C342   C345    1.446   .     S
C343   O428    1.384   .     S
C343   C345    1.401   .     A
C344   C346    1.402   .     A
C345   C347    1.395   .     A
C346   C348    1.393   .     A
C346   H418    1.081   .     S
C347   C349    1.396   .     A
C347   H419    1.081   .     S
C348   O429    1.382   .     S
C348   C350    1.407   .     A
C349   C351    1.409   .     A
C349   O430    1.385   .     S
C351   C20     1.467   1_565 S
C352   H378    1.114   .     S
C352   C354    1.522   .     S
C352   O440    1.414   .     S
C352   H377    1.116   .     S
C353   C368    1.415   .     A
C353   N425    1.424   .     S
C354   H381    1.110   .     S
C354   H380    1.110   .     S
C354   H379    1.111   .     S
C355   C356    1.522   .     S
C355   H383    1.113   .     S
C355   H382    1.116   .     S
C355   O428    1.412   .     S
C356   H385    1.110   .     S
C356   H384    1.111   .     S
C356   H387    1.111   .     S
C357   O429    1.411   .     S
C357   H388    1.115   .     S
C357   H389    1.114   .     S
C358   H391    1.110   .     S
C358   H392    1.111   .     S
C358   C27     1.520   1_565 S
C358   H60     1.111   1_565 S
C359   H393    1.115   .     S
C359   H394    1.113   .     S
C359   O430    1.412   .     S
C359   C140    1.521   1_565 S
C360   C249    1.521   1_455 S
C360   H618    1.111   1_455 S
C361   H400    1.110   .     S
C361   H402    1.112   .     S
C361   N425    1.449   .     S
C361   H1061   1.109   1_554 S
C362   N426    1.446   .     S
C362   H406    1.111   .     S
C362   H1064   1.110   .     S
C362   H1065   1.110   .     S
C363   O431    1.417   .     S
C363   H409    1.118   .     S
C363   H407    1.110   .     S
C363   C365    1.522   .     S
C364   N426    1.424   .     S
C364   C369    1.414   .     A
C365   H410    1.110   .     S
C365   H411    1.110   .     S
C365   H632    1.111   1_455 S
C366   C367    1.521   .     S
C366   H413    1.116   .     S
C366   O432    1.415   .     S
C366   H414    1.112   .     S
C367   H416    1.110   .     S
C367   H417    1.111   .     S
C367   H525    1.111   .     S
C368   H420    1.080   .     S
C368   N423    1.366   .     A
C369   H421    1.082   .     S
C369   N424    1.363   .     A
C370   N423    1.373   .     A
C370   O431    1.379   .     S
C370   C372    1.406   .     A
C371   O432    1.384   .     S
C371   N424    1.368   .     A
C372   H422    1.081   .     S
Cu373  N424    2.014   .     S
Cu373  O435    1.954   .     S
Cu373  O436    1.949   .     S
Cu373  Cu374   2.681   .     S
Cu373  O427    1.950   .     S
Cu373  O439    1.953   .     S
Cu374  O434    1.954   .     S
Cu374  N423    2.014   .     S
Cu374  O438    1.953   .     S
Cu374  O433    1.950   .     S
Cu374  O437    1.949   .     S
H375   C447    1.087   .     S
H386   C558    1.087   1_455 S
H395   C30     1.111   1_565 S
H396   C30     1.110   1_565 S
H398   C470    1.111   .     S
H399   N425    1.032   .     S
H401   C1021   1.109   .     S
H403   N426    1.032   .     S
H404   C1022   1.110   1_554 S
H405   C1022   1.110   1_554 S
H412   C475    1.111   .     S
H415   C587    1.111   1_455 S
C441   O537    1.294   .     A
C441   O544    1.299   .     A
C441   C454    1.468   .     S
C442   H486    1.081   .     S
C442   C444    1.405   .     A
C442   C481    1.412   .     A
C443   C482    1.403   .     A
C443   C463    1.423   .     A
C443   C1104   1.520   1_554 S
C444   C474    1.423   .     A
C444   C1103   1.520   .     S
C445   O546    1.286   .     A
C445   C447    1.431   .     S
C445   O548    1.289   .     A
C446   O547    1.286   .     A
C446   C448    1.431   .     S
C446   O549    1.289   .     A
C448   C557    1.335   .     S
C448   H606    1.087   .     S
C449   H507    1.084   .     S
C449   C460    1.400   .     A
C449   C451    1.393   .     A
C450   H518    1.083   .     S
C450   C461    1.404   .     A
C450   C453    1.397   .     A
C451   C454    1.414   .     A
C451   O550    1.383   .     S
C452   O545    1.292   .     A
C452   O543    1.290   .     A
C452   C455    1.446   .     S
C453   O538    1.384   .     S
C453   C455    1.401   .     A
C454   C456    1.402   .     A
C455   C457    1.395   .     A
C456   C458    1.393   .     A
C456   H528    1.081   .     S
C457   C459    1.396   .     A
C457   H529    1.081   .     S
C458   O539    1.382   .     S
C458   C460    1.407   .     A
C459   C461    1.409   .     A
C459   O540    1.385   .     S
C461   C130    1.467   1_565 S
C462   H488    1.114   .     S
C462   C464    1.522   .     S
C462   O550    1.414   .     S
C462   H487    1.116   .     S
C463   C478    1.415   .     A
C463   N535    1.424   .     S
C464   H491    1.110   .     S
C464   H490    1.110   .     S
C464   H489    1.111   .     S
C465   C466    1.522   .     S
C465   H493    1.113   .     S
C465   H492    1.116   .     S
C465   O538    1.412   .     S
C466   H495    1.110   .     S
C466   H494    1.111   .     S
C466   H497    1.111   .     S
C467   O539    1.411   .     S
C467   H498    1.115   .     S
C467   H499    1.114   .     S
C468   H501    1.110   .     S
C468   H502    1.111   .     S
C468   C137    1.520   1_565 S
C468   H170    1.111   1_565 S
C469   H503    1.115   .     S
C469   H504    1.113   .     S
C469   O540    1.412   .     S
C469   C250    1.521   1_565 S
C471   H510    1.110   .     S
C471   H512    1.112   .     S
C471   N535    1.449   .     S
C471   H1171   1.109   1_554 S
C472   N536    1.446   .     S
C472   H516    1.111   .     S
C472   H1174   1.110   .     S
C472   H1175   1.110   .     S
C473   O541    1.417   .     S
C473   H519    1.118   .     S
C473   H517    1.110   .     S
C473   C475    1.522   .     S
C474   N536    1.424   .     S
C474   C479    1.414   .     A
C475   H520    1.110   .     S
C475   H521    1.110   .     S
C476   C477    1.521   .     S
C476   H523    1.116   .     S
C476   O542    1.415   .     S
C476   H524    1.112   .     S
C477   H526    1.110   .     S
C477   H527    1.111   .     S
C477   H635    1.111   .     S
C478   H530    1.080   .     S
C478   N533    1.366   .     A
C479   H531    1.082   .     S
C479   N534    1.363   .     A
C480   N533    1.373   .     A
C480   O541    1.379   .     S
C480   C482    1.406   .     A
C481   O542    1.384   .     S
C481   N534    1.368   .     A
C482   H532    1.081   .     S
Cu483  N534    2.014   .     S
Cu483  O545    1.954   .     S
Cu483  O546    1.949   .     S
Cu483  Cu484   2.681   .     S
Cu483  O537    1.950   .     S
Cu483  O549    1.953   .     S
Cu484  O544    1.954   .     S
Cu484  N533    2.014   .     S
Cu484  O548    1.953   .     S
Cu484  O543    1.950   .     S
Cu484  O547    1.949   .     S
H485   C557    1.087   .     S
H505   C140    1.111   1_565 S
H506   C140    1.110   1_565 S
H508   C580    1.111   .     S
H509   N535    1.032   .     S
H511   C1131   1.109   .     S
H513   N536    1.032   .     S
H514   C1132   1.110   1_554 S
H515   C1132   1.110   1_554 S
H522   C585    1.111   .     S
C551   O647    1.294   .     A
C551   O654    1.299   .     A
C551   C564    1.468   .     S
C552   H596    1.081   .     S
C552   C554    1.405   .     A
C552   C591    1.412   .     A
C553   C592    1.403   .     A
C553   C573    1.423   .     A
C553   C1214   1.520   1_554 S
C554   C584    1.423   .     A
C554   C1213   1.520   .     S
C555   O656    1.286   .     A
C555   C557    1.431   .     S
C555   O658    1.289   .     A
C556   O657    1.286   .     A
C556   C558    1.431   .     S
C556   O659    1.289   .     A
C558   C337    1.335   1_655 S
C558   H386    1.087   1_655 S
C559   H617    1.084   .     S
C559   C570    1.400   .     A
C559   C561    1.393   .     A
C560   H628    1.083   .     S
C560   C571    1.404   .     A
C560   C563    1.397   .     A
C561   C564    1.414   .     A
C561   O660    1.383   .     S
C562   O655    1.292   .     A
C562   O653    1.290   .     A
C562   C565    1.446   .     S
C563   O648    1.384   .     S
C563   C565    1.401   .     A
C564   C566    1.402   .     A
C565   C567    1.395   .     A
C566   C568    1.393   .     A
C566   H638    1.081   .     S
C567   C569    1.396   .     A
C567   H639    1.081   .     S
C568   O649    1.382   .     S
C568   C570    1.407   .     A
C569   C571    1.409   .     A
C569   O650    1.385   .     S
C571   C240    1.467   1_565 S
C572   H598    1.114   .     S
C572   C574    1.522   .     S
C572   O660    1.414   .     S
C572   H597    1.116   .     S
C573   C588    1.415   .     A
C573   N645    1.424   .     S
C574   H601    1.110   .     S
C574   H600    1.110   .     S
C574   H599    1.111   .     S
C575   C576    1.522   .     S
C575   H603    1.113   .     S
C575   H602    1.116   .     S
C575   O648    1.412   .     S
C576   H605    1.110   .     S
C576   H604    1.111   .     S
C576   H607    1.111   .     S
C577   O649    1.411   .     S
C577   H608    1.115   .     S
C577   H609    1.114   .     S
C578   H611    1.110   .     S
C578   H612    1.111   .     S
C578   C247    1.520   1_565 S
C578   H280    1.111   1_565 S
C579   H613    1.115   .     S
C579   H614    1.113   .     S
C579   O650    1.412   .     S
C579   C30     1.521   1_665 S
C581   H620    1.110   .     S
C581   H622    1.112   .     S
C581   N645    1.449   .     S
C581   H1281   1.109   1_554 S
C582   N646    1.446   .     S
C582   H626    1.111   .     S
C582   H1284   1.110   .     S
C582   H1285   1.110   .     S
C583   O651    1.417   .     S
C583   H629    1.118   .     S
C583   H627    1.110   .     S
C583   C585    1.522   .     S
C584   N646    1.424   .     S
C584   C589    1.414   .     A
C585   H630    1.110   .     S
C585   H631    1.110   .     S
C586   C587    1.521   .     S
C586   H633    1.116   .     S
C586   O652    1.415   .     S
C586   H634    1.112   .     S
C587   H636    1.110   .     S
C587   H637    1.111   .     S
C587   H415    1.111   1_655 S
C588   H640    1.080   .     S
C588   N643    1.366   .     A
C589   H641    1.082   .     S
C589   N644    1.363   .     A
C590   N643    1.373   .     A
C590   O651    1.379   .     S
C590   C592    1.406   .     A
C591   O652    1.384   .     S
C591   N644    1.368   .     A
C592   H642    1.081   .     S
Cu593  N644    2.014   .     S
Cu593  O655    1.954   .     S
Cu593  O656    1.949   .     S
Cu593  Cu594   2.681   .     S
Cu593  O647    1.950   .     S
Cu593  O659    1.953   .     S
Cu594  O654    1.954   .     S
Cu594  N643    2.014   .     S
Cu594  O658    1.953   .     S
Cu594  O653    1.950   .     S
Cu594  O657    1.949   .     S
H595   C337    1.087   1_655 S
H615   C250    1.111   1_565 S
H616   C250    1.110   1_565 S
H618   C360    1.111   1_655 S
H619   N645    1.032   .     S
H621   C1241   1.109   .     S
H623   N646    1.032   .     S
H624   C1242   1.110   1_554 S
H625   C1242   1.110   1_554 S
H632   C365    1.111   1_655 S
C661   O757    1.294   .     A
C661   O764    1.299   .     A
C661   C674    1.468   .     S
C662   H706    1.081   .     S
C662   C664    1.405   .     A
C662   C701    1.412   .     A
C663   C702    1.403   .     A
C663   C683    1.423   .     A
C664   C694    1.423   .     A
C664   C3      1.520   1_556 S
C665   O766    1.286   .     A
C665   C667    1.431   .     S
C665   O768    1.289   .     A
C666   O767    1.286   .     A
C666   C668    1.431   .     S
C666   O769    1.289   .     A
C667   C888    1.335   1_455 S
C667   H925    1.087   1_455 S
C668   C777    1.335   .     S
C668   H826    1.087   .     S
C669   H727    1.084   .     S
C669   C680    1.400   .     A
C669   C671    1.393   .     A
C670   H738    1.083   .     S
C670   C681    1.404   .     A
C670   C673    1.397   .     A
C671   C674    1.414   .     A
C671   O770    1.383   .     S
C672   O765    1.292   .     A
C672   O763    1.290   .     A
C672   C675    1.446   .     S
C673   O758    1.384   .     S
C673   C675    1.401   .     A
C674   C676    1.402   .     A
C675   C677    1.395   .     A
C676   C678    1.393   .     A
C676   H748    1.081   .     S
C677   C679    1.396   .     A
C677   H749    1.081   .     S
C678   O759    1.382   .     S
C678   C680    1.407   .     A
C679   C681    1.409   .     A
C679   O760    1.385   .     S
C680   C1011   1.467   1_545 S
C681   C1010   1.467   .     S
C682   H708    1.114   .     S
C682   C684    1.522   .     S
C682   O770    1.414   .     S
C682   H707    1.116   .     S
C683   C698    1.415   .     A
C683   N755    1.424   .     S
C684   H711    1.110   .     S
C684   H710    1.110   .     S
C684   H709    1.111   .     S
C685   C686    1.522   .     S
C685   H713    1.113   .     S
C685   H712    1.116   .     S
C685   O758    1.412   .     S
C686   H715    1.110   .     S
C686   H714    1.111   .     S
C686   H717    1.111   .     S
C687   O759    1.411   .     S
C687   H718    1.115   .     S
C687   H719    1.114   .     S
C687   C1018   1.520   1_545 S
C688   H721    1.110   .     S
C688   H722    1.111   .     S
C688   C1017   1.520   .     S
C688   H1050   1.111   .     S
C689   H723    1.115   .     S
C689   H724    1.113   .     S
C689   O760    1.412   .     S
C689   C1130   1.521   .     S
C690   C1239   1.521   1_445 S
C690   H1055   1.111   1_545 S
C690   H1056   1.110   1_545 S
C690   H948    1.111   1_455 S
C691   H730    1.110   .     S
C691   H732    1.112   .     S
C691   N755    1.449   .     S
C692   N756    1.446   .     S
C692   H736    1.111   .     S
C692   H74     1.110   1_556 S
C692   H75     1.110   1_556 S
C693   O761    1.417   .     S
C693   H739    1.118   .     S
C693   H737    1.110   .     S
C693   C695    1.522   .     S
C694   N756    1.424   .     S
C694   C699    1.414   .     A
C695   H740    1.110   .     S
C695   H741    1.110   .     S
C695   H962    1.111   1_455 S
C696   C697    1.521   .     S
C696   H743    1.116   .     S
C696   O762    1.415   .     S
C696   H744    1.112   .     S
C697   H746    1.110   .     S
C697   H747    1.111   .     S
C697   H855    1.111   .     S
C698   H750    1.080   .     S
C698   N753    1.366   .     A
C699   H751    1.082   .     S
C699   N754    1.363   .     A
C700   N753    1.373   .     A
C700   O761    1.379   .     S
C700   C702    1.406   .     A
C701   O762    1.384   .     S
C701   N754    1.368   .     A
C702   H752    1.081   .     S
Cu703  N754    2.014   .     S
Cu703  O765    1.954   .     S
Cu703  O766    1.949   .     S
Cu703  Cu704   2.681   .     S
Cu703  O757    1.950   .     S
Cu703  O769    1.953   .     S
Cu704  O764    1.954   .     S
Cu704  N753    2.014   .     S
Cu704  O768    1.953   .     S
Cu704  O763    1.950   .     S
Cu704  O767    1.949   .     S
H705   C777    1.087   .     S
H716   C888    1.087   1_455 S
H720   C1018   1.111   1_545 S
H725   C1020   1.111   .     S
H726   C1020   1.110   .     S
H728   C800    1.111   .     S
H729   N755    1.032   .     S
H731   C31     1.109   1_556 S
H733   N756    1.032   .     S
H742   C805    1.111   .     S
H745   C917    1.111   1_455 S
C771   O867    1.294   .     A
C771   O874    1.299   .     A
C771   C784    1.468   .     S
C772   H816    1.081   .     S
C772   C774    1.405   .     A
C772   C811    1.412   .     A
C773   C812    1.403   .     A
C773   C793    1.423   .     A
C774   C804    1.423   .     A
C774   C113    1.520   1_556 S
C775   O876    1.286   .     A
C775   C777    1.431   .     S
C775   O878    1.289   .     A
C776   O877    1.286   .     A
C776   C778    1.431   .     S
C776   O879    1.289   .     A
C778   C887    1.335   .     S
C778   H936    1.087   .     S
C779   H837    1.084   .     S
C779   C790    1.400   .     A
C779   C781    1.393   .     A
C780   H848    1.083   .     S
C780   C791    1.404   .     A
C780   C783    1.397   .     A
C781   C784    1.414   .     A
C781   O880    1.383   .     S
C782   O875    1.292   .     A
C782   O873    1.290   .     A
C782   C785    1.446   .     S
C783   O868    1.384   .     S
C783   C785    1.401   .     A
C784   C786    1.402   .     A
C785   C787    1.395   .     A
C786   C788    1.393   .     A
C786   H858    1.081   .     S
C787   C789    1.396   .     A
C787   H859    1.081   .     S
C788   O869    1.382   .     S
C788   C790    1.407   .     A
C789   C791    1.409   .     A
C789   O870    1.385   .     S
C790   C1121   1.467   1_545 S
C791   C1120   1.467   .     S
C792   H818    1.114   .     S
C792   C794    1.522   .     S
C792   O880    1.414   .     S
C792   H817    1.116   .     S
C793   C808    1.415   .     A
C793   N865    1.424   .     S
C794   H821    1.110   .     S
C794   H820    1.110   .     S
C794   H819    1.111   .     S
C795   C796    1.522   .     S
C795   H823    1.113   .     S
C795   H822    1.116   .     S
C795   O868    1.412   .     S
C796   H825    1.110   .     S
C796   H824    1.111   .     S
C796   H827    1.111   .     S
C797   O869    1.411   .     S
C797   H828    1.115   .     S
C797   H829    1.114   .     S
C797   C1128   1.520   1_545 S
C798   H831    1.110   .     S
C798   H832    1.111   .     S
C798   C1127   1.520   .     S
C798   H1160   1.111   .     S
C799   H833    1.115   .     S
C799   H834    1.113   .     S
C799   O870    1.412   .     S
C799   C1240   1.521   .     S
C800   C1019   1.521   1_545 S
C800   H1165   1.111   1_545 S
C800   H1166   1.110   1_545 S
C801   H840    1.110   .     S
C801   H842    1.112   .     S
C801   N865    1.449   .     S
C802   N866    1.446   .     S
C802   H846    1.111   .     S
C802   H184    1.110   1_556 S
C802   H185    1.110   1_556 S
C803   O871    1.417   .     S
C803   H849    1.118   .     S
C803   H847    1.110   .     S
C803   C805    1.522   .     S
C804   N866    1.424   .     S
C804   C809    1.414   .     A
C805   H850    1.110   .     S
C805   H851    1.110   .     S
C806   C807    1.521   .     S
C806   H853    1.116   .     S
C806   O872    1.415   .     S
C806   H854    1.112   .     S
C807   H856    1.110   .     S
C807   H857    1.111   .     S
C807   H965    1.111   .     S
C808   H860    1.080   .     S
C808   N863    1.366   .     A
C809   H861    1.082   .     S
C809   N864    1.363   .     A
C810   N863    1.373   .     A
C810   O871    1.379   .     S
C810   C812    1.406   .     A
C811   O872    1.384   .     S
C811   N864    1.368   .     A
C812   H862    1.081   .     S
Cu813  N864    2.014   .     S
Cu813  O875    1.954   .     S
Cu813  O876    1.949   .     S
Cu813  Cu814   2.681   .     S
Cu813  O867    1.950   .     S
Cu813  O879    1.953   .     S
Cu814  O874    1.954   .     S
Cu814  N863    2.014   .     S
Cu814  O878    1.953   .     S
Cu814  O873    1.950   .     S
Cu814  O877    1.949   .     S
H815   C887    1.087   .     S
H830   C1128   1.111   1_545 S
H835   C1130   1.111   .     S
H836   C1130   1.110   .     S
H838   C910    1.111   .     S
H839   N865    1.032   .     S
H841   C141    1.109   1_556 S
H843   N866    1.032   .     S
H852   C915    1.111   .     S
C881   O977    1.294   .     A
C881   O984    1.299   .     A
C881   C894    1.468   .     S
C882   H926    1.081   .     S
C882   C884    1.405   .     A
C882   C921    1.412   .     A
C883   C922    1.403   .     A
C883   C903    1.423   .     A
C884   C914    1.423   .     A
C884   C223    1.520   1_556 S
C885   O986    1.286   .     A
C885   C887    1.431   .     S
C885   O988    1.289   .     A
C886   O987    1.286   .     A
C886   C888    1.431   .     S
C886   O989    1.289   .     A
C888   C667    1.335   1_655 S
C888   H716    1.087   1_655 S
C889   H947    1.084   .     S
C889   C900    1.400   .     A
C889   C891    1.393   .     A
C890   H958    1.083   .     S
C890   C901    1.404   .     A
C890   C893    1.397   .     A
C891   C894    1.414   .     A
C891   O990    1.383   .     S
C892   O985    1.292   .     A
C892   O983    1.290   .     A
C892   C895    1.446   .     S
C893   O978    1.384   .     S
C893   C895    1.401   .     A
C894   C896    1.402   .     A
C895   C897    1.395   .     A
C896   C898    1.393   .     A
C896   H968    1.081   .     S
C897   C899    1.396   .     A
C897   H969    1.081   .     S
C898   O979    1.382   .     S
C898   C900    1.407   .     A
C899   C901    1.409   .     A
C899   O980    1.385   .     S
C900   C1231   1.467   1_545 S
C901   C1230   1.467   .     S
C902   H928    1.114   .     S
C902   C904    1.522   .     S
C902   O990    1.414   .     S
C902   H927    1.116   .     S
C903   C918    1.415   .     A
C903   N975    1.424   .     S
C904   H931    1.110   .     S
C904   H930    1.110   .     S
C904   H929    1.111   .     S
C905   C906    1.522   .     S
C905   H933    1.113   .     S
C905   H932    1.116   .     S
C905   O978    1.412   .     S
C906   H935    1.110   .     S
C906   H934    1.111   .     S
C906   H937    1.111   .     S
C907   O979    1.411   .     S
C907   H938    1.115   .     S
C907   H939    1.114   .     S
C907   C1238   1.520   1_545 S
C908   H941    1.110   .     S
C908   H942    1.111   .     S
C908   C1237   1.520   .     S
C908   H1270   1.111   .     S
C909   H943    1.115   .     S
C909   H944    1.113   .     S
C909   O980    1.412   .     S
C909   C1020   1.521   1_655 S
C910   C1129   1.521   1_545 S
C910   H1275   1.111   1_545 S
C910   H1276   1.110   1_545 S
C911   H950    1.110   .     S
C911   H952    1.112   .     S
C911   N975    1.449   .     S
C912   N976    1.446   .     S
C912   H956    1.111   .     S
C912   H294    1.110   1_556 S
C912   H295    1.110   1_556 S
C913   O981    1.417   .     S
C913   H959    1.118   .     S
C913   H957    1.110   .     S
C913   C915    1.522   .     S
C914   N976    1.424   .     S
C914   C919    1.414   .     A
C915   H960    1.110   .     S
C915   H961    1.110   .     S
C916   C917    1.521   .     S
C916   H963    1.116   .     S
C916   O982    1.415   .     S
C916   H964    1.112   .     S
C917   H966    1.110   .     S
C917   H967    1.111   .     S
C917   H745    1.111   1_655 S
C918   H970    1.080   .     S
C918   N973    1.366   .     A
C919   H971    1.082   .     S
C919   N974    1.363   .     A
C920   N973    1.373   .     A
C920   O981    1.379   .     S
C920   C922    1.406   .     A
C921   O982    1.384   .     S
C921   N974    1.368   .     A
C922   H972    1.081   .     S
Cu923  N974    2.014   .     S
Cu923  O985    1.954   .     S
Cu923  O986    1.949   .     S
Cu923  Cu924   2.681   .     S
Cu923  O977    1.950   .     S
Cu923  O989    1.953   .     S
Cu924  O984    1.954   .     S
Cu924  N973    2.014   .     S
Cu924  O988    1.953   .     S
Cu924  O983    1.950   .     S
Cu924  O987    1.949   .     S
H925   C667    1.087   1_655 S
H940   C1238   1.111   1_545 S
H945   C1240   1.111   .     S
H946   C1240   1.110   .     S
H948   C690    1.111   1_655 S
H949   N975    1.032   .     S
H951   C251    1.109   1_556 S
H953   N976    1.032   .     S
H962   C695    1.111   1_655 S
C991   O1087   1.294   .     A
C991   O1094   1.299   .     A
C991   C1004   1.468   .     S
C992   H1036   1.081   .     S
C992   C994    1.405   .     A
C992   C1031   1.412   .     A
C993   C1032   1.403   .     A
C993   C1013   1.423   .     A
C994   C1024   1.423   .     A
C994   C333    1.520   1_556 S
C995   O1096   1.286   .     A
C995   C997    1.431   .     S
C995   O1098   1.289   .     A
C996   O1097   1.286   .     A
C996   C998    1.431   .     S
C996   O1099   1.289   .     A
C997   C1218   1.335   1_455 S
C997   H1255   1.087   1_455 S
C998   C1107   1.335   .     S
C998   H1156   1.087   .     S
C999   H1057   1.084   .     S
C999   C1010   1.400   .     A
C999   C1001   1.393   .     A
C1000  H1068   1.083   .     S
C1000  C1011   1.404   .     A
C1000  C1003   1.397   .     A
C1001  C1004   1.414   .     A
C1001  O1100   1.383   .     S
C1002  O1095   1.292   .     A
C1002  O1093   1.290   .     A
C1002  C1005   1.446   .     S
C1003  O1088   1.384   .     S
C1003  C1005   1.401   .     A
C1004  C1006   1.402   .     A
C1005  C1007   1.395   .     A
C1006  C1008   1.393   .     A
C1006  H1078   1.081   .     S
C1007  C1009   1.396   .     A
C1007  H1079   1.081   .     S
C1008  O1089   1.382   .     S
C1008  C1010   1.407   .     A
C1009  C1011   1.409   .     A
C1009  O1090   1.385   .     S
C1011  C680    1.467   1_565 S
C1012  H1038   1.114   .     S
C1012  C1014   1.522   .     S
C1012  O1100   1.414   .     S
C1012  H1037   1.116   .     S
C1013  C1028   1.415   .     A
C1013  N1085   1.424   .     S
C1014  H1041   1.110   .     S
C1014  H1040   1.110   .     S
C1014  H1039   1.111   .     S
C1015  C1016   1.522   .     S
C1015  H1043   1.113   .     S
C1015  H1042   1.116   .     S
C1015  O1088   1.412   .     S
C1016  H1045   1.110   .     S
C1016  H1044   1.111   .     S
C1016  H1047   1.111   .     S
C1017  O1089   1.411   .     S
C1017  H1048   1.115   .     S
C1017  H1049   1.114   .     S
C1018  H1051   1.110   .     S
C1018  H1052   1.111   .     S
C1018  C687    1.520   1_565 S
C1018  H720    1.111   1_565 S
C1019  H1053   1.115   .     S
C1019  H1054   1.113   .     S
C1019  O1090   1.412   .     S
C1019  C800    1.521   1_565 S
C1020  C909    1.521   1_455 S
C1020  H1278   1.111   1_455 S
C1021  H1060   1.110   .     S
C1021  H1062   1.112   .     S
C1021  N1085   1.449   .     S
C1022  N1086   1.446   .     S
C1022  H1066   1.111   .     S
C1022  H404    1.110   1_556 S
C1022  H405    1.110   1_556 S
C1023  O1091   1.417   .     S
C1023  H1069   1.118   .     S
C1023  H1067   1.110   .     S
C1023  C1025   1.522   .     S
C1024  N1086   1.424   .     S
C1024  C1029   1.414   .     A
C1025  H1070   1.110   .     S
C1025  H1071   1.110   .     S
C1025  H1292   1.111   1_455 S
C1026  C1027   1.521   .     S
C1026  H1073   1.116   .     S
C1026  O1092   1.415   .     S
C1026  H1074   1.112   .     S
C1027  H1076   1.110   .     S
C1027  H1077   1.111   .     S
C1027  H1185   1.111   .     S
C1028  H1080   1.080   .     S
C1028  N1083   1.366   .     A
C1029  H1081   1.082   .     S
C1029  N1084   1.363   .     A
C1030  N1083   1.373   .     A
C1030  O1091   1.379   .     S
C1030  C1032   1.406   .     A
C1031  O1092   1.384   .     S
C1031  N1084   1.368   .     A
C1032  H1082   1.081   .     S
Cu1033 N1084   2.014   .     S
Cu1033 O1095   1.954   .     S
Cu1033 O1096   1.949   .     S
Cu1033 Cu1034  2.681   .     S
Cu1033 O1087   1.950   .     S
Cu1033 O1099   1.953   .     S
Cu1034 O1094   1.954   .     S
Cu1034 N1083   2.014   .     S
Cu1034 O1098   1.953   .     S
Cu1034 O1093   1.950   .     S
Cu1034 O1097   1.949   .     S
H1035  C1107   1.087   .     S
H1046  C1218   1.087   1_455 S
H1055  C690    1.111   1_565 S
H1056  C690    1.110   1_565 S
H1058  C1130   1.111   .     S
H1059  N1085   1.032   .     S
H1061  C361    1.109   1_556 S
H1063  N1086   1.032   .     S
H1072  C1135   1.111   .     S
H1075  C1247   1.111   1_455 S
C1101  O1197   1.294   .     A
C1101  O1204   1.299   .     A
C1101  C1114   1.468   .     S
C1102  H1146   1.081   .     S
C1102  C1104   1.405   .     A
C1102  C1141   1.412   .     A
C1103  C1142   1.403   .     A
C1103  C1123   1.423   .     A
C1104  C1134   1.423   .     A
C1104  C443    1.520   1_556 S
C1105  O1206   1.286   .     A
C1105  C1107   1.431   .     S
C1105  O1208   1.289   .     A
C1106  O1207   1.286   .     A
C1106  C1108   1.431   .     S
C1106  O1209   1.289   .     A
C1108  C1217   1.335   .     S
C1108  H1266   1.087   .     S
C1109  H1167   1.084   .     S
C1109  C1120   1.400   .     A
C1109  C1111   1.393   .     A
C1110  H1178   1.083   .     S
C1110  C1121   1.404   .     A
C1110  C1113   1.397   .     A
C1111  C1114   1.414   .     A
C1111  O1210   1.383   .     S
C1112  O1205   1.292   .     A
C1112  O1203   1.290   .     A
C1112  C1115   1.446   .     S
C1113  O1198   1.384   .     S
C1113  C1115   1.401   .     A
C1114  C1116   1.402   .     A
C1115  C1117   1.395   .     A
C1116  C1118   1.393   .     A
C1116  H1188   1.081   .     S
C1117  C1119   1.396   .     A
C1117  H1189   1.081   .     S
C1118  O1199   1.382   .     S
C1118  C1120   1.407   .     A
C1119  C1121   1.409   .     A
C1119  O1200   1.385   .     S
C1121  C790    1.467   1_565 S
C1122  H1148   1.114   .     S
C1122  C1124   1.522   .     S
C1122  O1210   1.414   .     S
C1122  H1147   1.116   .     S
C1123  C1138   1.415   .     A
C1123  N1195   1.424   .     S
C1124  H1151   1.110   .     S
C1124  H1150   1.110   .     S
C1124  H1149   1.111   .     S
C1125  C1126   1.522   .     S
C1125  H1153   1.113   .     S
C1125  H1152   1.116   .     S
C1125  O1198   1.412   .     S
C1126  H1155   1.110   .     S
C1126  H1154   1.111   .     S
C1126  H1157   1.111   .     S
C1127  O1199   1.411   .     S
C1127  H1158   1.115   .     S
C1127  H1159   1.114   .     S
C1128  H1161   1.110   .     S
C1128  H1162   1.111   .     S
C1128  C797    1.520   1_565 S
C1128  H830    1.111   1_565 S
C1129  H1163   1.115   .     S
C1129  H1164   1.113   .     S
C1129  O1200   1.412   .     S
C1129  C910    1.521   1_565 S
C1131  H1170   1.110   .     S
C1131  H1172   1.112   .     S
C1131  N1195   1.449   .     S
C1132  N1196   1.446   .     S
C1132  H1176   1.111   .     S
C1132  H514    1.110   1_556 S
C1132  H515    1.110   1_556 S
C1133  O1201   1.417   .     S
C1133  H1179   1.118   .     S
C1133  H1177   1.110   .     S
C1133  C1135   1.522   .     S
C1134  N1196   1.424   .     S
C1134  C1139   1.414   .     A
C1135  H1180   1.110   .     S
C1135  H1181   1.110   .     S
C1136  C1137   1.521   .     S
C1136  H1183   1.116   .     S
C1136  O1202   1.415   .     S
C1136  H1184   1.112   .     S
C1137  H1186   1.110   .     S
C1137  H1187   1.111   .     S
C1137  H1295   1.111   .     S
C1138  H1190   1.080   .     S
C1138  N1193   1.366   .     A
C1139  H1191   1.082   .     S
C1139  N1194   1.363   .     A
C1140  N1193   1.373   .     A
C1140  O1201   1.379   .     S
C1140  C1142   1.406   .     A
C1141  O1202   1.384   .     S
C1141  N1194   1.368   .     A
C1142  H1192   1.081   .     S
Cu1143 N1194   2.014   .     S
Cu1143 O1205   1.954   .     S
Cu1143 O1206   1.949   .     S
Cu1143 Cu1144  2.681   .     S
Cu1143 O1197   1.950   .     S
Cu1143 O1209   1.953   .     S
Cu1144 O1204   1.954   .     S
Cu1144 N1193   2.014   .     S
Cu1144 O1208   1.953   .     S
Cu1144 O1203   1.950   .     S
Cu1144 O1207   1.949   .     S
H1145  C1217   1.087   .     S
H1165  C800    1.111   1_565 S
H1166  C800    1.110   1_565 S
H1168  C1240   1.111   .     S
H1169  N1195   1.032   .     S
H1171  C471    1.109   1_556 S
H1173  N1196   1.032   .     S
H1182  C1245   1.111   .     S
C1211  O1307   1.294   .     A
C1211  O1314   1.299   .     A
C1211  C1224   1.468   .     S
C1212  H1256   1.081   .     S
C1212  C1214   1.405   .     A
C1212  C1251   1.412   .     A
C1213  C1252   1.403   .     A
C1213  C1233   1.423   .     A
C1214  C1244   1.423   .     A
C1214  C553    1.520   1_556 S
C1215  O1316   1.286   .     A
C1215  C1217   1.431   .     S
C1215  O1318   1.289   .     A
C1216  O1317   1.286   .     A
C1216  C1218   1.431   .     S
C1216  O1319   1.289   .     A
C1218  C997    1.335   1_655 S
C1218  H1046   1.087   1_655 S
C1219  H1277   1.084   .     S
C1219  C1230   1.400   .     A
C1219  C1221   1.393   .     A
C1220  H1288   1.083   .     S
C1220  C1231   1.404   .     A
C1220  C1223   1.397   .     A
C1221  C1224   1.414   .     A
C1221  O1320   1.383   .     S
C1222  O1315   1.292   .     A
C1222  O1313   1.290   .     A
C1222  C1225   1.446   .     S
C1223  O1308   1.384   .     S
C1223  C1225   1.401   .     A
C1224  C1226   1.402   .     A
C1225  C1227   1.395   .     A
C1226  C1228   1.393   .     A
C1226  H1298   1.081   .     S
C1227  C1229   1.396   .     A
C1227  H1299   1.081   .     S
C1228  O1309   1.382   .     S
C1228  C1230   1.407   .     A
C1229  C1231   1.409   .     A
C1229  O1310   1.385   .     S
C1231  C900    1.467   1_565 S
C1232  H1258   1.114   .     S
C1232  C1234   1.522   .     S
C1232  O1320   1.414   .     S
C1232  H1257   1.116   .     S
C1233  C1248   1.415   .     A
C1233  N1305   1.424   .     S
C1234  H1261   1.110   .     S
C1234  H1260   1.110   .     S
C1234  H1259   1.111   .     S
C1235  C1236   1.522   .     S
C1235  H1263   1.113   .     S
C1235  H1262   1.116   .     S
C1235  O1308   1.412   .     S
C1236  H1265   1.110   .     S
C1236  H1264   1.111   .     S
C1236  H1267   1.111   .     S
C1237  O1309   1.411   .     S
C1237  H1268   1.115   .     S
C1237  H1269   1.114   .     S
C1238  H1271   1.110   .     S
C1238  H1272   1.111   .     S
C1238  C907    1.520   1_565 S
C1238  H940    1.111   1_565 S
C1239  H1273   1.115   .     S
C1239  H1274   1.113   .     S
C1239  O1310   1.412   .     S
C1239  C690    1.521   1_665 S
C1241  H1280   1.110   .     S
C1241  H1282   1.112   .     S
C1241  N1305   1.449   .     S
C1242  N1306   1.446   .     S
C1242  H1286   1.111   .     S
C1242  H624    1.110   1_556 S
C1242  H625    1.110   1_556 S
C1243  O1311   1.417   .     S
C1243  H1289   1.118   .     S
C1243  H1287   1.110   .     S
C1243  C1245   1.522   .     S
C1244  N1306   1.424   .     S
C1244  C1249   1.414   .     A
C1245  H1290   1.110   .     S
C1245  H1291   1.110   .     S
C1246  C1247   1.521   .     S
C1246  H1293   1.116   .     S
C1246  O1312   1.415   .     S
C1246  H1294   1.112   .     S
C1247  H1296   1.110   .     S
C1247  H1297   1.111   .     S
C1247  H1075   1.111   1_655 S
C1248  H1300   1.080   .     S
C1248  N1303   1.366   .     A
C1249  H1301   1.082   .     S
C1249  N1304   1.363   .     A
C1250  N1303   1.373   .     A
C1250  O1311   1.379   .     S
C1250  C1252   1.406   .     A
C1251  O1312   1.384   .     S
C1251  N1304   1.368   .     A
C1252  H1302   1.081   .     S
Cu1253 N1304   2.014   .     S
Cu1253 O1315   1.954   .     S
Cu1253 O1316   1.949   .     S
Cu1253 Cu1254  2.681   .     S
Cu1253 O1307   1.950   .     S
Cu1253 O1319   1.953   .     S
Cu1254 O1314   1.954   .     S
Cu1254 N1303   2.014   .     S
Cu1254 O1318   1.953   .     S
Cu1254 O1313   1.950   .     S
Cu1254 O1317   1.949   .     S
H1255  C997    1.087   1_655 S
H1275  C910    1.111   1_565 S
H1276  C910    1.110   1_565 S
H1278  C1020   1.111   1_655 S
H1279  N1305   1.032   .     S
H1281  C581    1.109   1_556 S
H1283  N1306   1.032   .     S
H1292  C1025   1.111   1_655 S
