data_str_m2_o10_o17_pcu_sym.178
_audit_creation_date              2020-01-03
_audit_creation_method            'Materials Studio'
_symmetry_space_group_name_H-M    'P1'
_symmetry_Int_Tables_number       1
_symmetry_cell_setting            triclinic
loop_
_symmetry_equiv_pos_as_xyz
  x,y,z
_cell_length_a                    30.9771
_cell_length_b                    26.9855
_cell_length_c                    23.5353
_cell_angle_alpha                 104.1025
_cell_angle_beta                  93.0803
_cell_angle_gamma                 91.5885
loop_
_atom_site_label
_atom_site_type_symbol
_atom_site_fract_x
_atom_site_fract_y
_atom_site_fract_z
_atom_site_U_iso_or_equiv
_atom_site_adp_type
_atom_site_occupancy
C1     C     0.25063   0.06741   0.15134   0.00000  Uiso   1.00
C2     C     0.25064   0.26605   0.18192   0.00000  Uiso   1.00
C3     C     0.01815   0.07472   0.13511   0.00000  Uiso   1.00
C4     C     0.48101   0.26212   0.20435   0.00000  Uiso   1.00
C5     C     0.24962   0.01158   0.14375   0.00000  Uiso   1.00
C6     C     0.25353   0.32199   0.18967   0.00000  Uiso   1.00
C7     C     0.16478   0.16718   0.16772   0.00000  Uiso   1.00
C8     C     0.33507   0.16673   0.16569   0.00000  Uiso   1.00
C9     C     0.40903   0.21492   0.18756   0.00000  Uiso   1.00
C10    C     0.09011   0.12004   0.15538   0.00000  Uiso   1.00
C11    C     0.38381   0.16911   0.16425   0.00000  Uiso   1.00
C12    C     0.11571   0.16610   0.16829   0.00000  Uiso   1.00
C13    C     0.40514   0.12349   0.14548   0.00000  Uiso   1.00
C14    C     0.09433   0.21251   0.18148   0.00000  Uiso   1.00
C15    C     0.45127   0.12202   0.14874   0.00000  Uiso   1.00
C16    C     0.04797   0.21429   0.18165   0.00000  Uiso   1.00
C17    C     0.47647   0.16862   0.16608   0.00000  Uiso   1.00
C18    C     0.02267   0.16808   0.16588   0.00000  Uiso   1.00
C19    C     0.45542   0.21540   0.18638   0.00000  Uiso   1.00
C20    C     0.04374   0.12107   0.15101   0.00000  Uiso   1.00
C21    C     0.47208   0.07461   0.13593   0.00000  Uiso   1.00
C22    C     0.02705   0.26152   0.19746   0.00000  Uiso   1.00
Cu23   Cu    0.25500   0.17246   0.22813   0.00000  Uiso   1.00
Cu24   Cu    0.24499   0.16087   0.10521   0.00000  Uiso   1.00
N25    N     0.23744   0.15214   0.01284   0.00000  Uiso   1.00
N26    N     0.26255   0.18119   0.32049   0.00000  Uiso   1.00
O27    O     0.25325   0.09538   0.20659   0.00000  Uiso   1.00
O28    O     0.24674   0.23796   0.12674   0.00000  Uiso   1.00
O29    O     0.24480   0.08559   0.10279   0.00000  Uiso   1.00
O30    O     0.25520   0.24774   0.23055   0.00000  Uiso   1.00
O31    O     0.18935   0.17155   0.21857   0.00000  Uiso   1.00
O32    O     0.31064   0.16179   0.11476   0.00000  Uiso   1.00
O33    O     0.18090   0.16176   0.11477   0.00000  Uiso   1.00
O34    O     0.31910   0.17157   0.21857   0.00000  Uiso   1.00
O35    O     0.39077   0.25624   0.22364   0.00000  Uiso   1.00
C36    C     0.35514   0.27583   0.19798   0.00000  Uiso   1.00
H37    H     0.32783   0.26996   0.22338   0.00000  Uiso   1.00
H38    H     0.34721   0.25772   0.15089   0.00000  Uiso   1.00
C39    C     0.36140   0.33324   0.20631   0.00000  Uiso   1.00
H40    H     0.39167   0.00935   0.18899   0.00000  Uiso   1.00
H41    H     0.33517   0.01490   0.18255   0.00000  Uiso   1.00
H42    H     0.36186   0.01963   0.25335   0.00000  Uiso   1.00
O43    O     0.10706   0.07549   0.16429   0.00000  Uiso   1.00
C44    C     0.14404   0.05861   0.13486   0.00000  Uiso   1.00
H45    H     0.17210   0.07319   0.16541   0.00000  Uiso   1.00
H46    H     0.14636   0.07083   0.09317   0.00000  Uiso   1.00
C47    C     0.14322   0.00030   0.12215   0.00000  Uiso   1.00
H48    H     0.11273   0.31818   0.13426   0.00000  Uiso   1.00
H49    H     0.14645   0.31676   0.07503   0.00000  Uiso   1.00
H50    H     0.16909   0.32015   0.14774   0.00000  Uiso   1.00
O51    O     0.37961   0.07934   0.12976   0.00000  Uiso   1.00
C52    C     0.37444   0.06416   0.06829   0.00000  Uiso   1.00
H53    H     0.40493   0.05001   0.04944   0.00000  Uiso   1.00
H54    H     0.36344   0.09567   0.04858   0.00000  Uiso   1.00
C55    C     0.34082   0.02112   0.05286   0.00000  Uiso   1.00
H56    H     0.30926   0.03841   0.05975   0.00000  Uiso   1.00
H57    H     0.34290   0.33237   0.00689   0.00000  Uiso   1.00
H58    H     0.34467   0.32809   0.08197   0.00000  Uiso   1.00
O59    O     0.12013   0.25639   0.19844   0.00000  Uiso   1.00
C60    C     0.12832   0.26706   0.25969   0.00000  Uiso   1.00
H61    H     0.13505   0.23261   0.27658   0.00000  Uiso   1.00
H62    H     0.10021   0.28456   0.28128   0.00000  Uiso   1.00
C63    C     0.16658   0.30423   0.27688   0.00000  Uiso   1.00
H64    H     0.17198   0.32664   0.24432   0.00000  Uiso   1.00
H65    H     0.16258   0.33113   0.31983   0.00000  Uiso   1.00
H66    H     0.19512   0.28169   0.27875   0.00000  Uiso   1.00
O67    O     0.44645   0.03016   0.13354   0.00000  Uiso   1.00
C68    C     0.45867   0.31952   0.09263   0.00000  Uiso   1.00
H69    H     0.48402   0.30090   0.11296   0.00000  Uiso   1.00
H70    H     0.46791   0.32982   0.05353   0.00000  Uiso   1.00
C71    C     0.42288   0.27884   0.07227   0.00000  Uiso   1.00
H72    H     0.40201   0.28719   0.03660   0.00000  Uiso   1.00
H73    H     0.43709   0.24132   0.05413   0.00000  Uiso   1.00
H74    H     0.40407   0.27540   0.10907   0.00000  Uiso   1.00
O75    O     0.05193   0.30551   0.19695   0.00000  Uiso   1.00
C76    C     0.04713   0.01250   0.24647   0.00000  Uiso   1.00
H77    H     0.04189   0.33037   0.28394   0.00000  Uiso   1.00
H78    H     0.02182   0.03665   0.23554   0.00000  Uiso   1.00
C79    C     0.08714   0.04730   0.26506   0.00000  Uiso   1.00
H80    H     0.08016   0.08704   0.26316   0.00000  Uiso   1.00
H81    H     0.09839   0.04923   0.31093   0.00000  Uiso   1.00
H82    H     0.11360   0.03287   0.23755   0.00000  Uiso   1.00
O83    O     0.03855   0.02880   0.12405   0.00000  Uiso   1.00
C84    C     0.04934   0.01411   0.06495   0.00000  Uiso   1.00
H85    H     0.08078   0.03125   0.05952   0.00000  Uiso   1.00
H86    H     0.02692   0.02930   0.03606   0.00000  Uiso   1.00
C87    C     0.05122   0.28866   0.04551   0.00000  Uiso   1.00
H88    H     0.02719   0.27200   0.00877   0.00000  Uiso   1.00
H89    H     0.08361   0.27689   0.03200   0.00000  Uiso   1.00
H90    H     0.04544   0.27033   0.08179   0.00000  Uiso   1.00
O91    O     0.46010   0.30844   0.21404   0.00000  Uiso   1.00
C92    C     0.45496   0.33035   0.27458   0.00000  Uiso   1.00
H93    H     0.48011   0.31860   0.30156   0.00000  Uiso   1.00
H94    H     0.42536   0.31707   0.29081   0.00000  Uiso   1.00
C95    C     0.45298   0.05567   0.28739   0.00000  Uiso   1.00
H96    H     0.45976   0.07036   0.24873   0.00000  Uiso   1.00
H97    H     0.42032   0.06855   0.29901   0.00000  Uiso   1.00
H98    H     0.47624   0.07430   0.32444   0.00000  Uiso   1.00
I99    I     0.23681   0.30440   0.05513   0.00000  Uiso   1.00
I100   I     0.26886   0.02937   0.27824   0.00000  Uiso   1.00
I101   I     0.17783   0.12065   0.31032   0.00000  Uiso   1.00
I102   I     0.32373   0.20973   0.02110   0.00000  Uiso   1.00
C103   C     0.75063   0.06741   0.15134   0.00000  Uiso   1.00
C104   C     0.75064   0.26605   0.18192   0.00000  Uiso   1.00
C105   C     0.51815   0.07472   0.13511   0.00000  Uiso   1.00
C106   C     0.98101   0.26212   0.20435   0.00000  Uiso   1.00
C107   C     0.74962   0.01158   0.14375   0.00000  Uiso   1.00
C108   C     0.75353   0.32199   0.18967   0.00000  Uiso   1.00
C109   C     0.66478   0.16718   0.16772   0.00000  Uiso   1.00
C110   C     0.83507   0.16673   0.16569   0.00000  Uiso   1.00
C111   C     0.90903   0.21492   0.18756   0.00000  Uiso   1.00
C112   C     0.59011   0.12004   0.15538   0.00000  Uiso   1.00
C113   C     0.88381   0.16911   0.16425   0.00000  Uiso   1.00
C114   C     0.61571   0.16610   0.16829   0.00000  Uiso   1.00
C115   C     0.90514   0.12349   0.14548   0.00000  Uiso   1.00
C116   C     0.59433   0.21251   0.18148   0.00000  Uiso   1.00
C117   C     0.95127   0.12202   0.14874   0.00000  Uiso   1.00
C118   C     0.54797   0.21429   0.18165   0.00000  Uiso   1.00
C119   C     0.97647   0.16862   0.16608   0.00000  Uiso   1.00
C120   C     0.52267   0.16808   0.16588   0.00000  Uiso   1.00
C121   C     0.95542   0.21540   0.18638   0.00000  Uiso   1.00
C122   C     0.54374   0.12107   0.15101   0.00000  Uiso   1.00
C123   C     0.97208   0.07461   0.13593   0.00000  Uiso   1.00
C124   C     0.52705   0.26152   0.19746   0.00000  Uiso   1.00
Cu125  Cu    0.75500   0.17246   0.22813   0.00000  Uiso   1.00
Cu126  Cu    0.74499   0.16087   0.10521   0.00000  Uiso   1.00
N127   N     0.73744   0.15214   0.01284   0.00000  Uiso   1.00
N128   N     0.76255   0.18119   0.32049   0.00000  Uiso   1.00
O129   O     0.75325   0.09538   0.20659   0.00000  Uiso   1.00
O130   O     0.74674   0.23796   0.12674   0.00000  Uiso   1.00
O131   O     0.74480   0.08559   0.10279   0.00000  Uiso   1.00
O132   O     0.75520   0.24774   0.23055   0.00000  Uiso   1.00
O133   O     0.68935   0.17155   0.21857   0.00000  Uiso   1.00
O134   O     0.81064   0.16179   0.11476   0.00000  Uiso   1.00
O135   O     0.68090   0.16176   0.11477   0.00000  Uiso   1.00
O136   O     0.81910   0.17157   0.21857   0.00000  Uiso   1.00
O137   O     0.89077   0.25624   0.22364   0.00000  Uiso   1.00
C138   C     0.85514   0.27583   0.19798   0.00000  Uiso   1.00
H139   H     0.82783   0.26996   0.22338   0.00000  Uiso   1.00
H140   H     0.84721   0.25772   0.15089   0.00000  Uiso   1.00
C141   C     0.86140   0.33324   0.20631   0.00000  Uiso   1.00
H142   H     0.89167   0.00935   0.18899   0.00000  Uiso   1.00
H143   H     0.83517   0.01490   0.18255   0.00000  Uiso   1.00
H144   H     0.86186   0.01963   0.25335   0.00000  Uiso   1.00
O145   O     0.60706   0.07549   0.16429   0.00000  Uiso   1.00
C146   C     0.64404   0.05861   0.13486   0.00000  Uiso   1.00
H147   H     0.67210   0.07319   0.16541   0.00000  Uiso   1.00
H148   H     0.64636   0.07083   0.09317   0.00000  Uiso   1.00
C149   C     0.64322   0.00030   0.12215   0.00000  Uiso   1.00
H150   H     0.61273   0.31818   0.13426   0.00000  Uiso   1.00
H151   H     0.64645   0.31676   0.07503   0.00000  Uiso   1.00
H152   H     0.66909   0.32015   0.14774   0.00000  Uiso   1.00
O153   O     0.87961   0.07934   0.12976   0.00000  Uiso   1.00
C154   C     0.87444   0.06416   0.06829   0.00000  Uiso   1.00
H155   H     0.90493   0.05001   0.04944   0.00000  Uiso   1.00
H156   H     0.86344   0.09567   0.04858   0.00000  Uiso   1.00
C157   C     0.84082   0.02112   0.05286   0.00000  Uiso   1.00
H158   H     0.80926   0.03841   0.05975   0.00000  Uiso   1.00
H159   H     0.84290   0.33237   0.00689   0.00000  Uiso   1.00
H160   H     0.84467   0.32809   0.08197   0.00000  Uiso   1.00
O161   O     0.62013   0.25639   0.19844   0.00000  Uiso   1.00
C162   C     0.62832   0.26706   0.25969   0.00000  Uiso   1.00
H163   H     0.63505   0.23261   0.27658   0.00000  Uiso   1.00
H164   H     0.60021   0.28456   0.28128   0.00000  Uiso   1.00
C165   C     0.66658   0.30423   0.27688   0.00000  Uiso   1.00
H166   H     0.67198   0.32664   0.24432   0.00000  Uiso   1.00
H167   H     0.66258   0.33113   0.31983   0.00000  Uiso   1.00
H168   H     0.69512   0.28169   0.27875   0.00000  Uiso   1.00
O169   O     0.94645   0.03016   0.13354   0.00000  Uiso   1.00
C170   C     0.95867   0.31952   0.09263   0.00000  Uiso   1.00
H171   H     0.98402   0.30090   0.11296   0.00000  Uiso   1.00
H172   H     0.96791   0.32982   0.05353   0.00000  Uiso   1.00
C173   C     0.92288   0.27884   0.07227   0.00000  Uiso   1.00
H174   H     0.90201   0.28719   0.03660   0.00000  Uiso   1.00
H175   H     0.93709   0.24132   0.05413   0.00000  Uiso   1.00
H176   H     0.90407   0.27540   0.10907   0.00000  Uiso   1.00
O177   O     0.55193   0.30551   0.19695   0.00000  Uiso   1.00
C178   C     0.54713   0.01250   0.24647   0.00000  Uiso   1.00
H179   H     0.54189   0.33037   0.28394   0.00000  Uiso   1.00
H180   H     0.52182   0.03665   0.23554   0.00000  Uiso   1.00
C181   C     0.58714   0.04730   0.26506   0.00000  Uiso   1.00
H182   H     0.58016   0.08704   0.26316   0.00000  Uiso   1.00
H183   H     0.59839   0.04923   0.31093   0.00000  Uiso   1.00
H184   H     0.61360   0.03287   0.23755   0.00000  Uiso   1.00
O185   O     0.53855   0.02880   0.12405   0.00000  Uiso   1.00
C186   C     0.54934   0.01411   0.06495   0.00000  Uiso   1.00
H187   H     0.58078   0.03125   0.05952   0.00000  Uiso   1.00
H188   H     0.52692   0.02930   0.03606   0.00000  Uiso   1.00
C189   C     0.55122   0.28866   0.04551   0.00000  Uiso   1.00
H190   H     0.52719   0.27200   0.00877   0.00000  Uiso   1.00
H191   H     0.58361   0.27689   0.03200   0.00000  Uiso   1.00
H192   H     0.54544   0.27033   0.08179   0.00000  Uiso   1.00
O193   O     0.96010   0.30844   0.21404   0.00000  Uiso   1.00
C194   C     0.95496   0.33035   0.27458   0.00000  Uiso   1.00
H195   H     0.98011   0.31860   0.30156   0.00000  Uiso   1.00
H196   H     0.92536   0.31707   0.29081   0.00000  Uiso   1.00
C197   C     0.95298   0.05567   0.28739   0.00000  Uiso   1.00
H198   H     0.95976   0.07036   0.24873   0.00000  Uiso   1.00
H199   H     0.92032   0.06855   0.29901   0.00000  Uiso   1.00
H200   H     0.97624   0.07430   0.32444   0.00000  Uiso   1.00
I201   I     0.73681   0.30440   0.05513   0.00000  Uiso   1.00
I202   I     0.76886   0.02937   0.27824   0.00000  Uiso   1.00
I203   I     0.67783   0.12065   0.31032   0.00000  Uiso   1.00
I204   I     0.82373   0.20973   0.02110   0.00000  Uiso   1.00
C205   C     0.25063   0.40074   0.15134   0.00000  Uiso   1.00
C206   C     0.25064   0.59938   0.18192   0.00000  Uiso   1.00
C207   C     0.01815   0.40805   0.13511   0.00000  Uiso   1.00
C208   C     0.48101   0.59545   0.20435   0.00000  Uiso   1.00
C209   C     0.24962   0.34491   0.14375   0.00000  Uiso   1.00
C210   C     0.25353   0.65533   0.18967   0.00000  Uiso   1.00
C211   C     0.16478   0.50051   0.16772   0.00000  Uiso   1.00
C212   C     0.33507   0.50006   0.16569   0.00000  Uiso   1.00
C213   C     0.40903   0.54825   0.18756   0.00000  Uiso   1.00
C214   C     0.09011   0.45338   0.15538   0.00000  Uiso   1.00
C215   C     0.38381   0.50244   0.16425   0.00000  Uiso   1.00
C216   C     0.11571   0.49944   0.16829   0.00000  Uiso   1.00
C217   C     0.40514   0.45682   0.14548   0.00000  Uiso   1.00
C218   C     0.09433   0.54584   0.18148   0.00000  Uiso   1.00
C219   C     0.45127   0.45535   0.14874   0.00000  Uiso   1.00
C220   C     0.04797   0.54763   0.18165   0.00000  Uiso   1.00
C221   C     0.47647   0.50195   0.16608   0.00000  Uiso   1.00
C222   C     0.02267   0.50141   0.16588   0.00000  Uiso   1.00
C223   C     0.45542   0.54873   0.18638   0.00000  Uiso   1.00
C224   C     0.04374   0.45440   0.15101   0.00000  Uiso   1.00
C225   C     0.47208   0.40794   0.13593   0.00000  Uiso   1.00
C226   C     0.02705   0.59485   0.19746   0.00000  Uiso   1.00
Cu227  Cu    0.25500   0.50579   0.22813   0.00000  Uiso   1.00
Cu228  Cu    0.24499   0.49421   0.10521   0.00000  Uiso   1.00
N229   N     0.23744   0.48547   0.01284   0.00000  Uiso   1.00
N230   N     0.26255   0.51453   0.32049   0.00000  Uiso   1.00
O231   O     0.25325   0.42871   0.20659   0.00000  Uiso   1.00
O232   O     0.24674   0.57129   0.12674   0.00000  Uiso   1.00
O233   O     0.24480   0.41892   0.10279   0.00000  Uiso   1.00
O234   O     0.25520   0.58108   0.23055   0.00000  Uiso   1.00
O235   O     0.18935   0.50488   0.21857   0.00000  Uiso   1.00
O236   O     0.31064   0.49512   0.11476   0.00000  Uiso   1.00
O237   O     0.18090   0.49510   0.11477   0.00000  Uiso   1.00
O238   O     0.31910   0.50490   0.21857   0.00000  Uiso   1.00
O239   O     0.39077   0.58957   0.22364   0.00000  Uiso   1.00
C240   C     0.35514   0.60916   0.19798   0.00000  Uiso   1.00
H241   H     0.32783   0.60329   0.22338   0.00000  Uiso   1.00
H242   H     0.34721   0.59105   0.15089   0.00000  Uiso   1.00
C243   C     0.36140   0.66658   0.20631   0.00000  Uiso   1.00
H244   H     0.39167   0.34269   0.18899   0.00000  Uiso   1.00
H245   H     0.33517   0.34823   0.18255   0.00000  Uiso   1.00
H246   H     0.36186   0.35296   0.25335   0.00000  Uiso   1.00
O247   O     0.10706   0.40882   0.16429   0.00000  Uiso   1.00
C248   C     0.14404   0.39195   0.13486   0.00000  Uiso   1.00
H249   H     0.17210   0.40652   0.16541   0.00000  Uiso   1.00
H250   H     0.14636   0.40416   0.09317   0.00000  Uiso   1.00
C251   C     0.14322   0.33363   0.12215   0.00000  Uiso   1.00
H252   H     0.11273   0.65151   0.13426   0.00000  Uiso   1.00
H253   H     0.14645   0.65009   0.07503   0.00000  Uiso   1.00
H254   H     0.16909   0.65348   0.14774   0.00000  Uiso   1.00
O255   O     0.37961   0.41268   0.12976   0.00000  Uiso   1.00
C256   C     0.37444   0.39750   0.06829   0.00000  Uiso   1.00
H257   H     0.40493   0.38335   0.04944   0.00000  Uiso   1.00
H258   H     0.36344   0.42901   0.04858   0.00000  Uiso   1.00
C259   C     0.34082   0.35445   0.05286   0.00000  Uiso   1.00
H260   H     0.30926   0.37175   0.05975   0.00000  Uiso   1.00
H261   H     0.34290   0.66570   0.00689   0.00000  Uiso   1.00
H262   H     0.34467   0.66142   0.08197   0.00000  Uiso   1.00
O263   O     0.12013   0.58972   0.19844   0.00000  Uiso   1.00
C264   C     0.12832   0.60039   0.25969   0.00000  Uiso   1.00
H265   H     0.13505   0.56594   0.27658   0.00000  Uiso   1.00
H266   H     0.10021   0.61790   0.28128   0.00000  Uiso   1.00
C267   C     0.16658   0.63757   0.27688   0.00000  Uiso   1.00
H268   H     0.17198   0.65997   0.24432   0.00000  Uiso   1.00
H269   H     0.16258   0.66447   0.31983   0.00000  Uiso   1.00
H270   H     0.19512   0.61502   0.27875   0.00000  Uiso   1.00
O271   O     0.44645   0.36350   0.13354   0.00000  Uiso   1.00
C272   C     0.45867   0.65285   0.09263   0.00000  Uiso   1.00
H273   H     0.48402   0.63423   0.11296   0.00000  Uiso   1.00
H274   H     0.46791   0.66315   0.05353   0.00000  Uiso   1.00
C275   C     0.42288   0.61217   0.07227   0.00000  Uiso   1.00
H276   H     0.40201   0.62052   0.03660   0.00000  Uiso   1.00
H277   H     0.43709   0.57465   0.05413   0.00000  Uiso   1.00
H278   H     0.40407   0.60873   0.10907   0.00000  Uiso   1.00
O279   O     0.05193   0.63884   0.19695   0.00000  Uiso   1.00
C280   C     0.04713   0.34584   0.24647   0.00000  Uiso   1.00
H281   H     0.04189   0.66370   0.28394   0.00000  Uiso   1.00
H282   H     0.02182   0.36998   0.23554   0.00000  Uiso   1.00
C283   C     0.08714   0.38063   0.26506   0.00000  Uiso   1.00
H284   H     0.08016   0.42038   0.26316   0.00000  Uiso   1.00
H285   H     0.09839   0.38256   0.31093   0.00000  Uiso   1.00
H286   H     0.11360   0.36620   0.23755   0.00000  Uiso   1.00
O287   O     0.03855   0.36213   0.12405   0.00000  Uiso   1.00
C288   C     0.04934   0.34744   0.06495   0.00000  Uiso   1.00
H289   H     0.08078   0.36459   0.05952   0.00000  Uiso   1.00
H290   H     0.02692   0.36264   0.03606   0.00000  Uiso   1.00
C291   C     0.05122   0.62199   0.04551   0.00000  Uiso   1.00
H292   H     0.02719   0.60533   0.00877   0.00000  Uiso   1.00
H293   H     0.08361   0.61022   0.03200   0.00000  Uiso   1.00
H294   H     0.04544   0.60366   0.08179   0.00000  Uiso   1.00
O295   O     0.46010   0.64177   0.21404   0.00000  Uiso   1.00
C296   C     0.45496   0.66368   0.27458   0.00000  Uiso   1.00
H297   H     0.48011   0.65193   0.30156   0.00000  Uiso   1.00
H298   H     0.42536   0.65041   0.29081   0.00000  Uiso   1.00
C299   C     0.45298   0.38901   0.28739   0.00000  Uiso   1.00
H300   H     0.45976   0.40369   0.24873   0.00000  Uiso   1.00
H301   H     0.42032   0.40188   0.29901   0.00000  Uiso   1.00
H302   H     0.47624   0.40763   0.32444   0.00000  Uiso   1.00
I303   I     0.23681   0.63773   0.05513   0.00000  Uiso   1.00
I304   I     0.26886   0.36270   0.27824   0.00000  Uiso   1.00
I305   I     0.17783   0.45399   0.31032   0.00000  Uiso   1.00
I306   I     0.32373   0.54307   0.02110   0.00000  Uiso   1.00
C307   C     0.75063   0.40074   0.15134   0.00000  Uiso   1.00
C308   C     0.75064   0.59938   0.18192   0.00000  Uiso   1.00
C309   C     0.51815   0.40805   0.13511   0.00000  Uiso   1.00
C310   C     0.98101   0.59545   0.20435   0.00000  Uiso   1.00
C311   C     0.74962   0.34491   0.14375   0.00000  Uiso   1.00
C312   C     0.75353   0.65533   0.18967   0.00000  Uiso   1.00
C313   C     0.66478   0.50051   0.16772   0.00000  Uiso   1.00
C314   C     0.83507   0.50006   0.16569   0.00000  Uiso   1.00
C315   C     0.90903   0.54825   0.18756   0.00000  Uiso   1.00
C316   C     0.59011   0.45338   0.15538   0.00000  Uiso   1.00
C317   C     0.88381   0.50244   0.16425   0.00000  Uiso   1.00
C318   C     0.61571   0.49944   0.16829   0.00000  Uiso   1.00
C319   C     0.90514   0.45682   0.14548   0.00000  Uiso   1.00
C320   C     0.59433   0.54584   0.18148   0.00000  Uiso   1.00
C321   C     0.95127   0.45535   0.14874   0.00000  Uiso   1.00
C322   C     0.54797   0.54763   0.18165   0.00000  Uiso   1.00
C323   C     0.97647   0.50195   0.16608   0.00000  Uiso   1.00
C324   C     0.52267   0.50141   0.16588   0.00000  Uiso   1.00
C325   C     0.95542   0.54873   0.18638   0.00000  Uiso   1.00
C326   C     0.54374   0.45440   0.15101   0.00000  Uiso   1.00
C327   C     0.97208   0.40794   0.13593   0.00000  Uiso   1.00
C328   C     0.52705   0.59485   0.19746   0.00000  Uiso   1.00
Cu329  Cu    0.75500   0.50579   0.22813   0.00000  Uiso   1.00
Cu330  Cu    0.74499   0.49421   0.10521   0.00000  Uiso   1.00
N331   N     0.73744   0.48547   0.01284   0.00000  Uiso   1.00
N332   N     0.76255   0.51453   0.32049   0.00000  Uiso   1.00
O333   O     0.75325   0.42871   0.20659   0.00000  Uiso   1.00
O334   O     0.74674   0.57129   0.12674   0.00000  Uiso   1.00
O335   O     0.74480   0.41892   0.10279   0.00000  Uiso   1.00
O336   O     0.75520   0.58108   0.23055   0.00000  Uiso   1.00
O337   O     0.68935   0.50488   0.21857   0.00000  Uiso   1.00
O338   O     0.81064   0.49512   0.11476   0.00000  Uiso   1.00
O339   O     0.68090   0.49510   0.11477   0.00000  Uiso   1.00
O340   O     0.81910   0.50490   0.21857   0.00000  Uiso   1.00
O341   O     0.89077   0.58957   0.22364   0.00000  Uiso   1.00
C342   C     0.85514   0.60916   0.19798   0.00000  Uiso   1.00
H343   H     0.82783   0.60329   0.22338   0.00000  Uiso   1.00
H344   H     0.84721   0.59105   0.15089   0.00000  Uiso   1.00
C345   C     0.86140   0.66658   0.20631   0.00000  Uiso   1.00
H346   H     0.89167   0.34269   0.18899   0.00000  Uiso   1.00
H347   H     0.83517   0.34823   0.18255   0.00000  Uiso   1.00
H348   H     0.86186   0.35296   0.25335   0.00000  Uiso   1.00
O349   O     0.60706   0.40882   0.16429   0.00000  Uiso   1.00
C350   C     0.64404   0.39195   0.13486   0.00000  Uiso   1.00
H351   H     0.67210   0.40652   0.16541   0.00000  Uiso   1.00
H352   H     0.64636   0.40416   0.09317   0.00000  Uiso   1.00
C353   C     0.64322   0.33363   0.12215   0.00000  Uiso   1.00
H354   H     0.61273   0.65151   0.13426   0.00000  Uiso   1.00
H355   H     0.64645   0.65009   0.07503   0.00000  Uiso   1.00
H356   H     0.66909   0.65348   0.14774   0.00000  Uiso   1.00
O357   O     0.87961   0.41268   0.12976   0.00000  Uiso   1.00
C358   C     0.87444   0.39750   0.06829   0.00000  Uiso   1.00
H359   H     0.90493   0.38335   0.04944   0.00000  Uiso   1.00
H360   H     0.86344   0.42901   0.04858   0.00000  Uiso   1.00
C361   C     0.84082   0.35445   0.05286   0.00000  Uiso   1.00
H362   H     0.80926   0.37175   0.05975   0.00000  Uiso   1.00
H363   H     0.84290   0.66570   0.00689   0.00000  Uiso   1.00
H364   H     0.84467   0.66142   0.08197   0.00000  Uiso   1.00
O365   O     0.62013   0.58972   0.19844   0.00000  Uiso   1.00
C366   C     0.62832   0.60039   0.25969   0.00000  Uiso   1.00
H367   H     0.63505   0.56594   0.27658   0.00000  Uiso   1.00
H368   H     0.60021   0.61790   0.28128   0.00000  Uiso   1.00
C369   C     0.66658   0.63757   0.27688   0.00000  Uiso   1.00
H370   H     0.67198   0.65997   0.24432   0.00000  Uiso   1.00
H371   H     0.66258   0.66447   0.31983   0.00000  Uiso   1.00
H372   H     0.69512   0.61502   0.27875   0.00000  Uiso   1.00
O373   O     0.94645   0.36350   0.13354   0.00000  Uiso   1.00
C374   C     0.95867   0.65285   0.09263   0.00000  Uiso   1.00
H375   H     0.98402   0.63423   0.11296   0.00000  Uiso   1.00
H376   H     0.96791   0.66315   0.05353   0.00000  Uiso   1.00
C377   C     0.92288   0.61217   0.07227   0.00000  Uiso   1.00
H378   H     0.90201   0.62052   0.03660   0.00000  Uiso   1.00
H379   H     0.93709   0.57465   0.05413   0.00000  Uiso   1.00
H380   H     0.90407   0.60873   0.10907   0.00000  Uiso   1.00
O381   O     0.55193   0.63884   0.19695   0.00000  Uiso   1.00
C382   C     0.54713   0.34584   0.24647   0.00000  Uiso   1.00
H383   H     0.54189   0.66370   0.28394   0.00000  Uiso   1.00
H384   H     0.52182   0.36998   0.23554   0.00000  Uiso   1.00
C385   C     0.58714   0.38063   0.26506   0.00000  Uiso   1.00
H386   H     0.58016   0.42038   0.26316   0.00000  Uiso   1.00
H387   H     0.59839   0.38256   0.31093   0.00000  Uiso   1.00
H388   H     0.61360   0.36620   0.23755   0.00000  Uiso   1.00
O389   O     0.53855   0.36213   0.12405   0.00000  Uiso   1.00
C390   C     0.54934   0.34744   0.06495   0.00000  Uiso   1.00
H391   H     0.58078   0.36459   0.05952   0.00000  Uiso   1.00
H392   H     0.52692   0.36264   0.03606   0.00000  Uiso   1.00
C393   C     0.55122   0.62199   0.04551   0.00000  Uiso   1.00
H394   H     0.52719   0.60533   0.00877   0.00000  Uiso   1.00
H395   H     0.58361   0.61022   0.03200   0.00000  Uiso   1.00
H396   H     0.54544   0.60366   0.08179   0.00000  Uiso   1.00
O397   O     0.96010   0.64177   0.21404   0.00000  Uiso   1.00
C398   C     0.95496   0.66368   0.27458   0.00000  Uiso   1.00
H399   H     0.98011   0.65193   0.30156   0.00000  Uiso   1.00
H400   H     0.92536   0.65041   0.29081   0.00000  Uiso   1.00
C401   C     0.95298   0.38901   0.28739   0.00000  Uiso   1.00
H402   H     0.95976   0.40369   0.24873   0.00000  Uiso   1.00
H403   H     0.92032   0.40188   0.29901   0.00000  Uiso   1.00
H404   H     0.97624   0.40763   0.32444   0.00000  Uiso   1.00
I405   I     0.73681   0.63773   0.05513   0.00000  Uiso   1.00
I406   I     0.76886   0.36270   0.27824   0.00000  Uiso   1.00
I407   I     0.67783   0.45399   0.31032   0.00000  Uiso   1.00
I408   I     0.82373   0.54307   0.02110   0.00000  Uiso   1.00
C409   C     0.25063   0.73407   0.15134   0.00000  Uiso   1.00
C410   C     0.25064   0.93272   0.18192   0.00000  Uiso   1.00
C411   C     0.01815   0.74139   0.13511   0.00000  Uiso   1.00
C412   C     0.48101   0.92879   0.20435   0.00000  Uiso   1.00
C413   C     0.24962   0.67825   0.14375   0.00000  Uiso   1.00
C414   C     0.25353   0.98866   0.18967   0.00000  Uiso   1.00
C415   C     0.16478   0.83385   0.16772   0.00000  Uiso   1.00
C416   C     0.33507   0.83339   0.16569   0.00000  Uiso   1.00
C417   C     0.40903   0.88159   0.18756   0.00000  Uiso   1.00
C418   C     0.09011   0.78671   0.15538   0.00000  Uiso   1.00
C419   C     0.38381   0.83578   0.16425   0.00000  Uiso   1.00
C420   C     0.11571   0.83277   0.16829   0.00000  Uiso   1.00
C421   C     0.40514   0.79015   0.14548   0.00000  Uiso   1.00
C422   C     0.09433   0.87918   0.18148   0.00000  Uiso   1.00
C423   C     0.45127   0.78869   0.14874   0.00000  Uiso   1.00
C424   C     0.04797   0.88096   0.18165   0.00000  Uiso   1.00
C425   C     0.47647   0.83529   0.16608   0.00000  Uiso   1.00
C426   C     0.02267   0.83474   0.16588   0.00000  Uiso   1.00
C427   C     0.45542   0.88206   0.18638   0.00000  Uiso   1.00
C428   C     0.04374   0.78773   0.15101   0.00000  Uiso   1.00
C429   C     0.47208   0.74127   0.13593   0.00000  Uiso   1.00
C430   C     0.02705   0.92819   0.19746   0.00000  Uiso   1.00
Cu431  Cu    0.25500   0.83913   0.22813   0.00000  Uiso   1.00
Cu432  Cu    0.24499   0.82754   0.10521   0.00000  Uiso   1.00
N433   N     0.23744   0.81881   0.01284   0.00000  Uiso   1.00
N434   N     0.26255   0.84786   0.32049   0.00000  Uiso   1.00
O435   O     0.25325   0.76204   0.20659   0.00000  Uiso   1.00
O436   O     0.24674   0.90462   0.12674   0.00000  Uiso   1.00
O437   O     0.24480   0.75226   0.10279   0.00000  Uiso   1.00
O438   O     0.25520   0.91441   0.23055   0.00000  Uiso   1.00
O439   O     0.18935   0.83821   0.21857   0.00000  Uiso   1.00
O440   O     0.31064   0.82845   0.11476   0.00000  Uiso   1.00
O441   O     0.18090   0.82843   0.11477   0.00000  Uiso   1.00
O442   O     0.31910   0.83824   0.21857   0.00000  Uiso   1.00
O443   O     0.39077   0.92290   0.22364   0.00000  Uiso   1.00
C444   C     0.35514   0.94250   0.19798   0.00000  Uiso   1.00
H445   H     0.32783   0.93662   0.22338   0.00000  Uiso   1.00
H446   H     0.34721   0.92438   0.15089   0.00000  Uiso   1.00
C447   C     0.36140   0.99991   0.20631   0.00000  Uiso   1.00
H448   H     0.39167   0.67602   0.18899   0.00000  Uiso   1.00
H449   H     0.33517   0.68156   0.18255   0.00000  Uiso   1.00
H450   H     0.36186   0.68630   0.25335   0.00000  Uiso   1.00
O451   O     0.10706   0.74216   0.16429   0.00000  Uiso   1.00
C452   C     0.14404   0.72528   0.13486   0.00000  Uiso   1.00
H453   H     0.17210   0.73985   0.16541   0.00000  Uiso   1.00
H454   H     0.14636   0.73749   0.09317   0.00000  Uiso   1.00
C455   C     0.14322   0.66697   0.12215   0.00000  Uiso   1.00
H456   H     0.11273   0.98484   0.13426   0.00000  Uiso   1.00
H457   H     0.14645   0.98343   0.07503   0.00000  Uiso   1.00
H458   H     0.16909   0.98682   0.14774   0.00000  Uiso   1.00
O459   O     0.37961   0.74601   0.12976   0.00000  Uiso   1.00
C460   C     0.37444   0.73083   0.06829   0.00000  Uiso   1.00
H461   H     0.40493   0.71668   0.04944   0.00000  Uiso   1.00
H462   H     0.36344   0.76234   0.04858   0.00000  Uiso   1.00
C463   C     0.34082   0.68778   0.05286   0.00000  Uiso   1.00
H464   H     0.30926   0.70508   0.05975   0.00000  Uiso   1.00
H465   H     0.34290   0.99904   0.00689   0.00000  Uiso   1.00
H466   H     0.34467   0.99476   0.08197   0.00000  Uiso   1.00
O467   O     0.12013   0.92305   0.19844   0.00000  Uiso   1.00
C468   C     0.12832   0.93372   0.25969   0.00000  Uiso   1.00
H469   H     0.13505   0.89927   0.27658   0.00000  Uiso   1.00
H470   H     0.10021   0.95123   0.28128   0.00000  Uiso   1.00
C471   C     0.16658   0.97090   0.27688   0.00000  Uiso   1.00
H472   H     0.17198   0.99331   0.24432   0.00000  Uiso   1.00
H473   H     0.16258   0.99780   0.31983   0.00000  Uiso   1.00
H474   H     0.19512   0.94835   0.27875   0.00000  Uiso   1.00
O475   O     0.44645   0.69683   0.13354   0.00000  Uiso   1.00
C476   C     0.45867   0.98619   0.09263   0.00000  Uiso   1.00
H477   H     0.48402   0.96756   0.11296   0.00000  Uiso   1.00
H478   H     0.46791   0.99649   0.05353   0.00000  Uiso   1.00
C479   C     0.42288   0.94550   0.07227   0.00000  Uiso   1.00
H480   H     0.40201   0.95385   0.03660   0.00000  Uiso   1.00
H481   H     0.43709   0.90798   0.05413   0.00000  Uiso   1.00
H482   H     0.40407   0.94207   0.10907   0.00000  Uiso   1.00
O483   O     0.05193   0.97217   0.19695   0.00000  Uiso   1.00
C484   C     0.04713   0.67917   0.24647   0.00000  Uiso   1.00
H485   H     0.04189   0.99703   0.28394   0.00000  Uiso   1.00
H486   H     0.02182   0.70331   0.23554   0.00000  Uiso   1.00
C487   C     0.08714   0.71396   0.26506   0.00000  Uiso   1.00
H488   H     0.08016   0.75371   0.26316   0.00000  Uiso   1.00
H489   H     0.09839   0.71590   0.31093   0.00000  Uiso   1.00
H490   H     0.11360   0.69954   0.23755   0.00000  Uiso   1.00
O491   O     0.03855   0.69546   0.12405   0.00000  Uiso   1.00
C492   C     0.04934   0.68078   0.06495   0.00000  Uiso   1.00
H493   H     0.08078   0.69792   0.05952   0.00000  Uiso   1.00
H494   H     0.02692   0.69597   0.03606   0.00000  Uiso   1.00
C495   C     0.05122   0.95532   0.04551   0.00000  Uiso   1.00
H496   H     0.02719   0.93866   0.00877   0.00000  Uiso   1.00
H497   H     0.08361   0.94356   0.03200   0.00000  Uiso   1.00
H498   H     0.04544   0.93699   0.08179   0.00000  Uiso   1.00
O499   O     0.46010   0.97510   0.21404   0.00000  Uiso   1.00
C500   C     0.45496   0.99701   0.27458   0.00000  Uiso   1.00
H501   H     0.48011   0.98527   0.30156   0.00000  Uiso   1.00
H502   H     0.42536   0.98374   0.29081   0.00000  Uiso   1.00
C503   C     0.45298   0.72234   0.28739   0.00000  Uiso   1.00
H504   H     0.45976   0.73702   0.24873   0.00000  Uiso   1.00
H505   H     0.42032   0.73522   0.29901   0.00000  Uiso   1.00
H506   H     0.47624   0.74096   0.32444   0.00000  Uiso   1.00
I507   I     0.23681   0.97106   0.05513   0.00000  Uiso   1.00
I508   I     0.26886   0.69604   0.27824   0.00000  Uiso   1.00
I509   I     0.17783   0.78732   0.31032   0.00000  Uiso   1.00
I510   I     0.32373   0.87640   0.02110   0.00000  Uiso   1.00
C511   C     0.75063   0.73407   0.15134   0.00000  Uiso   1.00
C512   C     0.75064   0.93272   0.18192   0.00000  Uiso   1.00
C513   C     0.51815   0.74139   0.13511   0.00000  Uiso   1.00
C514   C     0.98101   0.92879   0.20435   0.00000  Uiso   1.00
C515   C     0.74962   0.67825   0.14375   0.00000  Uiso   1.00
C516   C     0.75353   0.98866   0.18967   0.00000  Uiso   1.00
C517   C     0.66478   0.83385   0.16772   0.00000  Uiso   1.00
C518   C     0.83507   0.83339   0.16569   0.00000  Uiso   1.00
C519   C     0.90903   0.88159   0.18756   0.00000  Uiso   1.00
C520   C     0.59011   0.78671   0.15538   0.00000  Uiso   1.00
C521   C     0.88381   0.83578   0.16425   0.00000  Uiso   1.00
C522   C     0.61571   0.83277   0.16829   0.00000  Uiso   1.00
C523   C     0.90514   0.79015   0.14548   0.00000  Uiso   1.00
C524   C     0.59433   0.87918   0.18148   0.00000  Uiso   1.00
C525   C     0.95127   0.78869   0.14874   0.00000  Uiso   1.00
C526   C     0.54797   0.88096   0.18165   0.00000  Uiso   1.00
C527   C     0.97647   0.83529   0.16608   0.00000  Uiso   1.00
C528   C     0.52267   0.83474   0.16588   0.00000  Uiso   1.00
C529   C     0.95542   0.88206   0.18638   0.00000  Uiso   1.00
C530   C     0.54374   0.78773   0.15101   0.00000  Uiso   1.00
C531   C     0.97208   0.74127   0.13593   0.00000  Uiso   1.00
C532   C     0.52705   0.92819   0.19746   0.00000  Uiso   1.00
Cu533  Cu    0.75500   0.83913   0.22813   0.00000  Uiso   1.00
Cu534  Cu    0.74499   0.82754   0.10521   0.00000  Uiso   1.00
N535   N     0.73744   0.81881   0.01284   0.00000  Uiso   1.00
N536   N     0.76255   0.84786   0.32049   0.00000  Uiso   1.00
O537   O     0.75325   0.76204   0.20659   0.00000  Uiso   1.00
O538   O     0.74674   0.90462   0.12674   0.00000  Uiso   1.00
O539   O     0.74480   0.75226   0.10279   0.00000  Uiso   1.00
O540   O     0.75520   0.91441   0.23055   0.00000  Uiso   1.00
O541   O     0.68935   0.83821   0.21857   0.00000  Uiso   1.00
O542   O     0.81064   0.82845   0.11476   0.00000  Uiso   1.00
O543   O     0.68090   0.82843   0.11477   0.00000  Uiso   1.00
O544   O     0.81910   0.83824   0.21857   0.00000  Uiso   1.00
O545   O     0.89077   0.92290   0.22364   0.00000  Uiso   1.00
C546   C     0.85514   0.94250   0.19798   0.00000  Uiso   1.00
H547   H     0.82783   0.93662   0.22338   0.00000  Uiso   1.00
H548   H     0.84721   0.92438   0.15089   0.00000  Uiso   1.00
C549   C     0.86140   0.99991   0.20631   0.00000  Uiso   1.00
H550   H     0.89167   0.67602   0.18899   0.00000  Uiso   1.00
H551   H     0.83517   0.68156   0.18255   0.00000  Uiso   1.00
H552   H     0.86186   0.68630   0.25335   0.00000  Uiso   1.00
O553   O     0.60706   0.74216   0.16429   0.00000  Uiso   1.00
C554   C     0.64404   0.72528   0.13486   0.00000  Uiso   1.00
H555   H     0.67210   0.73985   0.16541   0.00000  Uiso   1.00
H556   H     0.64636   0.73749   0.09317   0.00000  Uiso   1.00
C557   C     0.64322   0.66697   0.12215   0.00000  Uiso   1.00
H558   H     0.61273   0.98484   0.13426   0.00000  Uiso   1.00
H559   H     0.64645   0.98343   0.07503   0.00000  Uiso   1.00
H560   H     0.66909   0.98682   0.14774   0.00000  Uiso   1.00
O561   O     0.87961   0.74601   0.12976   0.00000  Uiso   1.00
C562   C     0.87444   0.73083   0.06829   0.00000  Uiso   1.00
H563   H     0.90493   0.71668   0.04944   0.00000  Uiso   1.00
H564   H     0.86344   0.76234   0.04858   0.00000  Uiso   1.00
C565   C     0.84082   0.68778   0.05286   0.00000  Uiso   1.00
H566   H     0.80926   0.70508   0.05975   0.00000  Uiso   1.00
H567   H     0.84290   0.99904   0.00689   0.00000  Uiso   1.00
H568   H     0.84467   0.99476   0.08197   0.00000  Uiso   1.00
O569   O     0.62013   0.92305   0.19844   0.00000  Uiso   1.00
C570   C     0.62832   0.93372   0.25969   0.00000  Uiso   1.00
H571   H     0.63505   0.89927   0.27658   0.00000  Uiso   1.00
H572   H     0.60021   0.95123   0.28128   0.00000  Uiso   1.00
C573   C     0.66658   0.97090   0.27688   0.00000  Uiso   1.00
H574   H     0.67198   0.99331   0.24432   0.00000  Uiso   1.00
H575   H     0.66258   0.99780   0.31983   0.00000  Uiso   1.00
H576   H     0.69512   0.94835   0.27875   0.00000  Uiso   1.00
O577   O     0.94645   0.69683   0.13354   0.00000  Uiso   1.00
C578   C     0.95867   0.98619   0.09263   0.00000  Uiso   1.00
H579   H     0.98402   0.96756   0.11296   0.00000  Uiso   1.00
H580   H     0.96791   0.99649   0.05353   0.00000  Uiso   1.00
C581   C     0.92288   0.94550   0.07227   0.00000  Uiso   1.00
H582   H     0.90201   0.95385   0.03660   0.00000  Uiso   1.00
H583   H     0.93709   0.90798   0.05413   0.00000  Uiso   1.00
H584   H     0.90407   0.94207   0.10907   0.00000  Uiso   1.00
O585   O     0.55193   0.97217   0.19695   0.00000  Uiso   1.00
C586   C     0.54713   0.67917   0.24647   0.00000  Uiso   1.00
H587   H     0.54189   0.99703   0.28394   0.00000  Uiso   1.00
H588   H     0.52182   0.70331   0.23554   0.00000  Uiso   1.00
C589   C     0.58714   0.71396   0.26506   0.00000  Uiso   1.00
H590   H     0.58016   0.75371   0.26316   0.00000  Uiso   1.00
H591   H     0.59839   0.71590   0.31093   0.00000  Uiso   1.00
H592   H     0.61360   0.69954   0.23755   0.00000  Uiso   1.00
O593   O     0.53855   0.69546   0.12405   0.00000  Uiso   1.00
C594   C     0.54934   0.68078   0.06495   0.00000  Uiso   1.00
H595   H     0.58078   0.69792   0.05952   0.00000  Uiso   1.00
H596   H     0.52692   0.69597   0.03606   0.00000  Uiso   1.00
C597   C     0.55122   0.95532   0.04551   0.00000  Uiso   1.00
H598   H     0.52719   0.93866   0.00877   0.00000  Uiso   1.00
H599   H     0.58361   0.94356   0.03200   0.00000  Uiso   1.00
H600   H     0.54544   0.93699   0.08179   0.00000  Uiso   1.00
O601   O     0.96010   0.97510   0.21404   0.00000  Uiso   1.00
C602   C     0.95496   0.99701   0.27458   0.00000  Uiso   1.00
H603   H     0.98011   0.98527   0.30156   0.00000  Uiso   1.00
H604   H     0.92536   0.98374   0.29081   0.00000  Uiso   1.00
C605   C     0.95298   0.72234   0.28739   0.00000  Uiso   1.00
H606   H     0.95976   0.73702   0.24873   0.00000  Uiso   1.00
H607   H     0.92032   0.73522   0.29901   0.00000  Uiso   1.00
H608   H     0.97624   0.74096   0.32444   0.00000  Uiso   1.00
I609   I     0.73681   0.97106   0.05513   0.00000  Uiso   1.00
I610   I     0.76886   0.69604   0.27824   0.00000  Uiso   1.00
I611   I     0.67783   0.78732   0.31032   0.00000  Uiso   1.00
I612   I     0.82373   0.87640   0.02110   0.00000  Uiso   1.00
C613   C     0.25063   0.06741   0.48468   0.00000  Uiso   1.00
C614   C     0.25064   0.26605   0.51525   0.00000  Uiso   1.00
C615   C     0.01815   0.07472   0.46844   0.00000  Uiso   1.00
C616   C     0.48101   0.26212   0.53769   0.00000  Uiso   1.00
C617   C     0.24962   0.01158   0.47708   0.00000  Uiso   1.00
C618   C     0.25353   0.32199   0.52300   0.00000  Uiso   1.00
C619   C     0.16478   0.16718   0.50106   0.00000  Uiso   1.00
C620   C     0.33507   0.16673   0.49902   0.00000  Uiso   1.00
C621   C     0.40903   0.21492   0.52090   0.00000  Uiso   1.00
C622   C     0.09011   0.12004   0.48871   0.00000  Uiso   1.00
C623   C     0.38381   0.16911   0.49758   0.00000  Uiso   1.00
C624   C     0.11571   0.16610   0.50162   0.00000  Uiso   1.00
C625   C     0.40514   0.12349   0.47881   0.00000  Uiso   1.00
C626   C     0.09433   0.21251   0.51481   0.00000  Uiso   1.00
C627   C     0.45127   0.12202   0.48207   0.00000  Uiso   1.00
C628   C     0.04797   0.21429   0.51499   0.00000  Uiso   1.00
C629   C     0.47647   0.16862   0.49942   0.00000  Uiso   1.00
C630   C     0.02267   0.16808   0.49922   0.00000  Uiso   1.00
C631   C     0.45542   0.21540   0.51971   0.00000  Uiso   1.00
C632   C     0.04374   0.12107   0.48434   0.00000  Uiso   1.00
C633   C     0.47208   0.07461   0.46926   0.00000  Uiso   1.00
C634   C     0.02705   0.26152   0.53079   0.00000  Uiso   1.00
Cu635  Cu    0.25500   0.17246   0.56146   0.00000  Uiso   1.00
Cu636  Cu    0.24499   0.16087   0.43854   0.00000  Uiso   1.00
N637   N     0.23744   0.15214   0.34617   0.00000  Uiso   1.00
N638   N     0.26255   0.18119   0.65383   0.00000  Uiso   1.00
O639   O     0.25325   0.09538   0.53992   0.00000  Uiso   1.00
O640   O     0.24674   0.23796   0.46008   0.00000  Uiso   1.00
O641   O     0.24480   0.08559   0.43612   0.00000  Uiso   1.00
O642   O     0.25520   0.24774   0.56388   0.00000  Uiso   1.00
O643   O     0.18935   0.17155   0.55191   0.00000  Uiso   1.00
O644   O     0.31064   0.16179   0.44809   0.00000  Uiso   1.00
O645   O     0.18090   0.16176   0.44810   0.00000  Uiso   1.00
O646   O     0.31910   0.17157   0.55190   0.00000  Uiso   1.00
O647   O     0.39077   0.25624   0.55697   0.00000  Uiso   1.00
C648   C     0.35514   0.27583   0.53131   0.00000  Uiso   1.00
H649   H     0.32783   0.26996   0.55672   0.00000  Uiso   1.00
H650   H     0.34721   0.25772   0.48422   0.00000  Uiso   1.00
C651   C     0.36140   0.33324   0.53964   0.00000  Uiso   1.00
H652   H     0.39167   0.00935   0.52233   0.00000  Uiso   1.00
H653   H     0.33517   0.01490   0.51588   0.00000  Uiso   1.00
H654   H     0.36186   0.01963   0.58668   0.00000  Uiso   1.00
O655   O     0.10706   0.07549   0.49763   0.00000  Uiso   1.00
C656   C     0.14404   0.05861   0.46819   0.00000  Uiso   1.00
H657   H     0.17210   0.07319   0.49875   0.00000  Uiso   1.00
H658   H     0.14636   0.07083   0.42650   0.00000  Uiso   1.00
C659   C     0.14322   0.00030   0.45548   0.00000  Uiso   1.00
H660   H     0.11273   0.31818   0.46759   0.00000  Uiso   1.00
H661   H     0.14645   0.31676   0.40836   0.00000  Uiso   1.00
H662   H     0.16909   0.32015   0.48107   0.00000  Uiso   1.00
O663   O     0.37961   0.07934   0.46309   0.00000  Uiso   1.00
C664   C     0.37444   0.06416   0.40162   0.00000  Uiso   1.00
H665   H     0.40493   0.05001   0.38278   0.00000  Uiso   1.00
H666   H     0.36344   0.09567   0.38192   0.00000  Uiso   1.00
C667   C     0.34082   0.02112   0.38619   0.00000  Uiso   1.00
H668   H     0.30926   0.03841   0.39309   0.00000  Uiso   1.00
H669   H     0.34290   0.33237   0.34022   0.00000  Uiso   1.00
H670   H     0.34467   0.32809   0.41531   0.00000  Uiso   1.00
O671   O     0.12013   0.25639   0.53177   0.00000  Uiso   1.00
C672   C     0.12832   0.26706   0.59302   0.00000  Uiso   1.00
H673   H     0.13505   0.23261   0.60991   0.00000  Uiso   1.00
H674   H     0.10021   0.28456   0.61462   0.00000  Uiso   1.00
C675   C     0.16658   0.30423   0.61021   0.00000  Uiso   1.00
H676   H     0.17198   0.32664   0.57765   0.00000  Uiso   1.00
H677   H     0.16258   0.33113   0.65316   0.00000  Uiso   1.00
H678   H     0.19512   0.28169   0.61208   0.00000  Uiso   1.00
O679   O     0.44645   0.03016   0.46688   0.00000  Uiso   1.00
C680   C     0.45867   0.31952   0.42596   0.00000  Uiso   1.00
H681   H     0.48402   0.30090   0.44629   0.00000  Uiso   1.00
H682   H     0.46791   0.32982   0.38686   0.00000  Uiso   1.00
C683   C     0.42288   0.27884   0.40560   0.00000  Uiso   1.00
H684   H     0.40201   0.28719   0.36993   0.00000  Uiso   1.00
H685   H     0.43709   0.24132   0.38746   0.00000  Uiso   1.00
H686   H     0.40407   0.27540   0.44240   0.00000  Uiso   1.00
O687   O     0.05193   0.30551   0.53028   0.00000  Uiso   1.00
C688   C     0.04713   0.01250   0.57981   0.00000  Uiso   1.00
H689   H     0.04189   0.33037   0.61727   0.00000  Uiso   1.00
H690   H     0.02182   0.03665   0.56887   0.00000  Uiso   1.00
C691   C     0.08714   0.04730   0.59839   0.00000  Uiso   1.00
H692   H     0.08016   0.08704   0.59650   0.00000  Uiso   1.00
H693   H     0.09839   0.04923   0.64426   0.00000  Uiso   1.00
H694   H     0.11360   0.03287   0.57089   0.00000  Uiso   1.00
O695   O     0.03855   0.02880   0.45738   0.00000  Uiso   1.00
C696   C     0.04934   0.01411   0.39828   0.00000  Uiso   1.00
H697   H     0.08078   0.03125   0.39285   0.00000  Uiso   1.00
H698   H     0.02692   0.02930   0.36939   0.00000  Uiso   1.00
C699   C     0.05122   0.28866   0.37884   0.00000  Uiso   1.00
H700   H     0.02719   0.27200   0.34211   0.00000  Uiso   1.00
H701   H     0.08361   0.27689   0.36533   0.00000  Uiso   1.00
H702   H     0.04544   0.27033   0.41512   0.00000  Uiso   1.00
O703   O     0.46010   0.30844   0.54738   0.00000  Uiso   1.00
C704   C     0.45496   0.33035   0.60792   0.00000  Uiso   1.00
H705   H     0.48011   0.31860   0.63489   0.00000  Uiso   1.00
H706   H     0.42536   0.31707   0.62414   0.00000  Uiso   1.00
C707   C     0.45298   0.05567   0.62072   0.00000  Uiso   1.00
H708   H     0.45976   0.07036   0.58206   0.00000  Uiso   1.00
H709   H     0.42032   0.06855   0.63234   0.00000  Uiso   1.00
H710   H     0.47624   0.07430   0.65777   0.00000  Uiso   1.00
I711   I     0.23681   0.30440   0.38846   0.00000  Uiso   1.00
I712   I     0.26886   0.02937   0.61158   0.00000  Uiso   1.00
I713   I     0.17783   0.12065   0.64365   0.00000  Uiso   1.00
I714   I     0.32373   0.20973   0.35443   0.00000  Uiso   1.00
C715   C     0.75063   0.06741   0.48468   0.00000  Uiso   1.00
C716   C     0.75064   0.26605   0.51525   0.00000  Uiso   1.00
C717   C     0.51815   0.07472   0.46844   0.00000  Uiso   1.00
C718   C     0.98101   0.26212   0.53769   0.00000  Uiso   1.00
C719   C     0.74962   0.01158   0.47708   0.00000  Uiso   1.00
C720   C     0.75353   0.32199   0.52300   0.00000  Uiso   1.00
C721   C     0.66478   0.16718   0.50106   0.00000  Uiso   1.00
C722   C     0.83507   0.16673   0.49902   0.00000  Uiso   1.00
C723   C     0.90903   0.21492   0.52090   0.00000  Uiso   1.00
C724   C     0.59011   0.12004   0.48871   0.00000  Uiso   1.00
C725   C     0.88381   0.16911   0.49758   0.00000  Uiso   1.00
C726   C     0.61571   0.16610   0.50162   0.00000  Uiso   1.00
C727   C     0.90514   0.12349   0.47881   0.00000  Uiso   1.00
C728   C     0.59433   0.21251   0.51481   0.00000  Uiso   1.00
C729   C     0.95127   0.12202   0.48207   0.00000  Uiso   1.00
C730   C     0.54797   0.21429   0.51499   0.00000  Uiso   1.00
C731   C     0.97647   0.16862   0.49942   0.00000  Uiso   1.00
C732   C     0.52267   0.16808   0.49922   0.00000  Uiso   1.00
C733   C     0.95542   0.21540   0.51971   0.00000  Uiso   1.00
C734   C     0.54374   0.12107   0.48434   0.00000  Uiso   1.00
C735   C     0.97208   0.07461   0.46926   0.00000  Uiso   1.00
C736   C     0.52705   0.26152   0.53079   0.00000  Uiso   1.00
Cu737  Cu    0.75500   0.17246   0.56146   0.00000  Uiso   1.00
Cu738  Cu    0.74499   0.16087   0.43854   0.00000  Uiso   1.00
N739   N     0.73744   0.15214   0.34617   0.00000  Uiso   1.00
N740   N     0.76255   0.18119   0.65383   0.00000  Uiso   1.00
O741   O     0.75325   0.09538   0.53992   0.00000  Uiso   1.00
O742   O     0.74674   0.23796   0.46008   0.00000  Uiso   1.00
O743   O     0.74480   0.08559   0.43612   0.00000  Uiso   1.00
O744   O     0.75520   0.24774   0.56388   0.00000  Uiso   1.00
O745   O     0.68935   0.17155   0.55191   0.00000  Uiso   1.00
O746   O     0.81064   0.16179   0.44809   0.00000  Uiso   1.00
O747   O     0.68090   0.16176   0.44810   0.00000  Uiso   1.00
O748   O     0.81910   0.17157   0.55190   0.00000  Uiso   1.00
O749   O     0.89077   0.25624   0.55697   0.00000  Uiso   1.00
C750   C     0.85514   0.27583   0.53131   0.00000  Uiso   1.00
H751   H     0.82783   0.26996   0.55672   0.00000  Uiso   1.00
H752   H     0.84721   0.25772   0.48422   0.00000  Uiso   1.00
C753   C     0.86140   0.33324   0.53964   0.00000  Uiso   1.00
H754   H     0.89167   0.00935   0.52233   0.00000  Uiso   1.00
H755   H     0.83517   0.01490   0.51588   0.00000  Uiso   1.00
H756   H     0.86186   0.01963   0.58668   0.00000  Uiso   1.00
O757   O     0.60706   0.07549   0.49763   0.00000  Uiso   1.00
C758   C     0.64404   0.05861   0.46819   0.00000  Uiso   1.00
H759   H     0.67210   0.07319   0.49875   0.00000  Uiso   1.00
H760   H     0.64636   0.07083   0.42650   0.00000  Uiso   1.00
C761   C     0.64322   0.00030   0.45548   0.00000  Uiso   1.00
H762   H     0.61273   0.31818   0.46759   0.00000  Uiso   1.00
H763   H     0.64645   0.31676   0.40836   0.00000  Uiso   1.00
H764   H     0.66909   0.32015   0.48107   0.00000  Uiso   1.00
O765   O     0.87961   0.07934   0.46309   0.00000  Uiso   1.00
C766   C     0.87444   0.06416   0.40162   0.00000  Uiso   1.00
H767   H     0.90493   0.05001   0.38278   0.00000  Uiso   1.00
H768   H     0.86344   0.09567   0.38192   0.00000  Uiso   1.00
C769   C     0.84082   0.02112   0.38619   0.00000  Uiso   1.00
H770   H     0.80926   0.03841   0.39309   0.00000  Uiso   1.00
H771   H     0.84290   0.33237   0.34022   0.00000  Uiso   1.00
H772   H     0.84467   0.32809   0.41531   0.00000  Uiso   1.00
O773   O     0.62013   0.25639   0.53177   0.00000  Uiso   1.00
C774   C     0.62832   0.26706   0.59302   0.00000  Uiso   1.00
H775   H     0.63505   0.23261   0.60991   0.00000  Uiso   1.00
H776   H     0.60021   0.28456   0.61462   0.00000  Uiso   1.00
C777   C     0.66658   0.30423   0.61021   0.00000  Uiso   1.00
H778   H     0.67198   0.32664   0.57765   0.00000  Uiso   1.00
H779   H     0.66258   0.33113   0.65316   0.00000  Uiso   1.00
H780   H     0.69512   0.28169   0.61208   0.00000  Uiso   1.00
O781   O     0.94645   0.03016   0.46688   0.00000  Uiso   1.00
C782   C     0.95867   0.31952   0.42596   0.00000  Uiso   1.00
H783   H     0.98402   0.30090   0.44629   0.00000  Uiso   1.00
H784   H     0.96791   0.32982   0.38686   0.00000  Uiso   1.00
C785   C     0.92288   0.27884   0.40560   0.00000  Uiso   1.00
H786   H     0.90201   0.28719   0.36993   0.00000  Uiso   1.00
H787   H     0.93709   0.24132   0.38746   0.00000  Uiso   1.00
H788   H     0.90407   0.27540   0.44240   0.00000  Uiso   1.00
O789   O     0.55193   0.30551   0.53028   0.00000  Uiso   1.00
C790   C     0.54713   0.01250   0.57981   0.00000  Uiso   1.00
H791   H     0.54189   0.33037   0.61727   0.00000  Uiso   1.00
H792   H     0.52182   0.03665   0.56887   0.00000  Uiso   1.00
C793   C     0.58714   0.04730   0.59839   0.00000  Uiso   1.00
H794   H     0.58016   0.08704   0.59650   0.00000  Uiso   1.00
H795   H     0.59839   0.04923   0.64426   0.00000  Uiso   1.00
H796   H     0.61360   0.03287   0.57089   0.00000  Uiso   1.00
O797   O     0.53855   0.02880   0.45738   0.00000  Uiso   1.00
C798   C     0.54934   0.01411   0.39828   0.00000  Uiso   1.00
H799   H     0.58078   0.03125   0.39285   0.00000  Uiso   1.00
H800   H     0.52692   0.02930   0.36939   0.00000  Uiso   1.00
C801   C     0.55122   0.28866   0.37884   0.00000  Uiso   1.00
H802   H     0.52719   0.27200   0.34211   0.00000  Uiso   1.00
H803   H     0.58361   0.27689   0.36533   0.00000  Uiso   1.00
H804   H     0.54544   0.27033   0.41512   0.00000  Uiso   1.00
O805   O     0.96010   0.30844   0.54738   0.00000  Uiso   1.00
C806   C     0.95496   0.33035   0.60792   0.00000  Uiso   1.00
H807   H     0.98011   0.31860   0.63489   0.00000  Uiso   1.00
H808   H     0.92536   0.31707   0.62414   0.00000  Uiso   1.00
C809   C     0.95298   0.05567   0.62072   0.00000  Uiso   1.00
H810   H     0.95976   0.07036   0.58206   0.00000  Uiso   1.00
H811   H     0.92032   0.06855   0.63234   0.00000  Uiso   1.00
H812   H     0.97624   0.07430   0.65777   0.00000  Uiso   1.00
I813   I     0.73681   0.30440   0.38846   0.00000  Uiso   1.00
I814   I     0.76886   0.02937   0.61158   0.00000  Uiso   1.00
I815   I     0.67783   0.12065   0.64365   0.00000  Uiso   1.00
I816   I     0.82373   0.20973   0.35443   0.00000  Uiso   1.00
C817   C     0.25063   0.40074   0.48468   0.00000  Uiso   1.00
C818   C     0.25064   0.59938   0.51525   0.00000  Uiso   1.00
C819   C     0.01815   0.40805   0.46844   0.00000  Uiso   1.00
C820   C     0.48101   0.59545   0.53769   0.00000  Uiso   1.00
C821   C     0.24962   0.34491   0.47708   0.00000  Uiso   1.00
C822   C     0.25353   0.65533   0.52300   0.00000  Uiso   1.00
C823   C     0.16478   0.50051   0.50106   0.00000  Uiso   1.00
C824   C     0.33507   0.50006   0.49902   0.00000  Uiso   1.00
C825   C     0.40903   0.54825   0.52090   0.00000  Uiso   1.00
C826   C     0.09011   0.45338   0.48871   0.00000  Uiso   1.00
C827   C     0.38381   0.50244   0.49758   0.00000  Uiso   1.00
C828   C     0.11571   0.49944   0.50162   0.00000  Uiso   1.00
C829   C     0.40514   0.45682   0.47881   0.00000  Uiso   1.00
C830   C     0.09433   0.54584   0.51481   0.00000  Uiso   1.00
C831   C     0.45127   0.45535   0.48207   0.00000  Uiso   1.00
C832   C     0.04797   0.54763   0.51499   0.00000  Uiso   1.00
C833   C     0.47647   0.50195   0.49942   0.00000  Uiso   1.00
C834   C     0.02267   0.50141   0.49922   0.00000  Uiso   1.00
C835   C     0.45542   0.54873   0.51971   0.00000  Uiso   1.00
C836   C     0.04374   0.45440   0.48434   0.00000  Uiso   1.00
C837   C     0.47208   0.40794   0.46926   0.00000  Uiso   1.00
C838   C     0.02705   0.59485   0.53079   0.00000  Uiso   1.00
Cu839  Cu    0.25500   0.50579   0.56146   0.00000  Uiso   1.00
Cu840  Cu    0.24499   0.49421   0.43854   0.00000  Uiso   1.00
N841   N     0.23744   0.48547   0.34617   0.00000  Uiso   1.00
N842   N     0.26255   0.51453   0.65383   0.00000  Uiso   1.00
O843   O     0.25325   0.42871   0.53992   0.00000  Uiso   1.00
O844   O     0.24674   0.57129   0.46008   0.00000  Uiso   1.00
O845   O     0.24480   0.41892   0.43612   0.00000  Uiso   1.00
O846   O     0.25520   0.58108   0.56388   0.00000  Uiso   1.00
O847   O     0.18935   0.50488   0.55191   0.00000  Uiso   1.00
O848   O     0.31064   0.49512   0.44809   0.00000  Uiso   1.00
O849   O     0.18090   0.49510   0.44810   0.00000  Uiso   1.00
O850   O     0.31910   0.50490   0.55190   0.00000  Uiso   1.00
O851   O     0.39077   0.58957   0.55697   0.00000  Uiso   1.00
C852   C     0.35514   0.60916   0.53131   0.00000  Uiso   1.00
H853   H     0.32783   0.60329   0.55672   0.00000  Uiso   1.00
H854   H     0.34721   0.59105   0.48422   0.00000  Uiso   1.00
C855   C     0.36140   0.66658   0.53964   0.00000  Uiso   1.00
H856   H     0.39167   0.34269   0.52233   0.00000  Uiso   1.00
H857   H     0.33517   0.34823   0.51588   0.00000  Uiso   1.00
H858   H     0.36186   0.35296   0.58668   0.00000  Uiso   1.00
O859   O     0.10706   0.40882   0.49763   0.00000  Uiso   1.00
C860   C     0.14404   0.39195   0.46819   0.00000  Uiso   1.00
H861   H     0.17210   0.40652   0.49875   0.00000  Uiso   1.00
H862   H     0.14636   0.40416   0.42650   0.00000  Uiso   1.00
C863   C     0.14322   0.33363   0.45548   0.00000  Uiso   1.00
H864   H     0.11273   0.65151   0.46759   0.00000  Uiso   1.00
H865   H     0.14645   0.65009   0.40836   0.00000  Uiso   1.00
H866   H     0.16909   0.65348   0.48107   0.00000  Uiso   1.00
O867   O     0.37961   0.41268   0.46309   0.00000  Uiso   1.00
C868   C     0.37444   0.39750   0.40162   0.00000  Uiso   1.00
H869   H     0.40493   0.38335   0.38278   0.00000  Uiso   1.00
H870   H     0.36344   0.42901   0.38192   0.00000  Uiso   1.00
C871   C     0.34082   0.35445   0.38619   0.00000  Uiso   1.00
H872   H     0.30926   0.37175   0.39309   0.00000  Uiso   1.00
H873   H     0.34290   0.66570   0.34022   0.00000  Uiso   1.00
H874   H     0.34467   0.66142   0.41531   0.00000  Uiso   1.00
O875   O     0.12013   0.58972   0.53177   0.00000  Uiso   1.00
C876   C     0.12832   0.60039   0.59302   0.00000  Uiso   1.00
H877   H     0.13505   0.56594   0.60991   0.00000  Uiso   1.00
H878   H     0.10021   0.61790   0.61462   0.00000  Uiso   1.00
C879   C     0.16658   0.63757   0.61021   0.00000  Uiso   1.00
H880   H     0.17198   0.65997   0.57765   0.00000  Uiso   1.00
H881   H     0.16258   0.66447   0.65316   0.00000  Uiso   1.00
H882   H     0.19512   0.61502   0.61208   0.00000  Uiso   1.00
O883   O     0.44645   0.36350   0.46688   0.00000  Uiso   1.00
C884   C     0.45867   0.65285   0.42596   0.00000  Uiso   1.00
H885   H     0.48402   0.63423   0.44629   0.00000  Uiso   1.00
H886   H     0.46791   0.66315   0.38686   0.00000  Uiso   1.00
C887   C     0.42288   0.61217   0.40560   0.00000  Uiso   1.00
H888   H     0.40201   0.62052   0.36993   0.00000  Uiso   1.00
H889   H     0.43709   0.57465   0.38746   0.00000  Uiso   1.00
H890   H     0.40407   0.60873   0.44240   0.00000  Uiso   1.00
O891   O     0.05193   0.63884   0.53028   0.00000  Uiso   1.00
C892   C     0.04713   0.34584   0.57981   0.00000  Uiso   1.00
H893   H     0.04189   0.66370   0.61727   0.00000  Uiso   1.00
H894   H     0.02182   0.36998   0.56887   0.00000  Uiso   1.00
C895   C     0.08714   0.38063   0.59839   0.00000  Uiso   1.00
H896   H     0.08016   0.42038   0.59650   0.00000  Uiso   1.00
H897   H     0.09839   0.38256   0.64426   0.00000  Uiso   1.00
H898   H     0.11360   0.36620   0.57089   0.00000  Uiso   1.00
O899   O     0.03855   0.36213   0.45738   0.00000  Uiso   1.00
C900   C     0.04934   0.34744   0.39828   0.00000  Uiso   1.00
H901   H     0.08078   0.36459   0.39285   0.00000  Uiso   1.00
H902   H     0.02692   0.36264   0.36939   0.00000  Uiso   1.00
C903   C     0.05122   0.62199   0.37884   0.00000  Uiso   1.00
H904   H     0.02719   0.60533   0.34211   0.00000  Uiso   1.00
H905   H     0.08361   0.61022   0.36533   0.00000  Uiso   1.00
H906   H     0.04544   0.60366   0.41512   0.00000  Uiso   1.00
O907   O     0.46010   0.64177   0.54738   0.00000  Uiso   1.00
C908   C     0.45496   0.66368   0.60792   0.00000  Uiso   1.00
H909   H     0.48011   0.65193   0.63489   0.00000  Uiso   1.00
H910   H     0.42536   0.65041   0.62414   0.00000  Uiso   1.00
C911   C     0.45298   0.38901   0.62072   0.00000  Uiso   1.00
H912   H     0.45976   0.40369   0.58206   0.00000  Uiso   1.00
H913   H     0.42032   0.40188   0.63234   0.00000  Uiso   1.00
H914   H     0.47624   0.40763   0.65777   0.00000  Uiso   1.00
I915   I     0.23681   0.63773   0.38846   0.00000  Uiso   1.00
I916   I     0.26886   0.36270   0.61158   0.00000  Uiso   1.00
I917   I     0.17783   0.45399   0.64365   0.00000  Uiso   1.00
I918   I     0.32373   0.54307   0.35443   0.00000  Uiso   1.00
C919   C     0.75063   0.40074   0.48468   0.00000  Uiso   1.00
C920   C     0.75064   0.59938   0.51525   0.00000  Uiso   1.00
C921   C     0.51815   0.40805   0.46844   0.00000  Uiso   1.00
C922   C     0.98101   0.59545   0.53769   0.00000  Uiso   1.00
C923   C     0.74962   0.34491   0.47708   0.00000  Uiso   1.00
C924   C     0.75353   0.65533   0.52300   0.00000  Uiso   1.00
C925   C     0.66478   0.50051   0.50106   0.00000  Uiso   1.00
C926   C     0.83507   0.50006   0.49902   0.00000  Uiso   1.00
C927   C     0.90903   0.54825   0.52090   0.00000  Uiso   1.00
C928   C     0.59011   0.45338   0.48871   0.00000  Uiso   1.00
C929   C     0.88381   0.50244   0.49758   0.00000  Uiso   1.00
C930   C     0.61571   0.49944   0.50162   0.00000  Uiso   1.00
C931   C     0.90514   0.45682   0.47881   0.00000  Uiso   1.00
C932   C     0.59433   0.54584   0.51481   0.00000  Uiso   1.00
C933   C     0.95127   0.45535   0.48207   0.00000  Uiso   1.00
C934   C     0.54797   0.54763   0.51499   0.00000  Uiso   1.00
C935   C     0.97647   0.50195   0.49942   0.00000  Uiso   1.00
C936   C     0.52267   0.50141   0.49922   0.00000  Uiso   1.00
C937   C     0.95542   0.54873   0.51971   0.00000  Uiso   1.00
C938   C     0.54374   0.45440   0.48434   0.00000  Uiso   1.00
C939   C     0.97208   0.40794   0.46926   0.00000  Uiso   1.00
C940   C     0.52705   0.59485   0.53079   0.00000  Uiso   1.00
Cu941  Cu    0.75500   0.50579   0.56146   0.00000  Uiso   1.00
Cu942  Cu    0.74499   0.49421   0.43854   0.00000  Uiso   1.00
N943   N     0.73744   0.48547   0.34617   0.00000  Uiso   1.00
N944   N     0.76255   0.51453   0.65383   0.00000  Uiso   1.00
O945   O     0.75325   0.42871   0.53992   0.00000  Uiso   1.00
O946   O     0.74674   0.57129   0.46008   0.00000  Uiso   1.00
O947   O     0.74480   0.41892   0.43612   0.00000  Uiso   1.00
O948   O     0.75520   0.58108   0.56388   0.00000  Uiso   1.00
O949   O     0.68935   0.50488   0.55191   0.00000  Uiso   1.00
O950   O     0.81064   0.49512   0.44809   0.00000  Uiso   1.00
O951   O     0.68090   0.49510   0.44810   0.00000  Uiso   1.00
O952   O     0.81910   0.50490   0.55190   0.00000  Uiso   1.00
O953   O     0.89077   0.58957   0.55697   0.00000  Uiso   1.00
C954   C     0.85514   0.60916   0.53131   0.00000  Uiso   1.00
H955   H     0.82783   0.60329   0.55672   0.00000  Uiso   1.00
H956   H     0.84721   0.59105   0.48422   0.00000  Uiso   1.00
C957   C     0.86140   0.66658   0.53964   0.00000  Uiso   1.00
H958   H     0.89167   0.34269   0.52233   0.00000  Uiso   1.00
H959   H     0.83517   0.34823   0.51588   0.00000  Uiso   1.00
H960   H     0.86186   0.35296   0.58668   0.00000  Uiso   1.00
O961   O     0.60706   0.40882   0.49763   0.00000  Uiso   1.00
C962   C     0.64404   0.39195   0.46819   0.00000  Uiso   1.00
H963   H     0.67210   0.40652   0.49875   0.00000  Uiso   1.00
H964   H     0.64636   0.40416   0.42650   0.00000  Uiso   1.00
C965   C     0.64322   0.33363   0.45548   0.00000  Uiso   1.00
H966   H     0.61273   0.65151   0.46759   0.00000  Uiso   1.00
H967   H     0.64645   0.65009   0.40836   0.00000  Uiso   1.00
H968   H     0.66909   0.65348   0.48107   0.00000  Uiso   1.00
O969   O     0.87961   0.41268   0.46309   0.00000  Uiso   1.00
C970   C     0.87444   0.39750   0.40162   0.00000  Uiso   1.00
H971   H     0.90493   0.38335   0.38278   0.00000  Uiso   1.00
H972   H     0.86344   0.42901   0.38192   0.00000  Uiso   1.00
C973   C     0.84082   0.35445   0.38619   0.00000  Uiso   1.00
H974   H     0.80926   0.37175   0.39309   0.00000  Uiso   1.00
H975   H     0.84290   0.66570   0.34022   0.00000  Uiso   1.00
H976   H     0.84467   0.66142   0.41531   0.00000  Uiso   1.00
O977   O     0.62013   0.58972   0.53177   0.00000  Uiso   1.00
C978   C     0.62832   0.60039   0.59302   0.00000  Uiso   1.00
H979   H     0.63505   0.56594   0.60991   0.00000  Uiso   1.00
H980   H     0.60021   0.61790   0.61462   0.00000  Uiso   1.00
C981   C     0.66658   0.63757   0.61021   0.00000  Uiso   1.00
H982   H     0.67198   0.65997   0.57765   0.00000  Uiso   1.00
H983   H     0.66258   0.66447   0.65316   0.00000  Uiso   1.00
H984   H     0.69512   0.61502   0.61208   0.00000  Uiso   1.00
O985   O     0.94645   0.36350   0.46688   0.00000  Uiso   1.00
C986   C     0.95867   0.65285   0.42596   0.00000  Uiso   1.00
H987   H     0.98402   0.63423   0.44629   0.00000  Uiso   1.00
H988   H     0.96791   0.66315   0.38686   0.00000  Uiso   1.00
C989   C     0.92288   0.61217   0.40560   0.00000  Uiso   1.00
H990   H     0.90201   0.62052   0.36993   0.00000  Uiso   1.00
H991   H     0.93709   0.57465   0.38746   0.00000  Uiso   1.00
H992   H     0.90407   0.60873   0.44240   0.00000  Uiso   1.00
O993   O     0.55193   0.63884   0.53028   0.00000  Uiso   1.00
C994   C     0.54713   0.34584   0.57981   0.00000  Uiso   1.00
H995   H     0.54189   0.66370   0.61727   0.00000  Uiso   1.00
H996   H     0.52182   0.36998   0.56887   0.00000  Uiso   1.00
C997   C     0.58714   0.38063   0.59839   0.00000  Uiso   1.00
H998   H     0.58016   0.42038   0.59650   0.00000  Uiso   1.00
H999   H     0.59839   0.38256   0.64426   0.00000  Uiso   1.00
H1000  H     0.61360   0.36620   0.57089   0.00000  Uiso   1.00
O1001  O     0.53855   0.36213   0.45738   0.00000  Uiso   1.00
C1002  C     0.54934   0.34744   0.39828   0.00000  Uiso   1.00
H1003  H     0.58078   0.36459   0.39285   0.00000  Uiso   1.00
H1004  H     0.52692   0.36264   0.36939   0.00000  Uiso   1.00
C1005  C     0.55122   0.62199   0.37884   0.00000  Uiso   1.00
H1006  H     0.52719   0.60533   0.34211   0.00000  Uiso   1.00
H1007  H     0.58361   0.61022   0.36533   0.00000  Uiso   1.00
H1008  H     0.54544   0.60366   0.41512   0.00000  Uiso   1.00
O1009  O     0.96010   0.64177   0.54738   0.00000  Uiso   1.00
C1010  C     0.95496   0.66368   0.60792   0.00000  Uiso   1.00
H1011  H     0.98011   0.65193   0.63489   0.00000  Uiso   1.00
H1012  H     0.92536   0.65041   0.62414   0.00000  Uiso   1.00
C1013  C     0.95298   0.38901   0.62072   0.00000  Uiso   1.00
H1014  H     0.95976   0.40369   0.58206   0.00000  Uiso   1.00
H1015  H     0.92032   0.40188   0.63234   0.00000  Uiso   1.00
H1016  H     0.97624   0.40763   0.65777   0.00000  Uiso   1.00
I1017  I     0.73681   0.63773   0.38846   0.00000  Uiso   1.00
I1018  I     0.76886   0.36270   0.61158   0.00000  Uiso   1.00
I1019  I     0.67783   0.45399   0.64365   0.00000  Uiso   1.00
I1020  I     0.82373   0.54307   0.35443   0.00000  Uiso   1.00
C1021  C     0.25063   0.73407   0.48468   0.00000  Uiso   1.00
C1022  C     0.25064   0.93272   0.51525   0.00000  Uiso   1.00
C1023  C     0.01815   0.74139   0.46844   0.00000  Uiso   1.00
C1024  C     0.48101   0.92879   0.53769   0.00000  Uiso   1.00
C1025  C     0.24962   0.67825   0.47708   0.00000  Uiso   1.00
C1026  C     0.25353   0.98866   0.52300   0.00000  Uiso   1.00
C1027  C     0.16478   0.83385   0.50106   0.00000  Uiso   1.00
C1028  C     0.33507   0.83339   0.49902   0.00000  Uiso   1.00
C1029  C     0.40903   0.88159   0.52090   0.00000  Uiso   1.00
C1030  C     0.09011   0.78671   0.48871   0.00000  Uiso   1.00
C1031  C     0.38381   0.83578   0.49758   0.00000  Uiso   1.00
C1032  C     0.11571   0.83277   0.50162   0.00000  Uiso   1.00
C1033  C     0.40514   0.79015   0.47881   0.00000  Uiso   1.00
C1034  C     0.09433   0.87918   0.51481   0.00000  Uiso   1.00
C1035  C     0.45127   0.78869   0.48207   0.00000  Uiso   1.00
C1036  C     0.04797   0.88096   0.51499   0.00000  Uiso   1.00
C1037  C     0.47647   0.83529   0.49942   0.00000  Uiso   1.00
C1038  C     0.02267   0.83474   0.49922   0.00000  Uiso   1.00
C1039  C     0.45542   0.88206   0.51971   0.00000  Uiso   1.00
C1040  C     0.04374   0.78773   0.48434   0.00000  Uiso   1.00
C1041  C     0.47208   0.74127   0.46926   0.00000  Uiso   1.00
C1042  C     0.02705   0.92819   0.53079   0.00000  Uiso   1.00
Cu1043 Cu    0.25500   0.83913   0.56146   0.00000  Uiso   1.00
Cu1044 Cu    0.24499   0.82754   0.43854   0.00000  Uiso   1.00
N1045  N     0.23744   0.81881   0.34617   0.00000  Uiso   1.00
N1046  N     0.26255   0.84786   0.65383   0.00000  Uiso   1.00
O1047  O     0.25325   0.76204   0.53992   0.00000  Uiso   1.00
O1048  O     0.24674   0.90462   0.46008   0.00000  Uiso   1.00
O1049  O     0.24480   0.75226   0.43612   0.00000  Uiso   1.00
O1050  O     0.25520   0.91441   0.56388   0.00000  Uiso   1.00
O1051  O     0.18935   0.83821   0.55191   0.00000  Uiso   1.00
O1052  O     0.31064   0.82845   0.44809   0.00000  Uiso   1.00
O1053  O     0.18090   0.82843   0.44810   0.00000  Uiso   1.00
O1054  O     0.31910   0.83824   0.55190   0.00000  Uiso   1.00
O1055  O     0.39077   0.92290   0.55697   0.00000  Uiso   1.00
C1056  C     0.35514   0.94250   0.53131   0.00000  Uiso   1.00
H1057  H     0.32783   0.93662   0.55672   0.00000  Uiso   1.00
H1058  H     0.34721   0.92438   0.48422   0.00000  Uiso   1.00
C1059  C     0.36140   0.99991   0.53964   0.00000  Uiso   1.00
H1060  H     0.39167   0.67602   0.52233   0.00000  Uiso   1.00
H1061  H     0.33517   0.68156   0.51588   0.00000  Uiso   1.00
H1062  H     0.36186   0.68630   0.58668   0.00000  Uiso   1.00
O1063  O     0.10706   0.74216   0.49763   0.00000  Uiso   1.00
C1064  C     0.14404   0.72528   0.46819   0.00000  Uiso   1.00
H1065  H     0.17210   0.73985   0.49875   0.00000  Uiso   1.00
H1066  H     0.14636   0.73749   0.42650   0.00000  Uiso   1.00
C1067  C     0.14322   0.66697   0.45548   0.00000  Uiso   1.00
H1068  H     0.11273   0.98484   0.46759   0.00000  Uiso   1.00
H1069  H     0.14645   0.98343   0.40836   0.00000  Uiso   1.00
H1070  H     0.16909   0.98682   0.48107   0.00000  Uiso   1.00
O1071  O     0.37961   0.74601   0.46309   0.00000  Uiso   1.00
C1072  C     0.37444   0.73083   0.40162   0.00000  Uiso   1.00
H1073  H     0.40493   0.71668   0.38278   0.00000  Uiso   1.00
H1074  H     0.36344   0.76234   0.38192   0.00000  Uiso   1.00
C1075  C     0.34082   0.68778   0.38619   0.00000  Uiso   1.00
H1076  H     0.30926   0.70508   0.39309   0.00000  Uiso   1.00
H1077  H     0.34290   0.99904   0.34022   0.00000  Uiso   1.00
H1078  H     0.34467   0.99476   0.41531   0.00000  Uiso   1.00
O1079  O     0.12013   0.92305   0.53177   0.00000  Uiso   1.00
C1080  C     0.12832   0.93372   0.59302   0.00000  Uiso   1.00
H1081  H     0.13505   0.89927   0.60991   0.00000  Uiso   1.00
H1082  H     0.10021   0.95123   0.61462   0.00000  Uiso   1.00
C1083  C     0.16658   0.97090   0.61021   0.00000  Uiso   1.00
H1084  H     0.17198   0.99331   0.57765   0.00000  Uiso   1.00
H1085  H     0.16258   0.99780   0.65316   0.00000  Uiso   1.00
H1086  H     0.19512   0.94835   0.61208   0.00000  Uiso   1.00
O1087  O     0.44645   0.69683   0.46688   0.00000  Uiso   1.00
C1088  C     0.45867   0.98619   0.42596   0.00000  Uiso   1.00
H1089  H     0.48402   0.96756   0.44629   0.00000  Uiso   1.00
H1090  H     0.46791   0.99649   0.38686   0.00000  Uiso   1.00
C1091  C     0.42288   0.94550   0.40560   0.00000  Uiso   1.00
H1092  H     0.40201   0.95385   0.36993   0.00000  Uiso   1.00
H1093  H     0.43709   0.90798   0.38746   0.00000  Uiso   1.00
H1094  H     0.40407   0.94207   0.44240   0.00000  Uiso   1.00
O1095  O     0.05193   0.97217   0.53028   0.00000  Uiso   1.00
C1096  C     0.04713   0.67917   0.57981   0.00000  Uiso   1.00
H1097  H     0.04189   0.99703   0.61727   0.00000  Uiso   1.00
H1098  H     0.02182   0.70331   0.56887   0.00000  Uiso   1.00
C1099  C     0.08714   0.71396   0.59839   0.00000  Uiso   1.00
H1100  H     0.08016   0.75371   0.59650   0.00000  Uiso   1.00
H1101  H     0.09839   0.71590   0.64426   0.00000  Uiso   1.00
H1102  H     0.11360   0.69954   0.57089   0.00000  Uiso   1.00
O1103  O     0.03855   0.69546   0.45738   0.00000  Uiso   1.00
C1104  C     0.04934   0.68078   0.39828   0.00000  Uiso   1.00
H1105  H     0.08078   0.69792   0.39285   0.00000  Uiso   1.00
H1106  H     0.02692   0.69597   0.36939   0.00000  Uiso   1.00
C1107  C     0.05122   0.95532   0.37884   0.00000  Uiso   1.00
H1108  H     0.02719   0.93866   0.34211   0.00000  Uiso   1.00
H1109  H     0.08361   0.94356   0.36533   0.00000  Uiso   1.00
H1110  H     0.04544   0.93699   0.41512   0.00000  Uiso   1.00
O1111  O     0.46010   0.97510   0.54738   0.00000  Uiso   1.00
C1112  C     0.45496   0.99701   0.60792   0.00000  Uiso   1.00
H1113  H     0.48011   0.98527   0.63489   0.00000  Uiso   1.00
H1114  H     0.42536   0.98374   0.62414   0.00000  Uiso   1.00
C1115  C     0.45298   0.72234   0.62072   0.00000  Uiso   1.00
H1116  H     0.45976   0.73702   0.58206   0.00000  Uiso   1.00
H1117  H     0.42032   0.73522   0.63234   0.00000  Uiso   1.00
H1118  H     0.47624   0.74096   0.65777   0.00000  Uiso   1.00
I1119  I     0.23681   0.97106   0.38846   0.00000  Uiso   1.00
I1120  I     0.26886   0.69604   0.61158   0.00000  Uiso   1.00
I1121  I     0.17783   0.78732   0.64365   0.00000  Uiso   1.00
I1122  I     0.32373   0.87640   0.35443   0.00000  Uiso   1.00
C1123  C     0.75063   0.73407   0.48468   0.00000  Uiso   1.00
C1124  C     0.75064   0.93272   0.51525   0.00000  Uiso   1.00
C1125  C     0.51815   0.74139   0.46844   0.00000  Uiso   1.00
C1126  C     0.98101   0.92879   0.53769   0.00000  Uiso   1.00
C1127  C     0.74962   0.67825   0.47708   0.00000  Uiso   1.00
C1128  C     0.75353   0.98866   0.52300   0.00000  Uiso   1.00
C1129  C     0.66478   0.83385   0.50106   0.00000  Uiso   1.00
C1130  C     0.83507   0.83339   0.49902   0.00000  Uiso   1.00
C1131  C     0.90903   0.88159   0.52090   0.00000  Uiso   1.00
C1132  C     0.59011   0.78671   0.48871   0.00000  Uiso   1.00
C1133  C     0.88381   0.83578   0.49758   0.00000  Uiso   1.00
C1134  C     0.61571   0.83277   0.50162   0.00000  Uiso   1.00
C1135  C     0.90514   0.79015   0.47881   0.00000  Uiso   1.00
C1136  C     0.59433   0.87918   0.51481   0.00000  Uiso   1.00
C1137  C     0.95127   0.78869   0.48207   0.00000  Uiso   1.00
C1138  C     0.54797   0.88096   0.51499   0.00000  Uiso   1.00
C1139  C     0.97647   0.83529   0.49942   0.00000  Uiso   1.00
C1140  C     0.52267   0.83474   0.49922   0.00000  Uiso   1.00
C1141  C     0.95542   0.88206   0.51971   0.00000  Uiso   1.00
C1142  C     0.54374   0.78773   0.48434   0.00000  Uiso   1.00
C1143  C     0.97208   0.74127   0.46926   0.00000  Uiso   1.00
C1144  C     0.52705   0.92819   0.53079   0.00000  Uiso   1.00
Cu1145 Cu    0.75500   0.83913   0.56146   0.00000  Uiso   1.00
Cu1146 Cu    0.74499   0.82754   0.43854   0.00000  Uiso   1.00
N1147  N     0.73744   0.81881   0.34617   0.00000  Uiso   1.00
N1148  N     0.76255   0.84786   0.65383   0.00000  Uiso   1.00
O1149  O     0.75325   0.76204   0.53992   0.00000  Uiso   1.00
O1150  O     0.74674   0.90462   0.46008   0.00000  Uiso   1.00
O1151  O     0.74480   0.75226   0.43612   0.00000  Uiso   1.00
O1152  O     0.75520   0.91441   0.56388   0.00000  Uiso   1.00
O1153  O     0.68935   0.83821   0.55191   0.00000  Uiso   1.00
O1154  O     0.81064   0.82845   0.44809   0.00000  Uiso   1.00
O1155  O     0.68090   0.82843   0.44810   0.00000  Uiso   1.00
O1156  O     0.81910   0.83824   0.55190   0.00000  Uiso   1.00
O1157  O     0.89077   0.92290   0.55697   0.00000  Uiso   1.00
C1158  C     0.85514   0.94250   0.53131   0.00000  Uiso   1.00
H1159  H     0.82783   0.93662   0.55672   0.00000  Uiso   1.00
H1160  H     0.84721   0.92438   0.48422   0.00000  Uiso   1.00
C1161  C     0.86140   0.99991   0.53964   0.00000  Uiso   1.00
H1162  H     0.89167   0.67602   0.52233   0.00000  Uiso   1.00
H1163  H     0.83517   0.68156   0.51588   0.00000  Uiso   1.00
H1164  H     0.86186   0.68630   0.58668   0.00000  Uiso   1.00
O1165  O     0.60706   0.74216   0.49763   0.00000  Uiso   1.00
C1166  C     0.64404   0.72528   0.46819   0.00000  Uiso   1.00
H1167  H     0.67210   0.73985   0.49875   0.00000  Uiso   1.00
H1168  H     0.64636   0.73749   0.42650   0.00000  Uiso   1.00
C1169  C     0.64322   0.66697   0.45548   0.00000  Uiso   1.00
H1170  H     0.61273   0.98484   0.46759   0.00000  Uiso   1.00
H1171  H     0.64645   0.98343   0.40836   0.00000  Uiso   1.00
H1172  H     0.66909   0.98682   0.48107   0.00000  Uiso   1.00
O1173  O     0.87961   0.74601   0.46309   0.00000  Uiso   1.00
C1174  C     0.87444   0.73083   0.40162   0.00000  Uiso   1.00
H1175  H     0.90493   0.71668   0.38278   0.00000  Uiso   1.00
H1176  H     0.86344   0.76234   0.38192   0.00000  Uiso   1.00
C1177  C     0.84082   0.68778   0.38619   0.00000  Uiso   1.00
H1178  H     0.80926   0.70508   0.39309   0.00000  Uiso   1.00
H1179  H     0.84290   0.99904   0.34022   0.00000  Uiso   1.00
H1180  H     0.84467   0.99476   0.41531   0.00000  Uiso   1.00
O1181  O     0.62013   0.92305   0.53177   0.00000  Uiso   1.00
C1182  C     0.62832   0.93372   0.59302   0.00000  Uiso   1.00
H1183  H     0.63505   0.89927   0.60991   0.00000  Uiso   1.00
H1184  H     0.60021   0.95123   0.61462   0.00000  Uiso   1.00
C1185  C     0.66658   0.97090   0.61021   0.00000  Uiso   1.00
H1186  H     0.67198   0.99331   0.57765   0.00000  Uiso   1.00
H1187  H     0.66258   0.99780   0.65316   0.00000  Uiso   1.00
H1188  H     0.69512   0.94835   0.61208   0.00000  Uiso   1.00
O1189  O     0.94645   0.69683   0.46688   0.00000  Uiso   1.00
C1190  C     0.95867   0.98619   0.42596   0.00000  Uiso   1.00
H1191  H     0.98402   0.96756   0.44629   0.00000  Uiso   1.00
H1192  H     0.96791   0.99649   0.38686   0.00000  Uiso   1.00
C1193  C     0.92288   0.94550   0.40560   0.00000  Uiso   1.00
H1194  H     0.90201   0.95385   0.36993   0.00000  Uiso   1.00
H1195  H     0.93709   0.90798   0.38746   0.00000  Uiso   1.00
H1196  H     0.90407   0.94207   0.44240   0.00000  Uiso   1.00
O1197  O     0.55193   0.97217   0.53028   0.00000  Uiso   1.00
C1198  C     0.54713   0.67917   0.57981   0.00000  Uiso   1.00
H1199  H     0.54189   0.99703   0.61727   0.00000  Uiso   1.00
H1200  H     0.52182   0.70331   0.56887   0.00000  Uiso   1.00
C1201  C     0.58714   0.71396   0.59839   0.00000  Uiso   1.00
H1202  H     0.58016   0.75371   0.59650   0.00000  Uiso   1.00
H1203  H     0.59839   0.71590   0.64426   0.00000  Uiso   1.00
H1204  H     0.61360   0.69954   0.57089   0.00000  Uiso   1.00
O1205  O     0.53855   0.69546   0.45738   0.00000  Uiso   1.00
C1206  C     0.54934   0.68078   0.39828   0.00000  Uiso   1.00
H1207  H     0.58078   0.69792   0.39285   0.00000  Uiso   1.00
H1208  H     0.52692   0.69597   0.36939   0.00000  Uiso   1.00
C1209  C     0.55122   0.95532   0.37884   0.00000  Uiso   1.00
H1210  H     0.52719   0.93866   0.34211   0.00000  Uiso   1.00
H1211  H     0.58361   0.94356   0.36533   0.00000  Uiso   1.00
H1212  H     0.54544   0.93699   0.41512   0.00000  Uiso   1.00
O1213  O     0.96010   0.97510   0.54738   0.00000  Uiso   1.00
C1214  C     0.95496   0.99701   0.60792   0.00000  Uiso   1.00
H1215  H     0.98011   0.98527   0.63489   0.00000  Uiso   1.00
H1216  H     0.92536   0.98374   0.62414   0.00000  Uiso   1.00
C1217  C     0.95298   0.72234   0.62072   0.00000  Uiso   1.00
H1218  H     0.95976   0.73702   0.58206   0.00000  Uiso   1.00
H1219  H     0.92032   0.73522   0.63234   0.00000  Uiso   1.00
H1220  H     0.97624   0.74096   0.65777   0.00000  Uiso   1.00
I1221  I     0.73681   0.97106   0.38846   0.00000  Uiso   1.00
I1222  I     0.76886   0.69604   0.61158   0.00000  Uiso   1.00
I1223  I     0.67783   0.78732   0.64365   0.00000  Uiso   1.00
I1224  I     0.82373   0.87640   0.35443   0.00000  Uiso   1.00
C1225  C     0.25063   0.06741   0.81801   0.00000  Uiso   1.00
C1226  C     0.25064   0.26605   0.84859   0.00000  Uiso   1.00
C1227  C     0.01815   0.07472   0.80178   0.00000  Uiso   1.00
C1228  C     0.48101   0.26212   0.87102   0.00000  Uiso   1.00
C1229  C     0.24962   0.01158   0.81041   0.00000  Uiso   1.00
C1230  C     0.25353   0.32199   0.85633   0.00000  Uiso   1.00
C1231  C     0.16478   0.16718   0.83439   0.00000  Uiso   1.00
C1232  C     0.33507   0.16673   0.83235   0.00000  Uiso   1.00
C1233  C     0.40903   0.21492   0.85423   0.00000  Uiso   1.00
C1234  C     0.09011   0.12004   0.82204   0.00000  Uiso   1.00
C1235  C     0.38381   0.16911   0.83092   0.00000  Uiso   1.00
C1236  C     0.11571   0.16610   0.83496   0.00000  Uiso   1.00
C1237  C     0.40514   0.12349   0.81215   0.00000  Uiso   1.00
C1238  C     0.09433   0.21251   0.84814   0.00000  Uiso   1.00
C1239  C     0.45127   0.12202   0.81540   0.00000  Uiso   1.00
C1240  C     0.04797   0.21429   0.84832   0.00000  Uiso   1.00
C1241  C     0.47647   0.16862   0.83275   0.00000  Uiso   1.00
C1242  C     0.02267   0.16808   0.83255   0.00000  Uiso   1.00
C1243  C     0.45542   0.21540   0.85304   0.00000  Uiso   1.00
C1244  C     0.04374   0.12107   0.81767   0.00000  Uiso   1.00
C1245  C     0.47208   0.07461   0.80259   0.00000  Uiso   1.00
C1246  C     0.02705   0.26152   0.86413   0.00000  Uiso   1.00
Cu1247 Cu    0.25500   0.17246   0.89479   0.00000  Uiso   1.00
Cu1248 Cu    0.24499   0.16087   0.77187   0.00000  Uiso   1.00
N1249  N     0.23744   0.15214   0.67951   0.00000  Uiso   1.00
N1250  N     0.26255   0.18119   0.98716   0.00000  Uiso   1.00
O1251  O     0.25325   0.09538   0.87326   0.00000  Uiso   1.00
O1252  O     0.24674   0.23796   0.79341   0.00000  Uiso   1.00
O1253  O     0.24480   0.08559   0.76945   0.00000  Uiso   1.00
O1254  O     0.25520   0.24774   0.89721   0.00000  Uiso   1.00
O1255  O     0.18935   0.17155   0.88524   0.00000  Uiso   1.00
O1256  O     0.31064   0.16179   0.78143   0.00000  Uiso   1.00
O1257  O     0.18090   0.16176   0.78143   0.00000  Uiso   1.00
O1258  O     0.31910   0.17157   0.88523   0.00000  Uiso   1.00
O1259  O     0.39077   0.25624   0.89031   0.00000  Uiso   1.00
C1260  C     0.35514   0.27583   0.86464   0.00000  Uiso   1.00
H1261  H     0.32783   0.26996   0.89005   0.00000  Uiso   1.00
H1262  H     0.34721   0.25772   0.81756   0.00000  Uiso   1.00
C1263  C     0.36140   0.33324   0.87298   0.00000  Uiso   1.00
H1264  H     0.39167   0.00935   0.85566   0.00000  Uiso   1.00
H1265  H     0.33517   0.01490   0.84922   0.00000  Uiso   1.00
H1266  H     0.36186   0.01963   0.92001   0.00000  Uiso   1.00
O1267  O     0.10706   0.07549   0.83096   0.00000  Uiso   1.00
C1268  C     0.14404   0.05861   0.80152   0.00000  Uiso   1.00
H1269  H     0.17210   0.07319   0.83208   0.00000  Uiso   1.00
H1270  H     0.14636   0.07083   0.75983   0.00000  Uiso   1.00
C1271  C     0.14322   0.00030   0.78882   0.00000  Uiso   1.00
H1272  H     0.11273   0.31818   0.80093   0.00000  Uiso   1.00
H1273  H     0.14645   0.31676   0.74169   0.00000  Uiso   1.00
H1274  H     0.16909   0.32015   0.81440   0.00000  Uiso   1.00
O1275  O     0.37961   0.07934   0.79642   0.00000  Uiso   1.00
C1276  C     0.37444   0.06416   0.73495   0.00000  Uiso   1.00
H1277  H     0.40493   0.05001   0.71611   0.00000  Uiso   1.00
H1278  H     0.36344   0.09567   0.71525   0.00000  Uiso   1.00
C1279  C     0.34082   0.02112   0.71952   0.00000  Uiso   1.00
H1280  H     0.30926   0.03841   0.72642   0.00000  Uiso   1.00
H1281  H     0.34290   0.33237   0.67356   0.00000  Uiso   1.00
H1282  H     0.34467   0.32809   0.74864   0.00000  Uiso   1.00
O1283  O     0.12013   0.25639   0.86511   0.00000  Uiso   1.00
C1284  C     0.12832   0.26706   0.92636   0.00000  Uiso   1.00
H1285  H     0.13505   0.23261   0.94325   0.00000  Uiso   1.00
H1286  H     0.10021   0.28456   0.94795   0.00000  Uiso   1.00
C1287  C     0.16658   0.30423   0.94354   0.00000  Uiso   1.00
H1288  H     0.17198   0.32664   0.91098   0.00000  Uiso   1.00
H1289  H     0.16258   0.33113   0.98650   0.00000  Uiso   1.00
H1290  H     0.19512   0.28169   0.94542   0.00000  Uiso   1.00
O1291  O     0.44645   0.03016   0.80021   0.00000  Uiso   1.00
C1292  C     0.45867   0.31952   0.75930   0.00000  Uiso   1.00
H1293  H     0.48402   0.30090   0.77963   0.00000  Uiso   1.00
H1294  H     0.46791   0.32982   0.72020   0.00000  Uiso   1.00
C1295  C     0.42288   0.27884   0.73893   0.00000  Uiso   1.00
H1296  H     0.40201   0.28719   0.70326   0.00000  Uiso   1.00
H1297  H     0.43709   0.24132   0.72080   0.00000  Uiso   1.00
H1298  H     0.40407   0.27540   0.77573   0.00000  Uiso   1.00
O1299  O     0.05193   0.30551   0.86362   0.00000  Uiso   1.00
C1300  C     0.04713   0.01250   0.91314   0.00000  Uiso   1.00
H1301  H     0.04189   0.33037   0.95060   0.00000  Uiso   1.00
H1302  H     0.02182   0.03665   0.90220   0.00000  Uiso   1.00
C1303  C     0.08714   0.04730   0.93173   0.00000  Uiso   1.00
H1304  H     0.08016   0.08704   0.92983   0.00000  Uiso   1.00
H1305  H     0.09839   0.04923   0.97759   0.00000  Uiso   1.00
H1306  H     0.11360   0.03287   0.90422   0.00000  Uiso   1.00
O1307  O     0.03855   0.02880   0.79071   0.00000  Uiso   1.00
C1308  C     0.04934   0.01411   0.73162   0.00000  Uiso   1.00
H1309  H     0.08078   0.03125   0.72618   0.00000  Uiso   1.00
H1310  H     0.02692   0.02930   0.70272   0.00000  Uiso   1.00
C1311  C     0.05122   0.28866   0.71217   0.00000  Uiso   1.00
H1312  H     0.02719   0.27200   0.67544   0.00000  Uiso   1.00
H1313  H     0.08361   0.27689   0.69867   0.00000  Uiso   1.00
H1314  H     0.04544   0.27033   0.74846   0.00000  Uiso   1.00
O1315  O     0.46010   0.30844   0.88071   0.00000  Uiso   1.00
C1316  C     0.45496   0.33035   0.94125   0.00000  Uiso   1.00
H1317  H     0.48011   0.31860   0.96822   0.00000  Uiso   1.00
H1318  H     0.42536   0.31707   0.95747   0.00000  Uiso   1.00
C1319  C     0.45298   0.05567   0.95406   0.00000  Uiso   1.00
H1320  H     0.45976   0.07036   0.91539   0.00000  Uiso   1.00
H1321  H     0.42032   0.06855   0.96567   0.00000  Uiso   1.00
H1322  H     0.47624   0.07430   0.99110   0.00000  Uiso   1.00
I1323  I     0.23681   0.30440   0.72180   0.00000  Uiso   1.00
I1324  I     0.26886   0.02937   0.94491   0.00000  Uiso   1.00
I1325  I     0.17783   0.12065   0.97698   0.00000  Uiso   1.00
I1326  I     0.32373   0.20973   0.68777   0.00000  Uiso   1.00
C1327  C     0.75063   0.06741   0.81801   0.00000  Uiso   1.00
C1328  C     0.75064   0.26605   0.84859   0.00000  Uiso   1.00
C1329  C     0.51815   0.07472   0.80178   0.00000  Uiso   1.00
C1330  C     0.98101   0.26212   0.87102   0.00000  Uiso   1.00
C1331  C     0.74962   0.01158   0.81041   0.00000  Uiso   1.00
C1332  C     0.75353   0.32199   0.85633   0.00000  Uiso   1.00
C1333  C     0.66478   0.16718   0.83439   0.00000  Uiso   1.00
C1334  C     0.83507   0.16673   0.83235   0.00000  Uiso   1.00
C1335  C     0.90903   0.21492   0.85423   0.00000  Uiso   1.00
C1336  C     0.59011   0.12004   0.82204   0.00000  Uiso   1.00
C1337  C     0.88381   0.16911   0.83092   0.00000  Uiso   1.00
C1338  C     0.61571   0.16610   0.83496   0.00000  Uiso   1.00
C1339  C     0.90514   0.12349   0.81215   0.00000  Uiso   1.00
C1340  C     0.59433   0.21251   0.84814   0.00000  Uiso   1.00
C1341  C     0.95127   0.12202   0.81540   0.00000  Uiso   1.00
C1342  C     0.54797   0.21429   0.84832   0.00000  Uiso   1.00
C1343  C     0.97647   0.16862   0.83275   0.00000  Uiso   1.00
C1344  C     0.52267   0.16808   0.83255   0.00000  Uiso   1.00
C1345  C     0.95542   0.21540   0.85304   0.00000  Uiso   1.00
C1346  C     0.54374   0.12107   0.81767   0.00000  Uiso   1.00
C1347  C     0.97208   0.07461   0.80259   0.00000  Uiso   1.00
C1348  C     0.52705   0.26152   0.86413   0.00000  Uiso   1.00
Cu1349 Cu    0.75500   0.17246   0.89479   0.00000  Uiso   1.00
Cu1350 Cu    0.74499   0.16087   0.77187   0.00000  Uiso   1.00
N1351  N     0.73744   0.15214   0.67951   0.00000  Uiso   1.00
N1352  N     0.76255   0.18119   0.98716   0.00000  Uiso   1.00
O1353  O     0.75325   0.09538   0.87326   0.00000  Uiso   1.00
O1354  O     0.74674   0.23796   0.79341   0.00000  Uiso   1.00
O1355  O     0.74480   0.08559   0.76945   0.00000  Uiso   1.00
O1356  O     0.75520   0.24774   0.89721   0.00000  Uiso   1.00
O1357  O     0.68935   0.17155   0.88524   0.00000  Uiso   1.00
O1358  O     0.81064   0.16179   0.78143   0.00000  Uiso   1.00
O1359  O     0.68090   0.16176   0.78143   0.00000  Uiso   1.00
O1360  O     0.81910   0.17157   0.88523   0.00000  Uiso   1.00
O1361  O     0.89077   0.25624   0.89031   0.00000  Uiso   1.00
C1362  C     0.85514   0.27583   0.86464   0.00000  Uiso   1.00
H1363  H     0.82783   0.26996   0.89005   0.00000  Uiso   1.00
H1364  H     0.84721   0.25772   0.81756   0.00000  Uiso   1.00
C1365  C     0.86140   0.33324   0.87298   0.00000  Uiso   1.00
H1366  H     0.89167   0.00935   0.85566   0.00000  Uiso   1.00
H1367  H     0.83517   0.01490   0.84922   0.00000  Uiso   1.00
H1368  H     0.86186   0.01963   0.92001   0.00000  Uiso   1.00
O1369  O     0.60706   0.07549   0.83096   0.00000  Uiso   1.00
C1370  C     0.64404   0.05861   0.80152   0.00000  Uiso   1.00
H1371  H     0.67210   0.07319   0.83208   0.00000  Uiso   1.00
H1372  H     0.64636   0.07083   0.75983   0.00000  Uiso   1.00
C1373  C     0.64322   0.00030   0.78882   0.00000  Uiso   1.00
H1374  H     0.61273   0.31818   0.80093   0.00000  Uiso   1.00
H1375  H     0.64645   0.31676   0.74169   0.00000  Uiso   1.00
H1376  H     0.66909   0.32015   0.81440   0.00000  Uiso   1.00
O1377  O     0.87961   0.07934   0.79642   0.00000  Uiso   1.00
C1378  C     0.87444   0.06416   0.73495   0.00000  Uiso   1.00
H1379  H     0.90493   0.05001   0.71611   0.00000  Uiso   1.00
H1380  H     0.86344   0.09567   0.71525   0.00000  Uiso   1.00
C1381  C     0.84082   0.02112   0.71952   0.00000  Uiso   1.00
H1382  H     0.80926   0.03841   0.72642   0.00000  Uiso   1.00
H1383  H     0.84290   0.33237   0.67356   0.00000  Uiso   1.00
H1384  H     0.84467   0.32809   0.74864   0.00000  Uiso   1.00
O1385  O     0.62013   0.25639   0.86511   0.00000  Uiso   1.00
C1386  C     0.62832   0.26706   0.92636   0.00000  Uiso   1.00
H1387  H     0.63505   0.23261   0.94325   0.00000  Uiso   1.00
H1388  H     0.60021   0.28456   0.94795   0.00000  Uiso   1.00
C1389  C     0.66658   0.30423   0.94354   0.00000  Uiso   1.00
H1390  H     0.67198   0.32664   0.91098   0.00000  Uiso   1.00
H1391  H     0.66258   0.33113   0.98650   0.00000  Uiso   1.00
H1392  H     0.69512   0.28169   0.94542   0.00000  Uiso   1.00
O1393  O     0.94645   0.03016   0.80021   0.00000  Uiso   1.00
C1394  C     0.95867   0.31952   0.75930   0.00000  Uiso   1.00
H1395  H     0.98402   0.30090   0.77963   0.00000  Uiso   1.00
H1396  H     0.96791   0.32982   0.72020   0.00000  Uiso   1.00
C1397  C     0.92288   0.27884   0.73893   0.00000  Uiso   1.00
H1398  H     0.90201   0.28719   0.70326   0.00000  Uiso   1.00
H1399  H     0.93709   0.24132   0.72080   0.00000  Uiso   1.00
H1400  H     0.90407   0.27540   0.77573   0.00000  Uiso   1.00
O1401  O     0.55193   0.30551   0.86362   0.00000  Uiso   1.00
C1402  C     0.54713   0.01250   0.91314   0.00000  Uiso   1.00
H1403  H     0.54189   0.33037   0.95060   0.00000  Uiso   1.00
H1404  H     0.52182   0.03665   0.90220   0.00000  Uiso   1.00
C1405  C     0.58714   0.04730   0.93173   0.00000  Uiso   1.00
H1406  H     0.58016   0.08704   0.92983   0.00000  Uiso   1.00
H1407  H     0.59839   0.04923   0.97759   0.00000  Uiso   1.00
H1408  H     0.61360   0.03287   0.90422   0.00000  Uiso   1.00
O1409  O     0.53855   0.02880   0.79071   0.00000  Uiso   1.00
C1410  C     0.54934   0.01411   0.73162   0.00000  Uiso   1.00
H1411  H     0.58078   0.03125   0.72618   0.00000  Uiso   1.00
H1412  H     0.52692   0.02930   0.70272   0.00000  Uiso   1.00
C1413  C     0.55122   0.28866   0.71217   0.00000  Uiso   1.00
H1414  H     0.52719   0.27200   0.67544   0.00000  Uiso   1.00
H1415  H     0.58361   0.27689   0.69867   0.00000  Uiso   1.00
H1416  H     0.54544   0.27033   0.74846   0.00000  Uiso   1.00
O1417  O     0.96010   0.30844   0.88071   0.00000  Uiso   1.00
C1418  C     0.95496   0.33035   0.94125   0.00000  Uiso   1.00
H1419  H     0.98011   0.31860   0.96822   0.00000  Uiso   1.00
H1420  H     0.92536   0.31707   0.95747   0.00000  Uiso   1.00
C1421  C     0.95298   0.05567   0.95406   0.00000  Uiso   1.00
H1422  H     0.95976   0.07036   0.91539   0.00000  Uiso   1.00
H1423  H     0.92032   0.06855   0.96567   0.00000  Uiso   1.00
H1424  H     0.97624   0.07430   0.99110   0.00000  Uiso   1.00
I1425  I     0.73681   0.30440   0.72180   0.00000  Uiso   1.00
I1426  I     0.76886   0.02937   0.94491   0.00000  Uiso   1.00
I1427  I     0.67783   0.12065   0.97698   0.00000  Uiso   1.00
I1428  I     0.82373   0.20973   0.68777   0.00000  Uiso   1.00
C1429  C     0.25063   0.40074   0.81801   0.00000  Uiso   1.00
C1430  C     0.25064   0.59938   0.84859   0.00000  Uiso   1.00
C1431  C     0.01815   0.40805   0.80178   0.00000  Uiso   1.00
C1432  C     0.48101   0.59545   0.87102   0.00000  Uiso   1.00
C1433  C     0.24962   0.34491   0.81041   0.00000  Uiso   1.00
C1434  C     0.25353   0.65533   0.85633   0.00000  Uiso   1.00
C1435  C     0.16478   0.50051   0.83439   0.00000  Uiso   1.00
C1436  C     0.33507   0.50006   0.83235   0.00000  Uiso   1.00
C1437  C     0.40903   0.54825   0.85423   0.00000  Uiso   1.00
C1438  C     0.09011   0.45338   0.82204   0.00000  Uiso   1.00
C1439  C     0.38381   0.50244   0.83092   0.00000  Uiso   1.00
C1440  C     0.11571   0.49944   0.83496   0.00000  Uiso   1.00
C1441  C     0.40514   0.45682   0.81215   0.00000  Uiso   1.00
C1442  C     0.09433   0.54584   0.84814   0.00000  Uiso   1.00
C1443  C     0.45127   0.45535   0.81540   0.00000  Uiso   1.00
C1444  C     0.04797   0.54763   0.84832   0.00000  Uiso   1.00
C1445  C     0.47647   0.50195   0.83275   0.00000  Uiso   1.00
C1446  C     0.02267   0.50141   0.83255   0.00000  Uiso   1.00
C1447  C     0.45542   0.54873   0.85304   0.00000  Uiso   1.00
C1448  C     0.04374   0.45440   0.81767   0.00000  Uiso   1.00
C1449  C     0.47208   0.40794   0.80259   0.00000  Uiso   1.00
C1450  C     0.02705   0.59485   0.86413   0.00000  Uiso   1.00
Cu1451 Cu    0.25500   0.50579   0.89479   0.00000  Uiso   1.00
Cu1452 Cu    0.24499   0.49421   0.77187   0.00000  Uiso   1.00
N1453  N     0.23744   0.48547   0.67951   0.00000  Uiso   1.00
N1454  N     0.26255   0.51453   0.98716   0.00000  Uiso   1.00
O1455  O     0.25325   0.42871   0.87326   0.00000  Uiso   1.00
O1456  O     0.24674   0.57129   0.79341   0.00000  Uiso   1.00
O1457  O     0.24480   0.41892   0.76945   0.00000  Uiso   1.00
O1458  O     0.25520   0.58108   0.89721   0.00000  Uiso   1.00
O1459  O     0.18935   0.50488   0.88524   0.00000  Uiso   1.00
O1460  O     0.31064   0.49512   0.78143   0.00000  Uiso   1.00
O1461  O     0.18090   0.49510   0.78143   0.00000  Uiso   1.00
O1462  O     0.31910   0.50490   0.88523   0.00000  Uiso   1.00
O1463  O     0.39077   0.58957   0.89031   0.00000  Uiso   1.00
C1464  C     0.35514   0.60916   0.86464   0.00000  Uiso   1.00
H1465  H     0.32783   0.60329   0.89005   0.00000  Uiso   1.00
H1466  H     0.34721   0.59105   0.81756   0.00000  Uiso   1.00
C1467  C     0.36140   0.66658   0.87298   0.00000  Uiso   1.00
H1468  H     0.39167   0.34269   0.85566   0.00000  Uiso   1.00
H1469  H     0.33517   0.34823   0.84922   0.00000  Uiso   1.00
H1470  H     0.36186   0.35296   0.92001   0.00000  Uiso   1.00
O1471  O     0.10706   0.40882   0.83096   0.00000  Uiso   1.00
C1472  C     0.14404   0.39195   0.80152   0.00000  Uiso   1.00
H1473  H     0.17210   0.40652   0.83208   0.00000  Uiso   1.00
H1474  H     0.14636   0.40416   0.75983   0.00000  Uiso   1.00
C1475  C     0.14322   0.33363   0.78882   0.00000  Uiso   1.00
H1476  H     0.11273   0.65151   0.80093   0.00000  Uiso   1.00
H1477  H     0.14645   0.65009   0.74169   0.00000  Uiso   1.00
H1478  H     0.16909   0.65348   0.81440   0.00000  Uiso   1.00
O1479  O     0.37961   0.41268   0.79642   0.00000  Uiso   1.00
C1480  C     0.37444   0.39750   0.73495   0.00000  Uiso   1.00
H1481  H     0.40493   0.38335   0.71611   0.00000  Uiso   1.00
H1482  H     0.36344   0.42901   0.71525   0.00000  Uiso   1.00
C1483  C     0.34082   0.35445   0.71952   0.00000  Uiso   1.00
H1484  H     0.30926   0.37175   0.72642   0.00000  Uiso   1.00
H1485  H     0.34290   0.66570   0.67356   0.00000  Uiso   1.00
H1486  H     0.34467   0.66142   0.74864   0.00000  Uiso   1.00
O1487  O     0.12013   0.58972   0.86511   0.00000  Uiso   1.00
C1488  C     0.12832   0.60039   0.92636   0.00000  Uiso   1.00
H1489  H     0.13505   0.56594   0.94325   0.00000  Uiso   1.00
H1490  H     0.10021   0.61790   0.94795   0.00000  Uiso   1.00
C1491  C     0.16658   0.63757   0.94354   0.00000  Uiso   1.00
H1492  H     0.17198   0.65997   0.91098   0.00000  Uiso   1.00
H1493  H     0.16258   0.66447   0.98650   0.00000  Uiso   1.00
H1494  H     0.19512   0.61502   0.94542   0.00000  Uiso   1.00
O1495  O     0.44645   0.36350   0.80021   0.00000  Uiso   1.00
C1496  C     0.45867   0.65285   0.75930   0.00000  Uiso   1.00
H1497  H     0.48402   0.63423   0.77963   0.00000  Uiso   1.00
H1498  H     0.46791   0.66315   0.72020   0.00000  Uiso   1.00
C1499  C     0.42288   0.61217   0.73893   0.00000  Uiso   1.00
H1500  H     0.40201   0.62052   0.70326   0.00000  Uiso   1.00
H1501  H     0.43709   0.57465   0.72080   0.00000  Uiso   1.00
H1502  H     0.40407   0.60873   0.77573   0.00000  Uiso   1.00
O1503  O     0.05193   0.63884   0.86362   0.00000  Uiso   1.00
C1504  C     0.04713   0.34584   0.91314   0.00000  Uiso   1.00
H1505  H     0.04189   0.66370   0.95060   0.00000  Uiso   1.00
H1506  H     0.02182   0.36998   0.90220   0.00000  Uiso   1.00
C1507  C     0.08714   0.38063   0.93173   0.00000  Uiso   1.00
H1508  H     0.08016   0.42038   0.92983   0.00000  Uiso   1.00
H1509  H     0.09839   0.38256   0.97759   0.00000  Uiso   1.00
H1510  H     0.11360   0.36620   0.90422   0.00000  Uiso   1.00
O1511  O     0.03855   0.36213   0.79071   0.00000  Uiso   1.00
C1512  C     0.04934   0.34744   0.73162   0.00000  Uiso   1.00
H1513  H     0.08078   0.36459   0.72618   0.00000  Uiso   1.00
H1514  H     0.02692   0.36264   0.70272   0.00000  Uiso   1.00
C1515  C     0.05122   0.62199   0.71217   0.00000  Uiso   1.00
H1516  H     0.02719   0.60533   0.67544   0.00000  Uiso   1.00
H1517  H     0.08361   0.61022   0.69867   0.00000  Uiso   1.00
H1518  H     0.04544   0.60366   0.74846   0.00000  Uiso   1.00
O1519  O     0.46010   0.64177   0.88071   0.00000  Uiso   1.00
C1520  C     0.45496   0.66368   0.94125   0.00000  Uiso   1.00
H1521  H     0.48011   0.65193   0.96822   0.00000  Uiso   1.00
H1522  H     0.42536   0.65041   0.95747   0.00000  Uiso   1.00
C1523  C     0.45298   0.38901   0.95406   0.00000  Uiso   1.00
H1524  H     0.45976   0.40369   0.91539   0.00000  Uiso   1.00
H1525  H     0.42032   0.40188   0.96567   0.00000  Uiso   1.00
H1526  H     0.47624   0.40763   0.99110   0.00000  Uiso   1.00
I1527  I     0.23681   0.63773   0.72180   0.00000  Uiso   1.00
I1528  I     0.26886   0.36270   0.94491   0.00000  Uiso   1.00
I1529  I     0.17783   0.45399   0.97698   0.00000  Uiso   1.00
I1530  I     0.32373   0.54307   0.68777   0.00000  Uiso   1.00
C1531  C     0.75063   0.40074   0.81801   0.00000  Uiso   1.00
C1532  C     0.75064   0.59938   0.84859   0.00000  Uiso   1.00
C1533  C     0.51815   0.40805   0.80178   0.00000  Uiso   1.00
C1534  C     0.98101   0.59545   0.87102   0.00000  Uiso   1.00
C1535  C     0.74962   0.34491   0.81041   0.00000  Uiso   1.00
C1536  C     0.75353   0.65533   0.85633   0.00000  Uiso   1.00
C1537  C     0.66478   0.50051   0.83439   0.00000  Uiso   1.00
C1538  C     0.83507   0.50006   0.83235   0.00000  Uiso   1.00
C1539  C     0.90903   0.54825   0.85423   0.00000  Uiso   1.00
C1540  C     0.59011   0.45338   0.82204   0.00000  Uiso   1.00
C1541  C     0.88381   0.50244   0.83092   0.00000  Uiso   1.00
C1542  C     0.61571   0.49944   0.83496   0.00000  Uiso   1.00
C1543  C     0.90514   0.45682   0.81215   0.00000  Uiso   1.00
C1544  C     0.59433   0.54584   0.84814   0.00000  Uiso   1.00
C1545  C     0.95127   0.45535   0.81540   0.00000  Uiso   1.00
C1546  C     0.54797   0.54763   0.84832   0.00000  Uiso   1.00
C1547  C     0.97647   0.50195   0.83275   0.00000  Uiso   1.00
C1548  C     0.52267   0.50141   0.83255   0.00000  Uiso   1.00
C1549  C     0.95542   0.54873   0.85304   0.00000  Uiso   1.00
C1550  C     0.54374   0.45440   0.81767   0.00000  Uiso   1.00
C1551  C     0.97208   0.40794   0.80259   0.00000  Uiso   1.00
C1552  C     0.52705   0.59485   0.86413   0.00000  Uiso   1.00
Cu1553 Cu    0.75500   0.50579   0.89479   0.00000  Uiso   1.00
Cu1554 Cu    0.74499   0.49421   0.77187   0.00000  Uiso   1.00
N1555  N     0.73744   0.48547   0.67951   0.00000  Uiso   1.00
N1556  N     0.76255   0.51453   0.98716   0.00000  Uiso   1.00
O1557  O     0.75325   0.42871   0.87326   0.00000  Uiso   1.00
O1558  O     0.74674   0.57129   0.79341   0.00000  Uiso   1.00
O1559  O     0.74480   0.41892   0.76945   0.00000  Uiso   1.00
O1560  O     0.75520   0.58108   0.89721   0.00000  Uiso   1.00
O1561  O     0.68935   0.50488   0.88524   0.00000  Uiso   1.00
O1562  O     0.81064   0.49512   0.78143   0.00000  Uiso   1.00
O1563  O     0.68090   0.49510   0.78143   0.00000  Uiso   1.00
O1564  O     0.81910   0.50490   0.88523   0.00000  Uiso   1.00
O1565  O     0.89077   0.58957   0.89031   0.00000  Uiso   1.00
C1566  C     0.85514   0.60916   0.86464   0.00000  Uiso   1.00
H1567  H     0.82783   0.60329   0.89005   0.00000  Uiso   1.00
H1568  H     0.84721   0.59105   0.81756   0.00000  Uiso   1.00
C1569  C     0.86140   0.66658   0.87298   0.00000  Uiso   1.00
H1570  H     0.89167   0.34269   0.85566   0.00000  Uiso   1.00
H1571  H     0.83517   0.34823   0.84922   0.00000  Uiso   1.00
H1572  H     0.86186   0.35296   0.92001   0.00000  Uiso   1.00
O1573  O     0.60706   0.40882   0.83096   0.00000  Uiso   1.00
C1574  C     0.64404   0.39195   0.80152   0.00000  Uiso   1.00
H1575  H     0.67210   0.40652   0.83208   0.00000  Uiso   1.00
H1576  H     0.64636   0.40416   0.75983   0.00000  Uiso   1.00
C1577  C     0.64322   0.33363   0.78882   0.00000  Uiso   1.00
H1578  H     0.61273   0.65151   0.80093   0.00000  Uiso   1.00
H1579  H     0.64645   0.65009   0.74169   0.00000  Uiso   1.00
H1580  H     0.66909   0.65348   0.81440   0.00000  Uiso   1.00
O1581  O     0.87961   0.41268   0.79642   0.00000  Uiso   1.00
C1582  C     0.87444   0.39750   0.73495   0.00000  Uiso   1.00
H1583  H     0.90493   0.38335   0.71611   0.00000  Uiso   1.00
H1584  H     0.86344   0.42901   0.71525   0.00000  Uiso   1.00
C1585  C     0.84082   0.35445   0.71952   0.00000  Uiso   1.00
H1586  H     0.80926   0.37175   0.72642   0.00000  Uiso   1.00
H1587  H     0.84290   0.66570   0.67356   0.00000  Uiso   1.00
H1588  H     0.84467   0.66142   0.74864   0.00000  Uiso   1.00
O1589  O     0.62013   0.58972   0.86511   0.00000  Uiso   1.00
C1590  C     0.62832   0.60039   0.92636   0.00000  Uiso   1.00
H1591  H     0.63505   0.56594   0.94325   0.00000  Uiso   1.00
H1592  H     0.60021   0.61790   0.94795   0.00000  Uiso   1.00
C1593  C     0.66658   0.63757   0.94354   0.00000  Uiso   1.00
H1594  H     0.67198   0.65997   0.91098   0.00000  Uiso   1.00
H1595  H     0.66258   0.66447   0.98650   0.00000  Uiso   1.00
H1596  H     0.69512   0.61502   0.94542   0.00000  Uiso   1.00
O1597  O     0.94645   0.36350   0.80021   0.00000  Uiso   1.00
C1598  C     0.95867   0.65285   0.75930   0.00000  Uiso   1.00
H1599  H     0.98402   0.63423   0.77963   0.00000  Uiso   1.00
H1600  H     0.96791   0.66315   0.72020   0.00000  Uiso   1.00
C1601  C     0.92288   0.61217   0.73893   0.00000  Uiso   1.00
H1602  H     0.90201   0.62052   0.70326   0.00000  Uiso   1.00
H1603  H     0.93709   0.57465   0.72080   0.00000  Uiso   1.00
H1604  H     0.90407   0.60873   0.77573   0.00000  Uiso   1.00
O1605  O     0.55193   0.63884   0.86362   0.00000  Uiso   1.00
C1606  C     0.54713   0.34584   0.91314   0.00000  Uiso   1.00
H1607  H     0.54189   0.66370   0.95060   0.00000  Uiso   1.00
H1608  H     0.52182   0.36998   0.90220   0.00000  Uiso   1.00
C1609  C     0.58714   0.38063   0.93173   0.00000  Uiso   1.00
H1610  H     0.58016   0.42038   0.92983   0.00000  Uiso   1.00
H1611  H     0.59839   0.38256   0.97759   0.00000  Uiso   1.00
H1612  H     0.61360   0.36620   0.90422   0.00000  Uiso   1.00
O1613  O     0.53855   0.36213   0.79071   0.00000  Uiso   1.00
C1614  C     0.54934   0.34744   0.73162   0.00000  Uiso   1.00
H1615  H     0.58078   0.36459   0.72618   0.00000  Uiso   1.00
H1616  H     0.52692   0.36264   0.70272   0.00000  Uiso   1.00
C1617  C     0.55122   0.62199   0.71217   0.00000  Uiso   1.00
H1618  H     0.52719   0.60533   0.67544   0.00000  Uiso   1.00
H1619  H     0.58361   0.61022   0.69867   0.00000  Uiso   1.00
H1620  H     0.54544   0.60366   0.74846   0.00000  Uiso   1.00
O1621  O     0.96010   0.64177   0.88071   0.00000  Uiso   1.00
C1622  C     0.95496   0.66368   0.94125   0.00000  Uiso   1.00
H1623  H     0.98011   0.65193   0.96822   0.00000  Uiso   1.00
H1624  H     0.92536   0.65041   0.95747   0.00000  Uiso   1.00
C1625  C     0.95298   0.38901   0.95406   0.00000  Uiso   1.00
H1626  H     0.95976   0.40369   0.91539   0.00000  Uiso   1.00
H1627  H     0.92032   0.40188   0.96567   0.00000  Uiso   1.00
H1628  H     0.97624   0.40763   0.99110   0.00000  Uiso   1.00
I1629  I     0.73681   0.63773   0.72180   0.00000  Uiso   1.00
I1630  I     0.76886   0.36270   0.94491   0.00000  Uiso   1.00
I1631  I     0.67783   0.45399   0.97698   0.00000  Uiso   1.00
I1632  I     0.82373   0.54307   0.68777   0.00000  Uiso   1.00
C1633  C     0.25063   0.73407   0.81801   0.00000  Uiso   1.00
C1634  C     0.25064   0.93272   0.84859   0.00000  Uiso   1.00
C1635  C     0.01815   0.74139   0.80178   0.00000  Uiso   1.00
C1636  C     0.48101   0.92879   0.87102   0.00000  Uiso   1.00
C1637  C     0.24962   0.67825   0.81041   0.00000  Uiso   1.00
C1638  C     0.25353   0.98866   0.85633   0.00000  Uiso   1.00
C1639  C     0.16478   0.83385   0.83439   0.00000  Uiso   1.00
C1640  C     0.33507   0.83339   0.83235   0.00000  Uiso   1.00
C1641  C     0.40903   0.88159   0.85423   0.00000  Uiso   1.00
C1642  C     0.09011   0.78671   0.82204   0.00000  Uiso   1.00
C1643  C     0.38381   0.83578   0.83092   0.00000  Uiso   1.00
C1644  C     0.11571   0.83277   0.83496   0.00000  Uiso   1.00
C1645  C     0.40514   0.79015   0.81215   0.00000  Uiso   1.00
C1646  C     0.09433   0.87918   0.84814   0.00000  Uiso   1.00
C1647  C     0.45127   0.78869   0.81540   0.00000  Uiso   1.00
C1648  C     0.04797   0.88096   0.84832   0.00000  Uiso   1.00
C1649  C     0.47647   0.83529   0.83275   0.00000  Uiso   1.00
C1650  C     0.02267   0.83474   0.83255   0.00000  Uiso   1.00
C1651  C     0.45542   0.88206   0.85304   0.00000  Uiso   1.00
C1652  C     0.04374   0.78773   0.81767   0.00000  Uiso   1.00
C1653  C     0.47208   0.74127   0.80259   0.00000  Uiso   1.00
C1654  C     0.02705   0.92819   0.86413   0.00000  Uiso   1.00
Cu1655 Cu    0.25500   0.83913   0.89479   0.00000  Uiso   1.00
Cu1656 Cu    0.24499   0.82754   0.77187   0.00000  Uiso   1.00
N1657  N     0.23744   0.81881   0.67951   0.00000  Uiso   1.00
N1658  N     0.26255   0.84786   0.98716   0.00000  Uiso   1.00
O1659  O     0.25325   0.76204   0.87326   0.00000  Uiso   1.00
O1660  O     0.24674   0.90462   0.79341   0.00000  Uiso   1.00
O1661  O     0.24480   0.75226   0.76945   0.00000  Uiso   1.00
O1662  O     0.25520   0.91441   0.89721   0.00000  Uiso   1.00
O1663  O     0.18935   0.83821   0.88524   0.00000  Uiso   1.00
O1664  O     0.31064   0.82845   0.78143   0.00000  Uiso   1.00
O1665  O     0.18090   0.82843   0.78143   0.00000  Uiso   1.00
O1666  O     0.31910   0.83824   0.88523   0.00000  Uiso   1.00
O1667  O     0.39077   0.92290   0.89031   0.00000  Uiso   1.00
C1668  C     0.35514   0.94250   0.86464   0.00000  Uiso   1.00
H1669  H     0.32783   0.93662   0.89005   0.00000  Uiso   1.00
H1670  H     0.34721   0.92438   0.81756   0.00000  Uiso   1.00
C1671  C     0.36140   0.99991   0.87298   0.00000  Uiso   1.00
H1672  H     0.39167   0.67602   0.85566   0.00000  Uiso   1.00
H1673  H     0.33517   0.68156   0.84922   0.00000  Uiso   1.00
H1674  H     0.36186   0.68630   0.92001   0.00000  Uiso   1.00
O1675  O     0.10706   0.74216   0.83096   0.00000  Uiso   1.00
C1676  C     0.14404   0.72528   0.80152   0.00000  Uiso   1.00
H1677  H     0.17210   0.73985   0.83208   0.00000  Uiso   1.00
H1678  H     0.14636   0.73749   0.75983   0.00000  Uiso   1.00
C1679  C     0.14322   0.66697   0.78882   0.00000  Uiso   1.00
H1680  H     0.11273   0.98484   0.80093   0.00000  Uiso   1.00
H1681  H     0.14645   0.98343   0.74169   0.00000  Uiso   1.00
H1682  H     0.16909   0.98682   0.81440   0.00000  Uiso   1.00
O1683  O     0.37961   0.74601   0.79642   0.00000  Uiso   1.00
C1684  C     0.37444   0.73083   0.73495   0.00000  Uiso   1.00
H1685  H     0.40493   0.71668   0.71611   0.00000  Uiso   1.00
H1686  H     0.36344   0.76234   0.71525   0.00000  Uiso   1.00
C1687  C     0.34082   0.68778   0.71952   0.00000  Uiso   1.00
H1688  H     0.30926   0.70508   0.72642   0.00000  Uiso   1.00
H1689  H     0.34290   0.99904   0.67356   0.00000  Uiso   1.00
H1690  H     0.34467   0.99476   0.74864   0.00000  Uiso   1.00
O1691  O     0.12013   0.92305   0.86511   0.00000  Uiso   1.00
C1692  C     0.12832   0.93372   0.92636   0.00000  Uiso   1.00
H1693  H     0.13505   0.89927   0.94325   0.00000  Uiso   1.00
H1694  H     0.10021   0.95123   0.94795   0.00000  Uiso   1.00
C1695  C     0.16658   0.97090   0.94354   0.00000  Uiso   1.00
H1696  H     0.17198   0.99331   0.91098   0.00000  Uiso   1.00
H1697  H     0.16258   0.99780   0.98650   0.00000  Uiso   1.00
H1698  H     0.19512   0.94835   0.94542   0.00000  Uiso   1.00
O1699  O     0.44645   0.69683   0.80021   0.00000  Uiso   1.00
C1700  C     0.45867   0.98619   0.75930   0.00000  Uiso   1.00
H1701  H     0.48402   0.96756   0.77963   0.00000  Uiso   1.00
H1702  H     0.46791   0.99649   0.72020   0.00000  Uiso   1.00
C1703  C     0.42288   0.94550   0.73893   0.00000  Uiso   1.00
H1704  H     0.40201   0.95385   0.70326   0.00000  Uiso   1.00
H1705  H     0.43709   0.90798   0.72080   0.00000  Uiso   1.00
H1706  H     0.40407   0.94207   0.77573   0.00000  Uiso   1.00
O1707  O     0.05193   0.97217   0.86362   0.00000  Uiso   1.00
C1708  C     0.04713   0.67917   0.91314   0.00000  Uiso   1.00
H1709  H     0.04189   0.99703   0.95060   0.00000  Uiso   1.00
H1710  H     0.02182   0.70331   0.90220   0.00000  Uiso   1.00
C1711  C     0.08714   0.71396   0.93173   0.00000  Uiso   1.00
H1712  H     0.08016   0.75371   0.92983   0.00000  Uiso   1.00
H1713  H     0.09839   0.71590   0.97759   0.00000  Uiso   1.00
H1714  H     0.11360   0.69954   0.90422   0.00000  Uiso   1.00
O1715  O     0.03855   0.69546   0.79071   0.00000  Uiso   1.00
C1716  C     0.04934   0.68078   0.73162   0.00000  Uiso   1.00
H1717  H     0.08078   0.69792   0.72618   0.00000  Uiso   1.00
H1718  H     0.02692   0.69597   0.70272   0.00000  Uiso   1.00
C1719  C     0.05122   0.95532   0.71217   0.00000  Uiso   1.00
H1720  H     0.02719   0.93866   0.67544   0.00000  Uiso   1.00
H1721  H     0.08361   0.94356   0.69867   0.00000  Uiso   1.00
H1722  H     0.04544   0.93699   0.74846   0.00000  Uiso   1.00
O1723  O     0.46010   0.97510   0.88071   0.00000  Uiso   1.00
C1724  C     0.45496   0.99701   0.94125   0.00000  Uiso   1.00
H1725  H     0.48011   0.98527   0.96822   0.00000  Uiso   1.00
H1726  H     0.42536   0.98374   0.95747   0.00000  Uiso   1.00
C1727  C     0.45298   0.72234   0.95406   0.00000  Uiso   1.00
H1728  H     0.45976   0.73702   0.91539   0.00000  Uiso   1.00
H1729  H     0.42032   0.73522   0.96567   0.00000  Uiso   1.00
H1730  H     0.47624   0.74096   0.99110   0.00000  Uiso   1.00
I1731  I     0.23681   0.97106   0.72180   0.00000  Uiso   1.00
I1732  I     0.26886   0.69604   0.94491   0.00000  Uiso   1.00
I1733  I     0.17783   0.78732   0.97698   0.00000  Uiso   1.00
I1734  I     0.32373   0.87640   0.68777   0.00000  Uiso   1.00
C1735  C     0.75063   0.73407   0.81801   0.00000  Uiso   1.00
C1736  C     0.75064   0.93272   0.84859   0.00000  Uiso   1.00
C1737  C     0.51815   0.74139   0.80178   0.00000  Uiso   1.00
C1738  C     0.98101   0.92879   0.87102   0.00000  Uiso   1.00
C1739  C     0.74962   0.67825   0.81041   0.00000  Uiso   1.00
C1740  C     0.75353   0.98866   0.85633   0.00000  Uiso   1.00
C1741  C     0.66478   0.83385   0.83439   0.00000  Uiso   1.00
C1742  C     0.83507   0.83339   0.83235   0.00000  Uiso   1.00
C1743  C     0.90903   0.88159   0.85423   0.00000  Uiso   1.00
C1744  C     0.59011   0.78671   0.82204   0.00000  Uiso   1.00
C1745  C     0.88381   0.83578   0.83092   0.00000  Uiso   1.00
C1746  C     0.61571   0.83277   0.83496   0.00000  Uiso   1.00
C1747  C     0.90514   0.79015   0.81215   0.00000  Uiso   1.00
C1748  C     0.59433   0.87918   0.84814   0.00000  Uiso   1.00
C1749  C     0.95127   0.78869   0.81540   0.00000  Uiso   1.00
C1750  C     0.54797   0.88096   0.84832   0.00000  Uiso   1.00
C1751  C     0.97647   0.83529   0.83275   0.00000  Uiso   1.00
C1752  C     0.52267   0.83474   0.83255   0.00000  Uiso   1.00
C1753  C     0.95542   0.88206   0.85304   0.00000  Uiso   1.00
C1754  C     0.54374   0.78773   0.81767   0.00000  Uiso   1.00
C1755  C     0.97208   0.74127   0.80259   0.00000  Uiso   1.00
C1756  C     0.52705   0.92819   0.86413   0.00000  Uiso   1.00
Cu1757 Cu    0.75500   0.83913   0.89479   0.00000  Uiso   1.00
Cu1758 Cu    0.74499   0.82754   0.77187   0.00000  Uiso   1.00
N1759  N     0.73744   0.81881   0.67951   0.00000  Uiso   1.00
N1760  N     0.76255   0.84786   0.98716   0.00000  Uiso   1.00
O1761  O     0.75325   0.76204   0.87326   0.00000  Uiso   1.00
O1762  O     0.74674   0.90462   0.79341   0.00000  Uiso   1.00
O1763  O     0.74480   0.75226   0.76945   0.00000  Uiso   1.00
O1764  O     0.75520   0.91441   0.89721   0.00000  Uiso   1.00
O1765  O     0.68935   0.83821   0.88524   0.00000  Uiso   1.00
O1766  O     0.81064   0.82845   0.78143   0.00000  Uiso   1.00
O1767  O     0.68090   0.82843   0.78143   0.00000  Uiso   1.00
O1768  O     0.81910   0.83824   0.88523   0.00000  Uiso   1.00
O1769  O     0.89077   0.92290   0.89031   0.00000  Uiso   1.00
C1770  C     0.85514   0.94250   0.86464   0.00000  Uiso   1.00
H1771  H     0.82783   0.93662   0.89005   0.00000  Uiso   1.00
H1772  H     0.84721   0.92438   0.81756   0.00000  Uiso   1.00
C1773  C     0.86140   0.99991   0.87298   0.00000  Uiso   1.00
H1774  H     0.89167   0.67602   0.85566   0.00000  Uiso   1.00
H1775  H     0.83517   0.68156   0.84922   0.00000  Uiso   1.00
H1776  H     0.86186   0.68630   0.92001   0.00000  Uiso   1.00
O1777  O     0.60706   0.74216   0.83096   0.00000  Uiso   1.00
C1778  C     0.64404   0.72528   0.80152   0.00000  Uiso   1.00
H1779  H     0.67210   0.73985   0.83208   0.00000  Uiso   1.00
H1780  H     0.64636   0.73749   0.75983   0.00000  Uiso   1.00
C1781  C     0.64322   0.66697   0.78882   0.00000  Uiso   1.00
H1782  H     0.61273   0.98484   0.80093   0.00000  Uiso   1.00
H1783  H     0.64645   0.98343   0.74169   0.00000  Uiso   1.00
H1784  H     0.66909   0.98682   0.81440   0.00000  Uiso   1.00
O1785  O     0.87961   0.74601   0.79642   0.00000  Uiso   1.00
C1786  C     0.87444   0.73083   0.73495   0.00000  Uiso   1.00
H1787  H     0.90493   0.71668   0.71611   0.00000  Uiso   1.00
H1788  H     0.86344   0.76234   0.71525   0.00000  Uiso   1.00
C1789  C     0.84082   0.68778   0.71952   0.00000  Uiso   1.00
H1790  H     0.80926   0.70508   0.72642   0.00000  Uiso   1.00
H1791  H     0.84290   0.99904   0.67356   0.00000  Uiso   1.00
H1792  H     0.84467   0.99476   0.74864   0.00000  Uiso   1.00
O1793  O     0.62013   0.92305   0.86511   0.00000  Uiso   1.00
C1794  C     0.62832   0.93372   0.92636   0.00000  Uiso   1.00
H1795  H     0.63505   0.89927   0.94325   0.00000  Uiso   1.00
H1796  H     0.60021   0.95123   0.94795   0.00000  Uiso   1.00
C1797  C     0.66658   0.97090   0.94354   0.00000  Uiso   1.00
H1798  H     0.67198   0.99331   0.91098   0.00000  Uiso   1.00
H1799  H     0.66258   0.99780   0.98650   0.00000  Uiso   1.00
H1800  H     0.69512   0.94835   0.94542   0.00000  Uiso   1.00
O1801  O     0.94645   0.69683   0.80021   0.00000  Uiso   1.00
C1802  C     0.95867   0.98619   0.75930   0.00000  Uiso   1.00
H1803  H     0.98402   0.96756   0.77963   0.00000  Uiso   1.00
H1804  H     0.96791   0.99649   0.72020   0.00000  Uiso   1.00
C1805  C     0.92288   0.94550   0.73893   0.00000  Uiso   1.00
H1806  H     0.90201   0.95385   0.70326   0.00000  Uiso   1.00
H1807  H     0.93709   0.90798   0.72080   0.00000  Uiso   1.00
H1808  H     0.90407   0.94207   0.77573   0.00000  Uiso   1.00
O1809  O     0.55193   0.97217   0.86362   0.00000  Uiso   1.00
C1810  C     0.54713   0.67917   0.91314   0.00000  Uiso   1.00
H1811  H     0.54189   0.99703   0.95060   0.00000  Uiso   1.00
H1812  H     0.52182   0.70331   0.90220   0.00000  Uiso   1.00
C1813  C     0.58714   0.71396   0.93173   0.00000  Uiso   1.00
H1814  H     0.58016   0.75371   0.92983   0.00000  Uiso   1.00
H1815  H     0.59839   0.71590   0.97759   0.00000  Uiso   1.00
H1816  H     0.61360   0.69954   0.90422   0.00000  Uiso   1.00
O1817  O     0.53855   0.69546   0.79071   0.00000  Uiso   1.00
C1818  C     0.54934   0.68078   0.73162   0.00000  Uiso   1.00
H1819  H     0.58078   0.69792   0.72618   0.00000  Uiso   1.00
H1820  H     0.52692   0.69597   0.70272   0.00000  Uiso   1.00
C1821  C     0.55122   0.95532   0.71217   0.00000  Uiso   1.00
H1822  H     0.52719   0.93866   0.67544   0.00000  Uiso   1.00
H1823  H     0.58361   0.94356   0.69867   0.00000  Uiso   1.00
H1824  H     0.54544   0.93699   0.74846   0.00000  Uiso   1.00
O1825  O     0.96010   0.97510   0.88071   0.00000  Uiso   1.00
C1826  C     0.95496   0.99701   0.94125   0.00000  Uiso   1.00
H1827  H     0.98011   0.98527   0.96822   0.00000  Uiso   1.00
H1828  H     0.92536   0.98374   0.95747   0.00000  Uiso   1.00
C1829  C     0.95298   0.72234   0.95406   0.00000  Uiso   1.00
H1830  H     0.95976   0.73702   0.91539   0.00000  Uiso   1.00
H1831  H     0.92032   0.73522   0.96567   0.00000  Uiso   1.00
H1832  H     0.97624   0.74096   0.99110   0.00000  Uiso   1.00
I1833  I     0.73681   0.97106   0.72180   0.00000  Uiso   1.00
I1834  I     0.76886   0.69604   0.94491   0.00000  Uiso   1.00
I1835  I     0.67783   0.78732   0.97698   0.00000  Uiso   1.00
I1836  I     0.82373   0.87640   0.68777   0.00000  Uiso   1.00
loop_
_geom_bond_atom_site_label_1
_geom_bond_atom_site_label_2
_geom_bond_distance
_geom_bond_site_symmetry_2
_ccdc_geom_bond_type
C1     C5      1.472   .     S
C1     O27     1.332   .     A
C1     O29     1.355   .     A
C2     C6      1.475   .     S
C2     O30     1.355   .     A
C2     O28     1.332   .     A
C3     C20     1.420   .     A
C3     O83     1.381   .     S
C3     C123    1.428   1_455 S
C4     C19     1.430   .     A
C4     O91     1.398   .     S
C4     C124    1.444   .     S
C5     C414    1.372   1_545 S
C5     I507    2.116   1_545 S
C6     C209    1.372   .     S
C6     I304    2.128   .     S
C7     O33     1.344   .     A
C7     C12     1.520   .     S
C7     O31     1.362   .     A
C8     O32     1.359   .     A
C8     O34     1.342   .     A
C8     C11     1.512   .     S
C9     C19     1.439   .     A
C9     C11     1.417   .     A
C9     O35     1.382   .     S
C10    C20     1.436   .     A
C10    C12     1.415   .     A
C10    O43     1.382   .     S
C11    C13     1.399   .     A
C12    C14     1.408   .     A
C13    O51     1.372   .     S
C13    C15     1.429   .     A
C14    O59     1.372   .     S
C14    C16     1.438   .     A
C15    C17     1.421   .     A
C15    C21     1.422   .     A
C16    C22     1.422   .     A
C16    C18     1.413   .     A
C17    C19     1.426   .     A
C17    C120    1.432   .     S
C18    C20     1.418   .     A
C18    C119    1.432   1_455 S
C21    O67     1.408   .     S
C21    C105    1.428   .     S
C22    O75     1.400   .     S
C22    C106    1.444   1_455 S
Cu23   N26     2.128   .     S
Cu23   O27     2.016   .     S
Cu23   O30     2.018   .     S
Cu23   O34     2.010   .     S
Cu23   O31     2.033   .     S
Cu24   O29     2.018   .     S
Cu24   N25     2.128   .     S
Cu24   O32     2.033   .     S
Cu24   O28     2.016   .     S
Cu24   O33     2.010   .     S
N25    N1250   1.354   1_554 S
N25    I1325   2.059   1_554 S
N26    N637    1.354   .     S
N26    I714    2.069   .     S
O35    C36     1.407   .     S
C36    H37     1.092   .     S
C36    C39     1.519   .     S
C36    H38     1.108   .     S
C39    H244    1.090   .     S
C39    H245    1.103   .     S
C39    H246    1.104   .     S
H40    C447    1.090   1_545 S
H41    C447    1.103   1_545 S
H42    C447    1.104   1_545 S
O43    C44     1.400   .     S
C44    H45     1.097   .     S
C44    H46     1.114   .     S
C44    C47     1.528   .     S
C47    H456    1.101   1_545 S
C47    H457    1.103   1_545 S
C47    H458    1.099   1_545 S
H48    C251    1.101   .     S
H49    C251    1.103   .     S
H50    C251    1.099   .     S
O51    C52     1.403   .     S
C52    H54     1.116   .     S
C52    H53     1.103   .     S
C52    C55     1.501   .     S
C55    H56     1.098   .     S
C55    H465    1.107   1_545 S
C55    H466    1.106   1_545 S
H57    C259    1.107   .     S
H58    C259    1.106   .     S
O59    C60     1.407   .     S
C60    C63     1.503   .     S
C60    H62     1.092   .     S
C60    H61     1.117   .     S
C63    H65     1.107   .     S
C63    H66     1.092   .     S
C63    H64     1.102   .     S
O67    C476    1.409   1_545 S
C68    C71     1.511   .     S
C68    H69     1.094   .     S
C68    H70     1.074   .     S
C68    O271    1.409   .     S
C71    H73     1.111   .     S
C71    H74     1.090   .     S
C71    H72     1.102   .     S
O75    C280    1.405   .     S
C76    H78     1.093   .     S
C76    C79     1.512   .     S
C76    O483    1.405   1_545 S
C76    H485    1.081   1_545 S
H77    C280    1.081   .     S
C79    H80     1.111   .     S
C79    H81     1.105   .     S
C79    H82     1.093   .     S
O83    C84     1.411   .     S
C84    H85     1.094   .     S
C84    H86     1.102   .     S
C84    C495    1.544   1_545 S
C87    H88     1.107   .     S
C87    H90     1.106   .     S
C87    H89     1.101   .     S
C87    C288    1.544   .     S
O91    C92     1.423   .     S
C92    H94     1.096   .     S
C92    H93     1.081   .     S
C92    C299    1.541   .     S
C95    H96     1.105   .     S
C95    H98     1.110   .     S
C95    H97     1.105   .     S
C95    C500    1.541   1_545 S
I99    C209    2.116   .     S
I100   C414    2.128   1_545 S
I101   N637    2.059   .     S
I102   N1250   2.069   1_554 S
C103   C107    1.472   .     S
C103   O129    1.332   .     A
C103   O131    1.355   .     A
C104   C108    1.475   .     S
C104   O132    1.355   .     A
C104   O130    1.332   .     A
C105   C122    1.420   .     A
C105   O185    1.381   .     S
C106   C121    1.430   .     A
C106   O193    1.398   .     S
C106   C22     1.444   1_655 S
C107   C516    1.372   1_545 S
C107   I609    2.116   1_545 S
C108   C311    1.372   .     S
C108   I406    2.128   .     S
C109   O135    1.344   .     A
C109   C114    1.520   .     S
C109   O133    1.362   .     A
C110   O134    1.359   .     A
C110   O136    1.342   .     A
C110   C113    1.512   .     S
C111   C121    1.439   .     A
C111   C113    1.417   .     A
C111   O137    1.382   .     S
C112   C122    1.436   .     A
C112   C114    1.415   .     A
C112   O145    1.382   .     S
C113   C115    1.399   .     A
C114   C116    1.408   .     A
C115   O153    1.372   .     S
C115   C117    1.429   .     A
C116   O161    1.372   .     S
C116   C118    1.438   .     A
C117   C119    1.421   .     A
C117   C123    1.422   .     A
C118   C124    1.422   .     A
C118   C120    1.413   .     A
C119   C121    1.426   .     A
C119   C18     1.432   1_655 S
C120   C122    1.418   .     A
C123   O169    1.408   .     S
C123   C3      1.428   1_655 S
C124   O177    1.400   .     S
Cu125  N128    2.128   .     S
Cu125  O129    2.016   .     S
Cu125  O132    2.018   .     S
Cu125  O136    2.010   .     S
Cu125  O133    2.033   .     S
Cu126  O131    2.018   .     S
Cu126  N127    2.128   .     S
Cu126  O134    2.033   .     S
Cu126  O130    2.016   .     S
Cu126  O135    2.010   .     S
N127   N1352   1.354   1_554 S
N127   I1427   2.059   1_554 S
N128   N739    1.354   .     S
N128   I816    2.069   .     S
O137   C138    1.407   .     S
C138   H139    1.092   .     S
C138   C141    1.519   .     S
C138   H140    1.108   .     S
C141   H346    1.090   .     S
C141   H347    1.103   .     S
C141   H348    1.104   .     S
H142   C549    1.090   1_545 S
H143   C549    1.103   1_545 S
H144   C549    1.104   1_545 S
O145   C146    1.400   .     S
C146   H147    1.097   .     S
C146   H148    1.114   .     S
C146   C149    1.528   .     S
C149   H558    1.101   1_545 S
C149   H559    1.103   1_545 S
C149   H560    1.099   1_545 S
H150   C353    1.101   .     S
H151   C353    1.103   .     S
H152   C353    1.099   .     S
O153   C154    1.403   .     S
C154   H156    1.116   .     S
C154   H155    1.103   .     S
C154   C157    1.501   .     S
C157   H158    1.098   .     S
C157   H567    1.107   1_545 S
C157   H568    1.106   1_545 S
H159   C361    1.107   .     S
H160   C361    1.106   .     S
O161   C162    1.407   .     S
C162   C165    1.503   .     S
C162   H164    1.092   .     S
C162   H163    1.117   .     S
C165   H167    1.107   .     S
C165   H168    1.092   .     S
C165   H166    1.102   .     S
O169   C578    1.409   1_545 S
C170   C173    1.511   .     S
C170   H171    1.094   .     S
C170   H172    1.074   .     S
C170   O373    1.409   .     S
C173   H175    1.111   .     S
C173   H176    1.090   .     S
C173   H174    1.102   .     S
O177   C382    1.405   .     S
C178   H180    1.093   .     S
C178   C181    1.512   .     S
C178   O585    1.405   1_545 S
C178   H587    1.081   1_545 S
H179   C382    1.081   .     S
C181   H182    1.111   .     S
C181   H183    1.105   .     S
C181   H184    1.093   .     S
O185   C186    1.411   .     S
C186   H187    1.094   .     S
C186   H188    1.102   .     S
C186   C597    1.544   1_545 S
C189   H190    1.107   .     S
C189   H192    1.106   .     S
C189   H191    1.101   .     S
C189   C390    1.544   .     S
O193   C194    1.423   .     S
C194   H196    1.096   .     S
C194   H195    1.081   .     S
C194   C401    1.541   .     S
C197   H198    1.105   .     S
C197   H200    1.110   .     S
C197   H199    1.105   .     S
C197   C602    1.541   1_545 S
I201   C311    2.116   .     S
I202   C516    2.128   1_545 S
I203   N739    2.059   .     S
I204   N1352   2.069   1_554 S
C205   C209    1.472   .     S
C205   O231    1.332   .     A
C205   O233    1.355   .     A
C206   C210    1.475   .     S
C206   O234    1.355   .     A
C206   O232    1.332   .     A
C207   C224    1.420   .     A
C207   O287    1.381   .     S
C207   C327    1.428   1_455 S
C208   C223    1.430   .     A
C208   O295    1.398   .     S
C208   C328    1.444   .     S
C210   C413    1.372   .     S
C210   I508    2.128   .     S
C211   O237    1.344   .     A
C211   C216    1.520   .     S
C211   O235    1.362   .     A
C212   O236    1.359   .     A
C212   O238    1.342   .     A
C212   C215    1.512   .     S
C213   C223    1.439   .     A
C213   C215    1.417   .     A
C213   O239    1.382   .     S
C214   C224    1.436   .     A
C214   C216    1.415   .     A
C214   O247    1.382   .     S
C215   C217    1.399   .     A
C216   C218    1.408   .     A
C217   O255    1.372   .     S
C217   C219    1.429   .     A
C218   O263    1.372   .     S
C218   C220    1.438   .     A
C219   C221    1.421   .     A
C219   C225    1.422   .     A
C220   C226    1.422   .     A
C220   C222    1.413   .     A
C221   C223    1.426   .     A
C221   C324    1.432   .     S
C222   C224    1.418   .     A
C222   C323    1.432   1_455 S
C225   O271    1.408   .     S
C225   C309    1.428   .     S
C226   O279    1.400   .     S
C226   C310    1.444   1_455 S
Cu227  N230    2.128   .     S
Cu227  O231    2.016   .     S
Cu227  O234    2.018   .     S
Cu227  O238    2.010   .     S
Cu227  O235    2.033   .     S
Cu228  O233    2.018   .     S
Cu228  N229    2.128   .     S
Cu228  O236    2.033   .     S
Cu228  O232    2.016   .     S
Cu228  O237    2.010   .     S
N229   N1454   1.354   1_554 S
N229   I1529   2.059   1_554 S
N230   N841    1.354   .     S
N230   I918    2.069   .     S
O239   C240    1.407   .     S
C240   H241    1.092   .     S
C240   C243    1.519   .     S
C240   H242    1.108   .     S
C243   H448    1.090   .     S
C243   H449    1.103   .     S
C243   H450    1.104   .     S
O247   C248    1.400   .     S
C248   H249    1.097   .     S
C248   H250    1.114   .     S
C248   C251    1.528   .     S
H252   C455    1.101   .     S
H253   C455    1.103   .     S
H254   C455    1.099   .     S
O255   C256    1.403   .     S
C256   H258    1.116   .     S
C256   H257    1.103   .     S
C256   C259    1.501   .     S
C259   H260    1.098   .     S
H261   C463    1.107   .     S
H262   C463    1.106   .     S
O263   C264    1.407   .     S
C264   C267    1.503   .     S
C264   H266    1.092   .     S
C264   H265    1.117   .     S
C267   H269    1.107   .     S
C267   H270    1.092   .     S
C267   H268    1.102   .     S
C272   C275    1.511   .     S
C272   H273    1.094   .     S
C272   H274    1.074   .     S
C272   O475    1.409   .     S
C275   H277    1.111   .     S
C275   H278    1.090   .     S
C275   H276    1.102   .     S
O279   C484    1.405   .     S
C280   H282    1.093   .     S
C280   C283    1.512   .     S
H281   C484    1.081   .     S
C283   H284    1.111   .     S
C283   H285    1.105   .     S
C283   H286    1.093   .     S
O287   C288    1.411   .     S
C288   H289    1.094   .     S
C288   H290    1.102   .     S
C291   H292    1.107   .     S
C291   H294    1.106   .     S
C291   H293    1.101   .     S
C291   C492    1.544   .     S
O295   C296    1.423   .     S
C296   H298    1.096   .     S
C296   H297    1.081   .     S
C296   C503    1.541   .     S
C299   H300    1.105   .     S
C299   H302    1.110   .     S
C299   H301    1.105   .     S
I303   C413    2.116   .     S
I305   N841    2.059   .     S
I306   N1454   2.069   1_554 S
C307   C311    1.472   .     S
C307   O333    1.332   .     A
C307   O335    1.355   .     A
C308   C312    1.475   .     S
C308   O336    1.355   .     A
C308   O334    1.332   .     A
C309   C326    1.420   .     A
C309   O389    1.381   .     S
C310   C325    1.430   .     A
C310   O397    1.398   .     S
C310   C226    1.444   1_655 S
C312   C515    1.372   .     S
C312   I610    2.128   .     S
C313   O339    1.344   .     A
C313   C318    1.520   .     S
C313   O337    1.362   .     A
C314   O338    1.359   .     A
C314   O340    1.342   .     A
C314   C317    1.512   .     S
C315   C325    1.439   .     A
C315   C317    1.417   .     A
C315   O341    1.382   .     S
C316   C326    1.436   .     A
C316   C318    1.415   .     A
C316   O349    1.382   .     S
C317   C319    1.399   .     A
C318   C320    1.408   .     A
C319   O357    1.372   .     S
C319   C321    1.429   .     A
C320   O365    1.372   .     S
C320   C322    1.438   .     A
C321   C323    1.421   .     A
C321   C327    1.422   .     A
C322   C328    1.422   .     A
C322   C324    1.413   .     A
C323   C325    1.426   .     A
C323   C222    1.432   1_655 S
C324   C326    1.418   .     A
C327   O373    1.408   .     S
C327   C207    1.428   1_655 S
C328   O381    1.400   .     S
Cu329  N332    2.128   .     S
Cu329  O333    2.016   .     S
Cu329  O336    2.018   .     S
Cu329  O340    2.010   .     S
Cu329  O337    2.033   .     S
Cu330  O335    2.018   .     S
Cu330  N331    2.128   .     S
Cu330  O338    2.033   .     S
Cu330  O334    2.016   .     S
Cu330  O339    2.010   .     S
N331   N1556   1.354   1_554 S
N331   I1631   2.059   1_554 S
N332   N943    1.354   .     S
N332   I1020   2.069   .     S
O341   C342    1.407   .     S
C342   H343    1.092   .     S
C342   C345    1.519   .     S
C342   H344    1.108   .     S
C345   H550    1.090   .     S
C345   H551    1.103   .     S
C345   H552    1.104   .     S
O349   C350    1.400   .     S
C350   H351    1.097   .     S
C350   H352    1.114   .     S
C350   C353    1.528   .     S
H354   C557    1.101   .     S
H355   C557    1.103   .     S
H356   C557    1.099   .     S
O357   C358    1.403   .     S
C358   H360    1.116   .     S
C358   H359    1.103   .     S
C358   C361    1.501   .     S
C361   H362    1.098   .     S
H363   C565    1.107   .     S
H364   C565    1.106   .     S
O365   C366    1.407   .     S
C366   C369    1.503   .     S
C366   H368    1.092   .     S
C366   H367    1.117   .     S
C369   H371    1.107   .     S
C369   H372    1.092   .     S
C369   H370    1.102   .     S
C374   C377    1.511   .     S
C374   H375    1.094   .     S
C374   H376    1.074   .     S
C374   O577    1.409   .     S
C377   H379    1.111   .     S
C377   H380    1.090   .     S
C377   H378    1.102   .     S
O381   C586    1.405   .     S
C382   H384    1.093   .     S
C382   C385    1.512   .     S
H383   C586    1.081   .     S
C385   H386    1.111   .     S
C385   H387    1.105   .     S
C385   H388    1.093   .     S
O389   C390    1.411   .     S
C390   H391    1.094   .     S
C390   H392    1.102   .     S
C393   H394    1.107   .     S
C393   H396    1.106   .     S
C393   H395    1.101   .     S
C393   C594    1.544   .     S
O397   C398    1.423   .     S
C398   H400    1.096   .     S
C398   H399    1.081   .     S
C398   C605    1.541   .     S
C401   H402    1.105   .     S
C401   H404    1.110   .     S
C401   H403    1.105   .     S
I405   C515    2.116   .     S
I407   N943    2.059   .     S
I408   N1556   2.069   1_554 S
C409   C413    1.472   .     S
C409   O435    1.332   .     A
C409   O437    1.355   .     A
C410   C414    1.475   .     S
C410   O438    1.355   .     A
C410   O436    1.332   .     A
C411   C428    1.420   .     A
C411   O491    1.381   .     S
C411   C531    1.428   1_455 S
C412   C427    1.430   .     A
C412   O499    1.398   .     S
C412   C532    1.444   .     S
C414   C5      1.372   1_565 S
C414   I100    2.128   1_565 S
C415   O441    1.344   .     A
C415   C420    1.520   .     S
C415   O439    1.362   .     A
C416   O440    1.359   .     A
C416   O442    1.342   .     A
C416   C419    1.512   .     S
C417   C427    1.439   .     A
C417   C419    1.417   .     A
C417   O443    1.382   .     S
C418   C428    1.436   .     A
C418   C420    1.415   .     A
C418   O451    1.382   .     S
C419   C421    1.399   .     A
C420   C422    1.408   .     A
C421   O459    1.372   .     S
C421   C423    1.429   .     A
C422   O467    1.372   .     S
C422   C424    1.438   .     A
C423   C425    1.421   .     A
C423   C429    1.422   .     A
C424   C430    1.422   .     A
C424   C426    1.413   .     A
C425   C427    1.426   .     A
C425   C528    1.432   .     S
C426   C428    1.418   .     A
C426   C527    1.432   1_455 S
C429   O475    1.408   .     S
C429   C513    1.428   .     S
C430   O483    1.400   .     S
C430   C514    1.444   1_455 S
Cu431  N434    2.128   .     S
Cu431  O435    2.016   .     S
Cu431  O438    2.018   .     S
Cu431  O442    2.010   .     S
Cu431  O439    2.033   .     S
Cu432  O437    2.018   .     S
Cu432  N433    2.128   .     S
Cu432  O440    2.033   .     S
Cu432  O436    2.016   .     S
Cu432  O441    2.010   .     S
N433   N1658   1.354   1_554 S
N433   I1733   2.059   1_554 S
N434   N1045   1.354   .     S
N434   I1122   2.069   .     S
O443   C444    1.407   .     S
C444   H445    1.092   .     S
C444   C447    1.519   .     S
C444   H446    1.108   .     S
C447   H40     1.090   1_565 S
C447   H41     1.103   1_565 S
C447   H42     1.104   1_565 S
O451   C452    1.400   .     S
C452   H453    1.097   .     S
C452   H454    1.114   .     S
C452   C455    1.528   .     S
H456   C47     1.101   1_565 S
H457   C47     1.103   1_565 S
H458   C47     1.099   1_565 S
O459   C460    1.403   .     S
C460   H462    1.116   .     S
C460   H461    1.103   .     S
C460   C463    1.501   .     S
C463   H464    1.098   .     S
H465   C55     1.107   1_565 S
H466   C55     1.106   1_565 S
O467   C468    1.407   .     S
C468   C471    1.503   .     S
C468   H470    1.092   .     S
C468   H469    1.117   .     S
C471   H473    1.107   .     S
C471   H474    1.092   .     S
C471   H472    1.102   .     S
C476   C479    1.511   .     S
C476   H477    1.094   .     S
C476   H478    1.074   .     S
C476   O67     1.409   1_565 S
C479   H481    1.111   .     S
C479   H482    1.090   .     S
C479   H480    1.102   .     S
O483   C76     1.405   1_565 S
C484   H486    1.093   .     S
C484   C487    1.512   .     S
H485   C76     1.081   1_565 S
C487   H488    1.111   .     S
C487   H489    1.105   .     S
C487   H490    1.093   .     S
O491   C492    1.411   .     S
C492   H493    1.094   .     S
C492   H494    1.102   .     S
C495   H496    1.107   .     S
C495   H498    1.106   .     S
C495   H497    1.101   .     S
C495   C84     1.544   1_565 S
O499   C500    1.423   .     S
C500   H502    1.096   .     S
C500   H501    1.081   .     S
C500   C95     1.541   1_565 S
C503   H504    1.105   .     S
C503   H506    1.110   .     S
C503   H505    1.105   .     S
I507   C5      2.116   1_565 S
I509   N1045   2.059   .     S
I510   N1658   2.069   1_554 S
C511   C515    1.472   .     S
C511   O537    1.332   .     A
C511   O539    1.355   .     A
C512   C516    1.475   .     S
C512   O540    1.355   .     A
C512   O538    1.332   .     A
C513   C530    1.420   .     A
C513   O593    1.381   .     S
C514   C529    1.430   .     A
C514   O601    1.398   .     S
C514   C430    1.444   1_655 S
C516   C107    1.372   1_565 S
C516   I202    2.128   1_565 S
C517   O543    1.344   .     A
C517   C522    1.520   .     S
C517   O541    1.362   .     A
C518   O542    1.359   .     A
C518   O544    1.342   .     A
C518   C521    1.512   .     S
C519   C529    1.439   .     A
C519   C521    1.417   .     A
C519   O545    1.382   .     S
C520   C530    1.436   .     A
C520   C522    1.415   .     A
C520   O553    1.382   .     S
C521   C523    1.399   .     A
C522   C524    1.408   .     A
C523   O561    1.372   .     S
C523   C525    1.429   .     A
C524   O569    1.372   .     S
C524   C526    1.438   .     A
C525   C527    1.421   .     A
C525   C531    1.422   .     A
C526   C532    1.422   .     A
C526   C528    1.413   .     A
C527   C529    1.426   .     A
C527   C426    1.432   1_655 S
C528   C530    1.418   .     A
C531   O577    1.408   .     S
C531   C411    1.428   1_655 S
C532   O585    1.400   .     S
Cu533  N536    2.128   .     S
Cu533  O537    2.016   .     S
Cu533  O540    2.018   .     S
Cu533  O544    2.010   .     S
Cu533  O541    2.033   .     S
Cu534  O539    2.018   .     S
Cu534  N535    2.128   .     S
Cu534  O542    2.033   .     S
Cu534  O538    2.016   .     S
Cu534  O543    2.010   .     S
N535   N1760   1.354   1_554 S
N535   I1835   2.059   1_554 S
N536   N1147   1.354   .     S
N536   I1224   2.069   .     S
O545   C546    1.407   .     S
C546   H547    1.092   .     S
C546   C549    1.519   .     S
C546   H548    1.108   .     S
C549   H142    1.090   1_565 S
C549   H143    1.103   1_565 S
C549   H144    1.104   1_565 S
O553   C554    1.400   .     S
C554   H555    1.097   .     S
C554   H556    1.114   .     S
C554   C557    1.528   .     S
H558   C149    1.101   1_565 S
H559   C149    1.103   1_565 S
H560   C149    1.099   1_565 S
O561   C562    1.403   .     S
C562   H564    1.116   .     S
C562   H563    1.103   .     S
C562   C565    1.501   .     S
C565   H566    1.098   .     S
H567   C157    1.107   1_565 S
H568   C157    1.106   1_565 S
O569   C570    1.407   .     S
C570   C573    1.503   .     S
C570   H572    1.092   .     S
C570   H571    1.117   .     S
C573   H575    1.107   .     S
C573   H576    1.092   .     S
C573   H574    1.102   .     S
C578   C581    1.511   .     S
C578   H579    1.094   .     S
C578   H580    1.074   .     S
C578   O169    1.409   1_565 S
C581   H583    1.111   .     S
C581   H584    1.090   .     S
C581   H582    1.102   .     S
O585   C178    1.405   1_565 S
C586   H588    1.093   .     S
C586   C589    1.512   .     S
H587   C178    1.081   1_565 S
C589   H590    1.111   .     S
C589   H591    1.105   .     S
C589   H592    1.093   .     S
O593   C594    1.411   .     S
C594   H595    1.094   .     S
C594   H596    1.102   .     S
C597   H598    1.107   .     S
C597   H600    1.106   .     S
C597   H599    1.101   .     S
C597   C186    1.544   1_565 S
O601   C602    1.423   .     S
C602   H604    1.096   .     S
C602   H603    1.081   .     S
C602   C197    1.541   1_565 S
C605   H606    1.105   .     S
C605   H608    1.110   .     S
C605   H607    1.105   .     S
I609   C107    2.116   1_565 S
I611   N1147   2.059   .     S
I612   N1760   2.069   1_554 S
C613   C617    1.472   .     S
C613   O639    1.332   .     A
C613   O641    1.355   .     A
C614   C618    1.475   .     S
C614   O642    1.355   .     A
C614   O640    1.332   .     A
C615   C632    1.420   .     A
C615   O695    1.381   .     S
C615   C735    1.428   1_455 S
C616   C631    1.430   .     A
C616   O703    1.398   .     S
C616   C736    1.444   .     S
C617   C1026   1.372   1_545 S
C617   I1119   2.116   1_545 S
C618   C821    1.372   .     S
C618   I916    2.128   .     S
C619   O645    1.344   .     A
C619   C624    1.520   .     S
C619   O643    1.362   .     A
C620   O644    1.359   .     A
C620   O646    1.342   .     A
C620   C623    1.512   .     S
C621   C631    1.439   .     A
C621   C623    1.417   .     A
C621   O647    1.382   .     S
C622   C632    1.436   .     A
C622   C624    1.415   .     A
C622   O655    1.382   .     S
C623   C625    1.399   .     A
C624   C626    1.408   .     A
C625   O663    1.372   .     S
C625   C627    1.429   .     A
C626   O671    1.372   .     S
C626   C628    1.438   .     A
C627   C629    1.421   .     A
C627   C633    1.422   .     A
C628   C634    1.422   .     A
C628   C630    1.413   .     A
C629   C631    1.426   .     A
C629   C732    1.432   .     S
C630   C632    1.418   .     A
C630   C731    1.432   1_455 S
C633   O679    1.408   .     S
C633   C717    1.428   .     S
C634   O687    1.400   .     S
C634   C718    1.444   1_455 S
Cu635  N638    2.128   .     S
Cu635  O639    2.016   .     S
Cu635  O642    2.018   .     S
Cu635  O646    2.010   .     S
Cu635  O643    2.033   .     S
Cu636  O641    2.018   .     S
Cu636  N637    2.128   .     S
Cu636  O644    2.033   .     S
Cu636  O640    2.016   .     S
Cu636  O645    2.010   .     S
N638   N1249   1.354   .     S
N638   I1326   2.069   .     S
O647   C648    1.407   .     S
C648   H649    1.092   .     S
C648   C651    1.519   .     S
C648   H650    1.108   .     S
C651   H856    1.090   .     S
C651   H857    1.103   .     S
C651   H858    1.104   .     S
H652   C1059   1.090   1_545 S
H653   C1059   1.103   1_545 S
H654   C1059   1.104   1_545 S
O655   C656    1.400   .     S
C656   H657    1.097   .     S
C656   H658    1.114   .     S
C656   C659    1.528   .     S
C659   H1068   1.101   1_545 S
C659   H1069   1.103   1_545 S
C659   H1070   1.099   1_545 S
H660   C863    1.101   .     S
H661   C863    1.103   .     S
H662   C863    1.099   .     S
O663   C664    1.403   .     S
C664   H666    1.116   .     S
C664   H665    1.103   .     S
C664   C667    1.501   .     S
C667   H668    1.098   .     S
C667   H1077   1.107   1_545 S
C667   H1078   1.106   1_545 S
H669   C871    1.107   .     S
H670   C871    1.106   .     S
O671   C672    1.407   .     S
C672   C675    1.503   .     S
C672   H674    1.092   .     S
C672   H673    1.117   .     S
C675   H677    1.107   .     S
C675   H678    1.092   .     S
C675   H676    1.102   .     S
O679   C1088   1.409   1_545 S
C680   C683    1.511   .     S
C680   H681    1.094   .     S
C680   H682    1.074   .     S
C680   O883    1.409   .     S
C683   H685    1.111   .     S
C683   H686    1.090   .     S
C683   H684    1.102   .     S
O687   C892    1.405   .     S
C688   H690    1.093   .     S
C688   C691    1.512   .     S
C688   O1095   1.405   1_545 S
C688   H1097   1.081   1_545 S
H689   C892    1.081   .     S
C691   H692    1.111   .     S
C691   H693    1.105   .     S
C691   H694    1.093   .     S
O695   C696    1.411   .     S
C696   H697    1.094   .     S
C696   H698    1.102   .     S
C696   C1107   1.544   1_545 S
C699   H700    1.107   .     S
C699   H702    1.106   .     S
C699   H701    1.101   .     S
C699   C900    1.544   .     S
O703   C704    1.423   .     S
C704   H706    1.096   .     S
C704   H705    1.081   .     S
C704   C911    1.541   .     S
C707   H708    1.105   .     S
C707   H710    1.110   .     S
C707   H709    1.105   .     S
C707   C1112   1.541   1_545 S
I711   C821    2.116   .     S
I712   C1026   2.128   1_545 S
I713   N1249   2.059   .     S
C715   C719    1.472   .     S
C715   O741    1.332   .     A
C715   O743    1.355   .     A
C716   C720    1.475   .     S
C716   O744    1.355   .     A
C716   O742    1.332   .     A
C717   C734    1.420   .     A
C717   O797    1.381   .     S
C718   C733    1.430   .     A
C718   O805    1.398   .     S
C718   C634    1.444   1_655 S
C719   C1128   1.372   1_545 S
C719   I1221   2.116   1_545 S
C720   C923    1.372   .     S
C720   I1018   2.128   .     S
C721   O747    1.344   .     A
C721   C726    1.520   .     S
C721   O745    1.362   .     A
C722   O746    1.359   .     A
C722   O748    1.342   .     A
C722   C725    1.512   .     S
C723   C733    1.439   .     A
C723   C725    1.417   .     A
C723   O749    1.382   .     S
C724   C734    1.436   .     A
C724   C726    1.415   .     A
C724   O757    1.382   .     S
C725   C727    1.399   .     A
C726   C728    1.408   .     A
C727   O765    1.372   .     S
C727   C729    1.429   .     A
C728   O773    1.372   .     S
C728   C730    1.438   .     A
C729   C731    1.421   .     A
C729   C735    1.422   .     A
C730   C736    1.422   .     A
C730   C732    1.413   .     A
C731   C733    1.426   .     A
C731   C630    1.432   1_655 S
C732   C734    1.418   .     A
C735   O781    1.408   .     S
C735   C615    1.428   1_655 S
C736   O789    1.400   .     S
Cu737  N740    2.128   .     S
Cu737  O741    2.016   .     S
Cu737  O744    2.018   .     S
Cu737  O748    2.010   .     S
Cu737  O745    2.033   .     S
Cu738  O743    2.018   .     S
Cu738  N739    2.128   .     S
Cu738  O746    2.033   .     S
Cu738  O742    2.016   .     S
Cu738  O747    2.010   .     S
N740   N1351   1.354   .     S
N740   I1428   2.069   .     S
O749   C750    1.407   .     S
C750   H751    1.092   .     S
C750   C753    1.519   .     S
C750   H752    1.108   .     S
C753   H958    1.090   .     S
C753   H959    1.103   .     S
C753   H960    1.104   .     S
H754   C1161   1.090   1_545 S
H755   C1161   1.103   1_545 S
H756   C1161   1.104   1_545 S
O757   C758    1.400   .     S
C758   H759    1.097   .     S
C758   H760    1.114   .     S
C758   C761    1.528   .     S
C761   H1170   1.101   1_545 S
C761   H1171   1.103   1_545 S
C761   H1172   1.099   1_545 S
H762   C965    1.101   .     S
H763   C965    1.103   .     S
H764   C965    1.099   .     S
O765   C766    1.403   .     S
C766   H768    1.116   .     S
C766   H767    1.103   .     S
C766   C769    1.501   .     S
C769   H770    1.098   .     S
C769   H1179   1.107   1_545 S
C769   H1180   1.106   1_545 S
H771   C973    1.107   .     S
H772   C973    1.106   .     S
O773   C774    1.407   .     S
C774   C777    1.503   .     S
C774   H776    1.092   .     S
C774   H775    1.117   .     S
C777   H779    1.107   .     S
C777   H780    1.092   .     S
C777   H778    1.102   .     S
O781   C1190   1.409   1_545 S
C782   C785    1.511   .     S
C782   H783    1.094   .     S
C782   H784    1.074   .     S
C782   O985    1.409   .     S
C785   H787    1.111   .     S
C785   H788    1.090   .     S
C785   H786    1.102   .     S
O789   C994    1.405   .     S
C790   H792    1.093   .     S
C790   C793    1.512   .     S
C790   O1197   1.405   1_545 S
C790   H1199   1.081   1_545 S
H791   C994    1.081   .     S
C793   H794    1.111   .     S
C793   H795    1.105   .     S
C793   H796    1.093   .     S
O797   C798    1.411   .     S
C798   H799    1.094   .     S
C798   H800    1.102   .     S
C798   C1209   1.544   1_545 S
C801   H802    1.107   .     S
C801   H804    1.106   .     S
C801   H803    1.101   .     S
C801   C1002   1.544   .     S
O805   C806    1.423   .     S
C806   H808    1.096   .     S
C806   H807    1.081   .     S
C806   C1013   1.541   .     S
C809   H810    1.105   .     S
C809   H812    1.110   .     S
C809   H811    1.105   .     S
C809   C1214   1.541   1_545 S
I813   C923    2.116   .     S
I814   C1128   2.128   1_545 S
I815   N1351   2.059   .     S
C817   C821    1.472   .     S
C817   O843    1.332   .     A
C817   O845    1.355   .     A
C818   C822    1.475   .     S
C818   O846    1.355   .     A
C818   O844    1.332   .     A
C819   C836    1.420   .     A
C819   O899    1.381   .     S
C819   C939    1.428   1_455 S
C820   C835    1.430   .     A
C820   O907    1.398   .     S
C820   C940    1.444   .     S
C822   C1025   1.372   .     S
C822   I1120   2.128   .     S
C823   O849    1.344   .     A
C823   C828    1.520   .     S
C823   O847    1.362   .     A
C824   O848    1.359   .     A
C824   O850    1.342   .     A
C824   C827    1.512   .     S
C825   C835    1.439   .     A
C825   C827    1.417   .     A
C825   O851    1.382   .     S
C826   C836    1.436   .     A
C826   C828    1.415   .     A
C826   O859    1.382   .     S
C827   C829    1.399   .     A
C828   C830    1.408   .     A
C829   O867    1.372   .     S
C829   C831    1.429   .     A
C830   O875    1.372   .     S
C830   C832    1.438   .     A
C831   C833    1.421   .     A
C831   C837    1.422   .     A
C832   C838    1.422   .     A
C832   C834    1.413   .     A
C833   C835    1.426   .     A
C833   C936    1.432   .     S
C834   C836    1.418   .     A
C834   C935    1.432   1_455 S
C837   O883    1.408   .     S
C837   C921    1.428   .     S
C838   O891    1.400   .     S
C838   C922    1.444   1_455 S
Cu839  N842    2.128   .     S
Cu839  O843    2.016   .     S
Cu839  O846    2.018   .     S
Cu839  O850    2.010   .     S
Cu839  O847    2.033   .     S
Cu840  O845    2.018   .     S
Cu840  N841    2.128   .     S
Cu840  O848    2.033   .     S
Cu840  O844    2.016   .     S
Cu840  O849    2.010   .     S
N842   N1453   1.354   .     S
N842   I1530   2.069   .     S
O851   C852    1.407   .     S
C852   H853    1.092   .     S
C852   C855    1.519   .     S
C852   H854    1.108   .     S
C855   H1060   1.090   .     S
C855   H1061   1.103   .     S
C855   H1062   1.104   .     S
O859   C860    1.400   .     S
C860   H861    1.097   .     S
C860   H862    1.114   .     S
C860   C863    1.528   .     S
H864   C1067   1.101   .     S
H865   C1067   1.103   .     S
H866   C1067   1.099   .     S
O867   C868    1.403   .     S
C868   H870    1.116   .     S
C868   H869    1.103   .     S
C868   C871    1.501   .     S
C871   H872    1.098   .     S
H873   C1075   1.107   .     S
H874   C1075   1.106   .     S
O875   C876    1.407   .     S
C876   C879    1.503   .     S
C876   H878    1.092   .     S
C876   H877    1.117   .     S
C879   H881    1.107   .     S
C879   H882    1.092   .     S
C879   H880    1.102   .     S
C884   C887    1.511   .     S
C884   H885    1.094   .     S
C884   H886    1.074   .     S
C884   O1087   1.409   .     S
C887   H889    1.111   .     S
C887   H890    1.090   .     S
C887   H888    1.102   .     S
O891   C1096   1.405   .     S
C892   H894    1.093   .     S
C892   C895    1.512   .     S
H893   C1096   1.081   .     S
C895   H896    1.111   .     S
C895   H897    1.105   .     S
C895   H898    1.093   .     S
O899   C900    1.411   .     S
C900   H901    1.094   .     S
C900   H902    1.102   .     S
C903   H904    1.107   .     S
C903   H906    1.106   .     S
C903   H905    1.101   .     S
C903   C1104   1.544   .     S
O907   C908    1.423   .     S
C908   H910    1.096   .     S
C908   H909    1.081   .     S
C908   C1115   1.541   .     S
C911   H912    1.105   .     S
C911   H914    1.110   .     S
C911   H913    1.105   .     S
I915   C1025   2.116   .     S
I917   N1453   2.059   .     S
C919   C923    1.472   .     S
C919   O945    1.332   .     A
C919   O947    1.355   .     A
C920   C924    1.475   .     S
C920   O948    1.355   .     A
C920   O946    1.332   .     A
C921   C938    1.420   .     A
C921   O1001   1.381   .     S
C922   C937    1.430   .     A
C922   O1009   1.398   .     S
C922   C838    1.444   1_655 S
C924   C1127   1.372   .     S
C924   I1222   2.128   .     S
C925   O951    1.344   .     A
C925   C930    1.520   .     S
C925   O949    1.362   .     A
C926   O950    1.359   .     A
C926   O952    1.342   .     A
C926   C929    1.512   .     S
C927   C937    1.439   .     A
C927   C929    1.417   .     A
C927   O953    1.382   .     S
C928   C938    1.436   .     A
C928   C930    1.415   .     A
C928   O961    1.382   .     S
C929   C931    1.399   .     A
C930   C932    1.408   .     A
C931   O969    1.372   .     S
C931   C933    1.429   .     A
C932   O977    1.372   .     S
C932   C934    1.438   .     A
C933   C935    1.421   .     A
C933   C939    1.422   .     A
C934   C940    1.422   .     A
C934   C936    1.413   .     A
C935   C937    1.426   .     A
C935   C834    1.432   1_655 S
C936   C938    1.418   .     A
C939   O985    1.408   .     S
C939   C819    1.428   1_655 S
C940   O993    1.400   .     S
Cu941  N944    2.128   .     S
Cu941  O945    2.016   .     S
Cu941  O948    2.018   .     S
Cu941  O952    2.010   .     S
Cu941  O949    2.033   .     S
Cu942  O947    2.018   .     S
Cu942  N943    2.128   .     S
Cu942  O950    2.033   .     S
Cu942  O946    2.016   .     S
Cu942  O951    2.010   .     S
N944   N1555   1.354   .     S
N944   I1632   2.069   .     S
O953   C954    1.407   .     S
C954   H955    1.092   .     S
C954   C957    1.519   .     S
C954   H956    1.108   .     S
C957   H1162   1.090   .     S
C957   H1163   1.103   .     S
C957   H1164   1.104   .     S
O961   C962    1.400   .     S
C962   H963    1.097   .     S
C962   H964    1.114   .     S
C962   C965    1.528   .     S
H966   C1169   1.101   .     S
H967   C1169   1.103   .     S
H968   C1169   1.099   .     S
O969   C970    1.403   .     S
C970   H972    1.116   .     S
C970   H971    1.103   .     S
C970   C973    1.501   .     S
C973   H974    1.098   .     S
H975   C1177   1.107   .     S
H976   C1177   1.106   .     S
O977   C978    1.407   .     S
C978   C981    1.503   .     S
C978   H980    1.092   .     S
C978   H979    1.117   .     S
C981   H983    1.107   .     S
C981   H984    1.092   .     S
C981   H982    1.102   .     S
C986   C989    1.511   .     S
C986   H987    1.094   .     S
C986   H988    1.074   .     S
C986   O1189   1.409   .     S
C989   H991    1.111   .     S
C989   H992    1.090   .     S
C989   H990    1.102   .     S
O993   C1198   1.405   .     S
C994   H996    1.093   .     S
C994   C997    1.512   .     S
H995   C1198   1.081   .     S
C997   H998    1.111   .     S
C997   H999    1.105   .     S
C997   H1000   1.093   .     S
O1001  C1002   1.411   .     S
C1002  H1003   1.094   .     S
C1002  H1004   1.102   .     S
C1005  H1006   1.107   .     S
C1005  H1008   1.106   .     S
C1005  H1007   1.101   .     S
C1005  C1206   1.544   .     S
O1009  C1010   1.423   .     S
C1010  H1012   1.096   .     S
C1010  H1011   1.081   .     S
C1010  C1217   1.541   .     S
C1013  H1014   1.105   .     S
C1013  H1016   1.110   .     S
C1013  H1015   1.105   .     S
I1017  C1127   2.116   .     S
I1019  N1555   2.059   .     S
C1021  C1025   1.472   .     S
C1021  O1047   1.332   .     A
C1021  O1049   1.355   .     A
C1022  C1026   1.475   .     S
C1022  O1050   1.355   .     A
C1022  O1048   1.332   .     A
C1023  C1040   1.420   .     A
C1023  O1103   1.381   .     S
C1023  C1143   1.428   1_455 S
C1024  C1039   1.430   .     A
C1024  O1111   1.398   .     S
C1024  C1144   1.444   .     S
C1026  C617    1.372   1_565 S
C1026  I712    2.128   1_565 S
C1027  O1053   1.344   .     A
C1027  C1032   1.520   .     S
C1027  O1051   1.362   .     A
C1028  O1052   1.359   .     A
C1028  O1054   1.342   .     A
C1028  C1031   1.512   .     S
C1029  C1039   1.439   .     A
C1029  C1031   1.417   .     A
C1029  O1055   1.382   .     S
C1030  C1040   1.436   .     A
C1030  C1032   1.415   .     A
C1030  O1063   1.382   .     S
C1031  C1033   1.399   .     A
C1032  C1034   1.408   .     A
C1033  O1071   1.372   .     S
C1033  C1035   1.429   .     A
C1034  O1079   1.372   .     S
C1034  C1036   1.438   .     A
C1035  C1037   1.421   .     A
C1035  C1041   1.422   .     A
C1036  C1042   1.422   .     A
C1036  C1038   1.413   .     A
C1037  C1039   1.426   .     A
C1037  C1140   1.432   .     S
C1038  C1040   1.418   .     A
C1038  C1139   1.432   1_455 S
C1041  O1087   1.408   .     S
C1041  C1125   1.428   .     S
C1042  O1095   1.400   .     S
C1042  C1126   1.444   1_455 S
Cu1043 N1046   2.128   .     S
Cu1043 O1047   2.016   .     S
Cu1043 O1050   2.018   .     S
Cu1043 O1054   2.010   .     S
Cu1043 O1051   2.033   .     S
Cu1044 O1049   2.018   .     S
Cu1044 N1045   2.128   .     S
Cu1044 O1052   2.033   .     S
Cu1044 O1048   2.016   .     S
Cu1044 O1053   2.010   .     S
N1046  N1657   1.354   .     S
N1046  I1734   2.069   .     S
O1055  C1056   1.407   .     S
C1056  H1057   1.092   .     S
C1056  C1059   1.519   .     S
C1056  H1058   1.108   .     S
C1059  H652    1.090   1_565 S
C1059  H653    1.103   1_565 S
C1059  H654    1.104   1_565 S
O1063  C1064   1.400   .     S
C1064  H1065   1.097   .     S
C1064  H1066   1.114   .     S
C1064  C1067   1.528   .     S
H1068  C659    1.101   1_565 S
H1069  C659    1.103   1_565 S
H1070  C659    1.099   1_565 S
O1071  C1072   1.403   .     S
C1072  H1074   1.116   .     S
C1072  H1073   1.103   .     S
C1072  C1075   1.501   .     S
C1075  H1076   1.098   .     S
H1077  C667    1.107   1_565 S
H1078  C667    1.106   1_565 S
O1079  C1080   1.407   .     S
C1080  C1083   1.503   .     S
C1080  H1082   1.092   .     S
C1080  H1081   1.117   .     S
C1083  H1085   1.107   .     S
C1083  H1086   1.092   .     S
C1083  H1084   1.102   .     S
C1088  C1091   1.511   .     S
C1088  H1089   1.094   .     S
C1088  H1090   1.074   .     S
C1088  O679    1.409   1_565 S
C1091  H1093   1.111   .     S
C1091  H1094   1.090   .     S
C1091  H1092   1.102   .     S
O1095  C688    1.405   1_565 S
C1096  H1098   1.093   .     S
C1096  C1099   1.512   .     S
H1097  C688    1.081   1_565 S
C1099  H1100   1.111   .     S
C1099  H1101   1.105   .     S
C1099  H1102   1.093   .     S
O1103  C1104   1.411   .     S
C1104  H1105   1.094   .     S
C1104  H1106   1.102   .     S
C1107  H1108   1.107   .     S
C1107  H1110   1.106   .     S
C1107  H1109   1.101   .     S
C1107  C696    1.544   1_565 S
O1111  C1112   1.423   .     S
C1112  H1114   1.096   .     S
C1112  H1113   1.081   .     S
C1112  C707    1.541   1_565 S
C1115  H1116   1.105   .     S
C1115  H1118   1.110   .     S
C1115  H1117   1.105   .     S
I1119  C617    2.116   1_565 S
I1121  N1657   2.059   .     S
C1123  C1127   1.472   .     S
C1123  O1149   1.332   .     A
C1123  O1151   1.355   .     A
C1124  C1128   1.475   .     S
C1124  O1152   1.355   .     A
C1124  O1150   1.332   .     A
C1125  C1142   1.420   .     A
C1125  O1205   1.381   .     S
C1126  C1141   1.430   .     A
C1126  O1213   1.398   .     S
C1126  C1042   1.444   1_655 S
C1128  C719    1.372   1_565 S
C1128  I814    2.128   1_565 S
C1129  O1155   1.344   .     A
C1129  C1134   1.520   .     S
C1129  O1153   1.362   .     A
C1130  O1154   1.359   .     A
C1130  O1156   1.342   .     A
C1130  C1133   1.512   .     S
C1131  C1141   1.439   .     A
C1131  C1133   1.417   .     A
C1131  O1157   1.382   .     S
C1132  C1142   1.436   .     A
C1132  C1134   1.415   .     A
C1132  O1165   1.382   .     S
C1133  C1135   1.399   .     A
C1134  C1136   1.408   .     A
C1135  O1173   1.372   .     S
C1135  C1137   1.429   .     A
C1136  O1181   1.372   .     S
C1136  C1138   1.438   .     A
C1137  C1139   1.421   .     A
C1137  C1143   1.422   .     A
C1138  C1144   1.422   .     A
C1138  C1140   1.413   .     A
C1139  C1141   1.426   .     A
C1139  C1038   1.432   1_655 S
C1140  C1142   1.418   .     A
C1143  O1189   1.408   .     S
C1143  C1023   1.428   1_655 S
C1144  O1197   1.400   .     S
Cu1145 N1148   2.128   .     S
Cu1145 O1149   2.016   .     S
Cu1145 O1152   2.018   .     S
Cu1145 O1156   2.010   .     S
Cu1145 O1153   2.033   .     S
Cu1146 O1151   2.018   .     S
Cu1146 N1147   2.128   .     S
Cu1146 O1154   2.033   .     S
Cu1146 O1150   2.016   .     S
Cu1146 O1155   2.010   .     S
N1148  N1759   1.354   .     S
N1148  I1836   2.069   .     S
O1157  C1158   1.407   .     S
C1158  H1159   1.092   .     S
C1158  C1161   1.519   .     S
C1158  H1160   1.108   .     S
C1161  H754    1.090   1_565 S
C1161  H755    1.103   1_565 S
C1161  H756    1.104   1_565 S
O1165  C1166   1.400   .     S
C1166  H1167   1.097   .     S
C1166  H1168   1.114   .     S
C1166  C1169   1.528   .     S
H1170  C761    1.101   1_565 S
H1171  C761    1.103   1_565 S
H1172  C761    1.099   1_565 S
O1173  C1174   1.403   .     S
C1174  H1176   1.116   .     S
C1174  H1175   1.103   .     S
C1174  C1177   1.501   .     S
C1177  H1178   1.098   .     S
H1179  C769    1.107   1_565 S
H1180  C769    1.106   1_565 S
O1181  C1182   1.407   .     S
C1182  C1185   1.503   .     S
C1182  H1184   1.092   .     S
C1182  H1183   1.117   .     S
C1185  H1187   1.107   .     S
C1185  H1188   1.092   .     S
C1185  H1186   1.102   .     S
C1190  C1193   1.511   .     S
C1190  H1191   1.094   .     S
C1190  H1192   1.074   .     S
C1190  O781    1.409   1_565 S
C1193  H1195   1.111   .     S
C1193  H1196   1.090   .     S
C1193  H1194   1.102   .     S
O1197  C790    1.405   1_565 S
C1198  H1200   1.093   .     S
C1198  C1201   1.512   .     S
H1199  C790    1.081   1_565 S
C1201  H1202   1.111   .     S
C1201  H1203   1.105   .     S
C1201  H1204   1.093   .     S
O1205  C1206   1.411   .     S
C1206  H1207   1.094   .     S
C1206  H1208   1.102   .     S
C1209  H1210   1.107   .     S
C1209  H1212   1.106   .     S
C1209  H1211   1.101   .     S
C1209  C798    1.544   1_565 S
O1213  C1214   1.423   .     S
C1214  H1216   1.096   .     S
C1214  H1215   1.081   .     S
C1214  C809    1.541   1_565 S
C1217  H1218   1.105   .     S
C1217  H1220   1.110   .     S
C1217  H1219   1.105   .     S
I1221  C719    2.116   1_565 S
I1223  N1759   2.059   .     S
C1225  C1229   1.472   .     S
C1225  O1251   1.332   .     A
C1225  O1253   1.355   .     A
C1226  C1230   1.475   .     S
C1226  O1254   1.355   .     A
C1226  O1252   1.332   .     A
C1227  C1244   1.420   .     A
C1227  O1307   1.381   .     S
C1227  C1347   1.428   1_455 S
C1228  C1243   1.430   .     A
C1228  O1315   1.398   .     S
C1228  C1348   1.444   .     S
C1229  C1638   1.372   1_545 S
C1229  I1731   2.116   1_545 S
C1230  C1433   1.372   .     S
C1230  I1528   2.128   .     S
C1231  O1257   1.344   .     A
C1231  C1236   1.520   .     S
C1231  O1255   1.362   .     A
C1232  O1256   1.359   .     A
C1232  O1258   1.342   .     A
C1232  C1235   1.512   .     S
C1233  C1243   1.439   .     A
C1233  C1235   1.417   .     A
C1233  O1259   1.382   .     S
C1234  C1244   1.436   .     A
C1234  C1236   1.415   .     A
C1234  O1267   1.382   .     S
C1235  C1237   1.399   .     A
C1236  C1238   1.408   .     A
C1237  O1275   1.372   .     S
C1237  C1239   1.429   .     A
C1238  O1283   1.372   .     S
C1238  C1240   1.438   .     A
C1239  C1241   1.421   .     A
C1239  C1245   1.422   .     A
C1240  C1246   1.422   .     A
C1240  C1242   1.413   .     A
C1241  C1243   1.426   .     A
C1241  C1344   1.432   .     S
C1242  C1244   1.418   .     A
C1242  C1343   1.432   1_455 S
C1245  O1291   1.408   .     S
C1245  C1329   1.428   .     S
C1246  O1299   1.400   .     S
C1246  C1330   1.444   1_455 S
Cu1247 N1250   2.128   .     S
Cu1247 O1251   2.016   .     S
Cu1247 O1254   2.018   .     S
Cu1247 O1258   2.010   .     S
Cu1247 O1255   2.033   .     S
Cu1248 O1253   2.018   .     S
Cu1248 N1249   2.128   .     S
Cu1248 O1256   2.033   .     S
Cu1248 O1252   2.016   .     S
Cu1248 O1257   2.010   .     S
N1250  N25     1.354   1_556 S
N1250  I102    2.069   1_556 S
O1259  C1260   1.407   .     S
C1260  H1261   1.092   .     S
C1260  C1263   1.519   .     S
C1260  H1262   1.108   .     S
C1263  H1468   1.090   .     S
C1263  H1469   1.103   .     S
C1263  H1470   1.104   .     S
H1264  C1671   1.090   1_545 S
H1265  C1671   1.103   1_545 S
H1266  C1671   1.104   1_545 S
O1267  C1268   1.400   .     S
C1268  H1269   1.097   .     S
C1268  H1270   1.114   .     S
C1268  C1271   1.528   .     S
C1271  H1680   1.101   1_545 S
C1271  H1681   1.103   1_545 S
C1271  H1682   1.099   1_545 S
H1272  C1475   1.101   .     S
H1273  C1475   1.103   .     S
H1274  C1475   1.099   .     S
O1275  C1276   1.403   .     S
C1276  H1278   1.116   .     S
C1276  H1277   1.103   .     S
C1276  C1279   1.501   .     S
C1279  H1280   1.098   .     S
C1279  H1689   1.107   1_545 S
C1279  H1690   1.106   1_545 S
H1281  C1483   1.107   .     S
H1282  C1483   1.106   .     S
O1283  C1284   1.407   .     S
C1284  C1287   1.503   .     S
C1284  H1286   1.092   .     S
C1284  H1285   1.117   .     S
C1287  H1289   1.107   .     S
C1287  H1290   1.092   .     S
C1287  H1288   1.102   .     S
O1291  C1700   1.409   1_545 S
C1292  C1295   1.511   .     S
C1292  H1293   1.094   .     S
C1292  H1294   1.074   .     S
C1292  O1495   1.409   .     S
C1295  H1297   1.111   .     S
C1295  H1298   1.090   .     S
C1295  H1296   1.102   .     S
O1299  C1504   1.405   .     S
C1300  H1302   1.093   .     S
C1300  C1303   1.512   .     S
C1300  O1707   1.405   1_545 S
C1300  H1709   1.081   1_545 S
H1301  C1504   1.081   .     S
C1303  H1304   1.111   .     S
C1303  H1305   1.105   .     S
C1303  H1306   1.093   .     S
O1307  C1308   1.411   .     S
C1308  H1309   1.094   .     S
C1308  H1310   1.102   .     S
C1308  C1719   1.544   1_545 S
C1311  H1312   1.107   .     S
C1311  H1314   1.106   .     S
C1311  H1313   1.101   .     S
C1311  C1512   1.544   .     S
O1315  C1316   1.423   .     S
C1316  H1318   1.096   .     S
C1316  H1317   1.081   .     S
C1316  C1523   1.541   .     S
C1319  H1320   1.105   .     S
C1319  H1322   1.110   .     S
C1319  H1321   1.105   .     S
C1319  C1724   1.541   1_545 S
I1323  C1433   2.116   .     S
I1324  C1638   2.128   1_545 S
I1325  N25     2.059   1_556 S
C1327  C1331   1.472   .     S
C1327  O1353   1.332   .     A
C1327  O1355   1.355   .     A
C1328  C1332   1.475   .     S
C1328  O1356   1.355   .     A
C1328  O1354   1.332   .     A
C1329  C1346   1.420   .     A
C1329  O1409   1.381   .     S
C1330  C1345   1.430   .     A
C1330  O1417   1.398   .     S
C1330  C1246   1.444   1_655 S
C1331  C1740   1.372   1_545 S
C1331  I1833   2.116   1_545 S
C1332  C1535   1.372   .     S
C1332  I1630   2.128   .     S
C1333  O1359   1.344   .     A
C1333  C1338   1.520   .     S
C1333  O1357   1.362   .     A
C1334  O1358   1.359   .     A
C1334  O1360   1.342   .     A
C1334  C1337   1.512   .     S
C1335  C1345   1.439   .     A
C1335  C1337   1.417   .     A
C1335  O1361   1.382   .     S
C1336  C1346   1.436   .     A
C1336  C1338   1.415   .     A
C1336  O1369   1.382   .     S
C1337  C1339   1.399   .     A
C1338  C1340   1.408   .     A
C1339  O1377   1.372   .     S
C1339  C1341   1.429   .     A
C1340  O1385   1.372   .     S
C1340  C1342   1.438   .     A
C1341  C1343   1.421   .     A
C1341  C1347   1.422   .     A
C1342  C1348   1.422   .     A
C1342  C1344   1.413   .     A
C1343  C1345   1.426   .     A
C1343  C1242   1.432   1_655 S
C1344  C1346   1.418   .     A
C1347  O1393   1.408   .     S
C1347  C1227   1.428   1_655 S
C1348  O1401   1.400   .     S
Cu1349 N1352   2.128   .     S
Cu1349 O1353   2.016   .     S
Cu1349 O1356   2.018   .     S
Cu1349 O1360   2.010   .     S
Cu1349 O1357   2.033   .     S
Cu1350 O1355   2.018   .     S
Cu1350 N1351   2.128   .     S
Cu1350 O1358   2.033   .     S
Cu1350 O1354   2.016   .     S
Cu1350 O1359   2.010   .     S
N1352  N127    1.354   1_556 S
N1352  I204    2.069   1_556 S
O1361  C1362   1.407   .     S
C1362  H1363   1.092   .     S
C1362  C1365   1.519   .     S
C1362  H1364   1.108   .     S
C1365  H1570   1.090   .     S
C1365  H1571   1.103   .     S
C1365  H1572   1.104   .     S
H1366  C1773   1.090   1_545 S
H1367  C1773   1.103   1_545 S
H1368  C1773   1.104   1_545 S
O1369  C1370   1.400   .     S
C1370  H1371   1.097   .     S
C1370  H1372   1.114   .     S
C1370  C1373   1.528   .     S
C1373  H1782   1.101   1_545 S
C1373  H1783   1.103   1_545 S
C1373  H1784   1.099   1_545 S
H1374  C1577   1.101   .     S
H1375  C1577   1.103   .     S
H1376  C1577   1.099   .     S
O1377  C1378   1.403   .     S
C1378  H1380   1.116   .     S
C1378  H1379   1.103   .     S
C1378  C1381   1.501   .     S
C1381  H1382   1.098   .     S
C1381  H1791   1.107   1_545 S
C1381  H1792   1.106   1_545 S
H1383  C1585   1.107   .     S
H1384  C1585   1.106   .     S
O1385  C1386   1.407   .     S
C1386  C1389   1.503   .     S
C1386  H1388   1.092   .     S
C1386  H1387   1.117   .     S
C1389  H1391   1.107   .     S
C1389  H1392   1.092   .     S
C1389  H1390   1.102   .     S
O1393  C1802   1.409   1_545 S
C1394  C1397   1.511   .     S
C1394  H1395   1.094   .     S
C1394  H1396   1.074   .     S
C1394  O1597   1.409   .     S
C1397  H1399   1.111   .     S
C1397  H1400   1.090   .     S
C1397  H1398   1.102   .     S
O1401  C1606   1.405   .     S
C1402  H1404   1.093   .     S
C1402  C1405   1.512   .     S
C1402  O1809   1.405   1_545 S
C1402  H1811   1.081   1_545 S
H1403  C1606   1.081   .     S
C1405  H1406   1.111   .     S
C1405  H1407   1.105   .     S
C1405  H1408   1.093   .     S
O1409  C1410   1.411   .     S
C1410  H1411   1.094   .     S
C1410  H1412   1.102   .     S
C1410  C1821   1.544   1_545 S
C1413  H1414   1.107   .     S
C1413  H1416   1.106   .     S
C1413  H1415   1.101   .     S
C1413  C1614   1.544   .     S
O1417  C1418   1.423   .     S
C1418  H1420   1.096   .     S
C1418  H1419   1.081   .     S
C1418  C1625   1.541   .     S
C1421  H1422   1.105   .     S
C1421  H1424   1.110   .     S
C1421  H1423   1.105   .     S
C1421  C1826   1.541   1_545 S
I1425  C1535   2.116   .     S
I1426  C1740   2.128   1_545 S
I1427  N127    2.059   1_556 S
C1429  C1433   1.472   .     S
C1429  O1455   1.332   .     A
C1429  O1457   1.355   .     A
C1430  C1434   1.475   .     S
C1430  O1458   1.355   .     A
C1430  O1456   1.332   .     A
C1431  C1448   1.420   .     A
C1431  O1511   1.381   .     S
C1431  C1551   1.428   1_455 S
C1432  C1447   1.430   .     A
C1432  O1519   1.398   .     S
C1432  C1552   1.444   .     S
C1434  C1637   1.372   .     S
C1434  I1732   2.128   .     S
C1435  O1461   1.344   .     A
C1435  C1440   1.520   .     S
C1435  O1459   1.362   .     A
C1436  O1460   1.359   .     A
C1436  O1462   1.342   .     A
C1436  C1439   1.512   .     S
C1437  C1447   1.439   .     A
C1437  C1439   1.417   .     A
C1437  O1463   1.382   .     S
C1438  C1448   1.436   .     A
C1438  C1440   1.415   .     A
C1438  O1471   1.382   .     S
C1439  C1441   1.399   .     A
C1440  C1442   1.408   .     A
C1441  O1479   1.372   .     S
C1441  C1443   1.429   .     A
C1442  O1487   1.372   .     S
C1442  C1444   1.438   .     A
C1443  C1445   1.421   .     A
C1443  C1449   1.422   .     A
C1444  C1450   1.422   .     A
C1444  C1446   1.413   .     A
C1445  C1447   1.426   .     A
C1445  C1548   1.432   .     S
C1446  C1448   1.418   .     A
C1446  C1547   1.432   1_455 S
C1449  O1495   1.408   .     S
C1449  C1533   1.428   .     S
C1450  O1503   1.400   .     S
C1450  C1534   1.444   1_455 S
Cu1451 N1454   2.128   .     S
Cu1451 O1455   2.016   .     S
Cu1451 O1458   2.018   .     S
Cu1451 O1462   2.010   .     S
Cu1451 O1459   2.033   .     S
Cu1452 O1457   2.018   .     S
Cu1452 N1453   2.128   .     S
Cu1452 O1460   2.033   .     S
Cu1452 O1456   2.016   .     S
Cu1452 O1461   2.010   .     S
N1454  N229    1.354   1_556 S
N1454  I306    2.069   1_556 S
O1463  C1464   1.407   .     S
C1464  H1465   1.092   .     S
C1464  C1467   1.519   .     S
C1464  H1466   1.108   .     S
C1467  H1672   1.090   .     S
C1467  H1673   1.103   .     S
C1467  H1674   1.104   .     S
O1471  C1472   1.400   .     S
C1472  H1473   1.097   .     S
C1472  H1474   1.114   .     S
C1472  C1475   1.528   .     S
H1476  C1679   1.101   .     S
H1477  C1679   1.103   .     S
H1478  C1679   1.099   .     S
O1479  C1480   1.403   .     S
C1480  H1482   1.116   .     S
C1480  H1481   1.103   .     S
C1480  C1483   1.501   .     S
C1483  H1484   1.098   .     S
H1485  C1687   1.107   .     S
H1486  C1687   1.106   .     S
O1487  C1488   1.407   .     S
C1488  C1491   1.503   .     S
C1488  H1490   1.092   .     S
C1488  H1489   1.117   .     S
C1491  H1493   1.107   .     S
C1491  H1494   1.092   .     S
C1491  H1492   1.102   .     S
C1496  C1499   1.511   .     S
C1496  H1497   1.094   .     S
C1496  H1498   1.074   .     S
C1496  O1699   1.409   .     S
C1499  H1501   1.111   .     S
C1499  H1502   1.090   .     S
C1499  H1500   1.102   .     S
O1503  C1708   1.405   .     S
C1504  H1506   1.093   .     S
C1504  C1507   1.512   .     S
H1505  C1708   1.081   .     S
C1507  H1508   1.111   .     S
C1507  H1509   1.105   .     S
C1507  H1510   1.093   .     S
O1511  C1512   1.411   .     S
C1512  H1513   1.094   .     S
C1512  H1514   1.102   .     S
C1515  H1516   1.107   .     S
C1515  H1518   1.106   .     S
C1515  H1517   1.101   .     S
C1515  C1716   1.544   .     S
O1519  C1520   1.423   .     S
C1520  H1522   1.096   .     S
C1520  H1521   1.081   .     S
C1520  C1727   1.541   .     S
C1523  H1524   1.105   .     S
C1523  H1526   1.110   .     S
C1523  H1525   1.105   .     S
I1527  C1637   2.116   .     S
I1529  N229    2.059   1_556 S
C1531  C1535   1.472   .     S
C1531  O1557   1.332   .     A
C1531  O1559   1.355   .     A
C1532  C1536   1.475   .     S
C1532  O1560   1.355   .     A
C1532  O1558   1.332   .     A
C1533  C1550   1.420   .     A
C1533  O1613   1.381   .     S
C1534  C1549   1.430   .     A
C1534  O1621   1.398   .     S
C1534  C1450   1.444   1_655 S
C1536  C1739   1.372   .     S
C1536  I1834   2.128   .     S
C1537  O1563   1.344   .     A
C1537  C1542   1.520   .     S
C1537  O1561   1.362   .     A
C1538  O1562   1.359   .     A
C1538  O1564   1.342   .     A
C1538  C1541   1.512   .     S
C1539  C1549   1.439   .     A
C1539  C1541   1.417   .     A
C1539  O1565   1.382   .     S
C1540  C1550   1.436   .     A
C1540  C1542   1.415   .     A
C1540  O1573   1.382   .     S
C1541  C1543   1.399   .     A
C1542  C1544   1.408   .     A
C1543  O1581   1.372   .     S
C1543  C1545   1.429   .     A
C1544  O1589   1.372   .     S
C1544  C1546   1.438   .     A
C1545  C1547   1.421   .     A
C1545  C1551   1.422   .     A
C1546  C1552   1.422   .     A
C1546  C1548   1.413   .     A
C1547  C1549   1.426   .     A
C1547  C1446   1.432   1_655 S
C1548  C1550   1.418   .     A
C1551  O1597   1.408   .     S
C1551  C1431   1.428   1_655 S
C1552  O1605   1.400   .     S
Cu1553 N1556   2.128   .     S
Cu1553 O1557   2.016   .     S
Cu1553 O1560   2.018   .     S
Cu1553 O1564   2.010   .     S
Cu1553 O1561   2.033   .     S
Cu1554 O1559   2.018   .     S
Cu1554 N1555   2.128   .     S
Cu1554 O1562   2.033   .     S
Cu1554 O1558   2.016   .     S
Cu1554 O1563   2.010   .     S
N1556  N331    1.354   1_556 S
N1556  I408    2.069   1_556 S
O1565  C1566   1.407   .     S
C1566  H1567   1.092   .     S
C1566  C1569   1.519   .     S
C1566  H1568   1.108   .     S
C1569  H1774   1.090   .     S
C1569  H1775   1.103   .     S
C1569  H1776   1.104   .     S
O1573  C1574   1.400   .     S
C1574  H1575   1.097   .     S
C1574  H1576   1.114   .     S
C1574  C1577   1.528   .     S
H1578  C1781   1.101   .     S
H1579  C1781   1.103   .     S
H1580  C1781   1.099   .     S
O1581  C1582   1.403   .     S
C1582  H1584   1.116   .     S
C1582  H1583   1.103   .     S
C1582  C1585   1.501   .     S
C1585  H1586   1.098   .     S
H1587  C1789   1.107   .     S
H1588  C1789   1.106   .     S
O1589  C1590   1.407   .     S
C1590  C1593   1.503   .     S
C1590  H1592   1.092   .     S
C1590  H1591   1.117   .     S
C1593  H1595   1.107   .     S
C1593  H1596   1.092   .     S
C1593  H1594   1.102   .     S
C1598  C1601   1.511   .     S
C1598  H1599   1.094   .     S
C1598  H1600   1.074   .     S
C1598  O1801   1.409   .     S
C1601  H1603   1.111   .     S
C1601  H1604   1.090   .     S
C1601  H1602   1.102   .     S
O1605  C1810   1.405   .     S
C1606  H1608   1.093   .     S
C1606  C1609   1.512   .     S
H1607  C1810   1.081   .     S
C1609  H1610   1.111   .     S
C1609  H1611   1.105   .     S
C1609  H1612   1.093   .     S
O1613  C1614   1.411   .     S
C1614  H1615   1.094   .     S
C1614  H1616   1.102   .     S
C1617  H1618   1.107   .     S
C1617  H1620   1.106   .     S
C1617  H1619   1.101   .     S
C1617  C1818   1.544   .     S
O1621  C1622   1.423   .     S
C1622  H1624   1.096   .     S
C1622  H1623   1.081   .     S
C1622  C1829   1.541   .     S
C1625  H1626   1.105   .     S
C1625  H1628   1.110   .     S
C1625  H1627   1.105   .     S
I1629  C1739   2.116   .     S
I1631  N331    2.059   1_556 S
C1633  C1637   1.472   .     S
C1633  O1659   1.332   .     A
C1633  O1661   1.355   .     A
C1634  C1638   1.475   .     S
C1634  O1662   1.355   .     A
C1634  O1660   1.332   .     A
C1635  C1652   1.420   .     A
C1635  O1715   1.381   .     S
C1635  C1755   1.428   1_455 S
C1636  C1651   1.430   .     A
C1636  O1723   1.398   .     S
C1636  C1756   1.444   .     S
C1638  C1229   1.372   1_565 S
C1638  I1324   2.128   1_565 S
C1639  O1665   1.344   .     A
C1639  C1644   1.520   .     S
C1639  O1663   1.362   .     A
C1640  O1664   1.359   .     A
C1640  O1666   1.342   .     A
C1640  C1643   1.512   .     S
C1641  C1651   1.439   .     A
C1641  C1643   1.417   .     A
C1641  O1667   1.382   .     S
C1642  C1652   1.436   .     A
C1642  C1644   1.415   .     A
C1642  O1675   1.382   .     S
C1643  C1645   1.399   .     A
C1644  C1646   1.408   .     A
C1645  O1683   1.372   .     S
C1645  C1647   1.429   .     A
C1646  O1691   1.372   .     S
C1646  C1648   1.438   .     A
C1647  C1649   1.421   .     A
C1647  C1653   1.422   .     A
C1648  C1654   1.422   .     A
C1648  C1650   1.413   .     A
C1649  C1651   1.426   .     A
C1649  C1752   1.432   .     S
C1650  C1652   1.418   .     A
C1650  C1751   1.432   1_455 S
C1653  O1699   1.408   .     S
C1653  C1737   1.428   .     S
C1654  O1707   1.400   .     S
C1654  C1738   1.444   1_455 S
Cu1655 N1658   2.128   .     S
Cu1655 O1659   2.016   .     S
Cu1655 O1662   2.018   .     S
Cu1655 O1666   2.010   .     S
Cu1655 O1663   2.033   .     S
Cu1656 O1661   2.018   .     S
Cu1656 N1657   2.128   .     S
Cu1656 O1664   2.033   .     S
Cu1656 O1660   2.016   .     S
Cu1656 O1665   2.010   .     S
N1658  N433    1.354   1_556 S
N1658  I510    2.069   1_556 S
O1667  C1668   1.407   .     S
C1668  H1669   1.092   .     S
C1668  C1671   1.519   .     S
C1668  H1670   1.108   .     S
C1671  H1264   1.090   1_565 S
C1671  H1265   1.103   1_565 S
C1671  H1266   1.104   1_565 S
O1675  C1676   1.400   .     S
C1676  H1677   1.097   .     S
C1676  H1678   1.114   .     S
C1676  C1679   1.528   .     S
H1680  C1271   1.101   1_565 S
H1681  C1271   1.103   1_565 S
H1682  C1271   1.099   1_565 S
O1683  C1684   1.403   .     S
C1684  H1686   1.116   .     S
C1684  H1685   1.103   .     S
C1684  C1687   1.501   .     S
C1687  H1688   1.098   .     S
H1689  C1279   1.107   1_565 S
H1690  C1279   1.106   1_565 S
O1691  C1692   1.407   .     S
C1692  C1695   1.503   .     S
C1692  H1694   1.092   .     S
C1692  H1693   1.117   .     S
C1695  H1697   1.107   .     S
C1695  H1698   1.092   .     S
C1695  H1696   1.102   .     S
C1700  C1703   1.511   .     S
C1700  H1701   1.094   .     S
C1700  H1702   1.074   .     S
C1700  O1291   1.409   1_565 S
C1703  H1705   1.111   .     S
C1703  H1706   1.090   .     S
C1703  H1704   1.102   .     S
O1707  C1300   1.405   1_565 S
C1708  H1710   1.093   .     S
C1708  C1711   1.512   .     S
H1709  C1300   1.081   1_565 S
C1711  H1712   1.111   .     S
C1711  H1713   1.105   .     S
C1711  H1714   1.093   .     S
O1715  C1716   1.411   .     S
C1716  H1717   1.094   .     S
C1716  H1718   1.102   .     S
C1719  H1720   1.107   .     S
C1719  H1722   1.106   .     S
C1719  H1721   1.101   .     S
C1719  C1308   1.544   1_565 S
O1723  C1724   1.423   .     S
C1724  H1726   1.096   .     S
C1724  H1725   1.081   .     S
C1724  C1319   1.541   1_565 S
C1727  H1728   1.105   .     S
C1727  H1730   1.110   .     S
C1727  H1729   1.105   .     S
I1731  C1229   2.116   1_565 S
I1733  N433    2.059   1_556 S
C1735  C1739   1.472   .     S
C1735  O1761   1.332   .     A
C1735  O1763   1.355   .     A
C1736  C1740   1.475   .     S
C1736  O1764   1.355   .     A
C1736  O1762   1.332   .     A
C1737  C1754   1.420   .     A
C1737  O1817   1.381   .     S
C1738  C1753   1.430   .     A
C1738  O1825   1.398   .     S
C1738  C1654   1.444   1_655 S
C1740  C1331   1.372   1_565 S
C1740  I1426   2.128   1_565 S
C1741  O1767   1.344   .     A
C1741  C1746   1.520   .     S
C1741  O1765   1.362   .     A
C1742  O1766   1.359   .     A
C1742  O1768   1.342   .     A
C1742  C1745   1.512   .     S
C1743  C1753   1.439   .     A
C1743  C1745   1.417   .     A
C1743  O1769   1.382   .     S
C1744  C1754   1.436   .     A
C1744  C1746   1.415   .     A
C1744  O1777   1.382   .     S
C1745  C1747   1.399   .     A
C1746  C1748   1.408   .     A
C1747  O1785   1.372   .     S
C1747  C1749   1.429   .     A
C1748  O1793   1.372   .     S
C1748  C1750   1.438   .     A
C1749  C1751   1.421   .     A
C1749  C1755   1.422   .     A
C1750  C1756   1.422   .     A
C1750  C1752   1.413   .     A
C1751  C1753   1.426   .     A
C1751  C1650   1.432   1_655 S
C1752  C1754   1.418   .     A
C1755  O1801   1.408   .     S
C1755  C1635   1.428   1_655 S
C1756  O1809   1.400   .     S
Cu1757 N1760   2.128   .     S
Cu1757 O1761   2.016   .     S
Cu1757 O1764   2.018   .     S
Cu1757 O1768   2.010   .     S
Cu1757 O1765   2.033   .     S
Cu1758 O1763   2.018   .     S
Cu1758 N1759   2.128   .     S
Cu1758 O1766   2.033   .     S
Cu1758 O1762   2.016   .     S
Cu1758 O1767   2.010   .     S
N1760  N535    1.354   1_556 S
N1760  I612    2.069   1_556 S
O1769  C1770   1.407   .     S
C1770  H1771   1.092   .     S
C1770  C1773   1.519   .     S
C1770  H1772   1.108   .     S
C1773  H1366   1.090   1_565 S
C1773  H1367   1.103   1_565 S
C1773  H1368   1.104   1_565 S
O1777  C1778   1.400   .     S
C1778  H1779   1.097   .     S
C1778  H1780   1.114   .     S
C1778  C1781   1.528   .     S
H1782  C1373   1.101   1_565 S
H1783  C1373   1.103   1_565 S
H1784  C1373   1.099   1_565 S
O1785  C1786   1.403   .     S
C1786  H1788   1.116   .     S
C1786  H1787   1.103   .     S
C1786  C1789   1.501   .     S
C1789  H1790   1.098   .     S
H1791  C1381   1.107   1_565 S
H1792  C1381   1.106   1_565 S
O1793  C1794   1.407   .     S
C1794  C1797   1.503   .     S
C1794  H1796   1.092   .     S
C1794  H1795   1.117   .     S
C1797  H1799   1.107   .     S
C1797  H1800   1.092   .     S
C1797  H1798   1.102   .     S
C1802  C1805   1.511   .     S
C1802  H1803   1.094   .     S
C1802  H1804   1.074   .     S
C1802  O1393   1.409   1_565 S
C1805  H1807   1.111   .     S
C1805  H1808   1.090   .     S
C1805  H1806   1.102   .     S
O1809  C1402   1.405   1_565 S
C1810  H1812   1.093   .     S
C1810  C1813   1.512   .     S
H1811  C1402   1.081   1_565 S
C1813  H1814   1.111   .     S
C1813  H1815   1.105   .     S
C1813  H1816   1.093   .     S
O1817  C1818   1.411   .     S
C1818  H1819   1.094   .     S
C1818  H1820   1.102   .     S
C1821  H1822   1.107   .     S
C1821  H1824   1.106   .     S
C1821  H1823   1.101   .     S
C1821  C1410   1.544   1_565 S
O1825  C1826   1.423   .     S
C1826  H1828   1.096   .     S
C1826  H1827   1.081   .     S
C1826  C1421   1.541   1_565 S
C1829  H1830   1.105   .     S
C1829  H1832   1.110   .     S
C1829  H1831   1.105   .     S
I1833  C1331   2.116   1_565 S
I1835  N535    2.059   1_556 S
