data_str_m2_o10_o17_pcu_sym.121
_audit_creation_date              2020-01-03
_audit_creation_method            'Materials Studio'
_symmetry_space_group_name_H-M    'P1'
_symmetry_Int_Tables_number       1
_symmetry_cell_setting            triclinic
loop_
_symmetry_equiv_pos_as_xyz
  x,y,z
_cell_length_a                    29.9570
_cell_length_b                    26.2126
_cell_length_c                    22.2973
_cell_angle_alpha                 102.9112
_cell_angle_beta                  93.3418
_cell_angle_gamma                 92.3144
loop_
_atom_site_label
_atom_site_type_symbol
_atom_site_fract_x
_atom_site_fract_y
_atom_site_fract_z
_atom_site_U_iso_or_equiv
_atom_site_adp_type
_atom_site_occupancy
C1     C     0.24938   0.06683   0.15130   0.00000  Uiso   1.00
C2     C     0.25107   0.26654   0.18205   0.00000  Uiso   1.00
C3     C     0.02100   0.07176   0.14239   0.00000  Uiso   1.00
C4     C     0.47934   0.25878   0.21732   0.00000  Uiso   1.00
C5     C     0.25397   0.01164   0.14322   0.00000  Uiso   1.00
C6     C     0.24682   0.32178   0.19029   0.00000  Uiso   1.00
C7     C     0.16460   0.16799   0.16808   0.00000  Uiso   1.00
C8     C     0.33535   0.16523   0.16520   0.00000  Uiso   1.00
C9     C     0.40835   0.21080   0.18943   0.00000  Uiso   1.00
C10    C     0.09182   0.12112   0.15628   0.00000  Uiso   1.00
C11    C     0.38341   0.16458   0.16293   0.00000  Uiso   1.00
C12    C     0.11650   0.16883   0.17097   0.00000  Uiso   1.00
C13    C     0.40411   0.11780   0.13940   0.00000  Uiso   1.00
C14    C     0.09564   0.21659   0.18722   0.00000  Uiso   1.00
C15    C     0.45129   0.11657   0.14975   0.00000  Uiso   1.00
C16    C     0.04872   0.21567   0.19373   0.00000  Uiso   1.00
C17    C     0.47652   0.16508   0.17171   0.00000  Uiso   1.00
C18    C     0.02359   0.16693   0.17401   0.00000  Uiso   1.00
C19    C     0.45471   0.21182   0.19205   0.00000  Uiso   1.00
C20    C     0.04548   0.11984   0.15672   0.00000  Uiso   1.00
C21    C     0.47440   0.06931   0.14046   0.00000  Uiso   1.00
C22    C     0.02612   0.26118   0.21958   0.00000  Uiso   1.00
Cu23   Cu    0.25500   0.17246   0.22813   0.00000  Uiso   1.00
Cu24   Cu    0.24499   0.16087   0.10521   0.00000  Uiso   1.00
H25    H     0.39134   0.24626   0.20737   0.00000  Uiso   1.00
H26    H     0.10892   0.08495   0.14371   0.00000  Uiso   1.00
H27    H     0.03820   0.03556   0.13339   0.00000  Uiso   1.00
H28    H     0.46201   0.29377   0.23597   0.00000  Uiso   1.00
H29    H     0.21495   0.12653   0.31634   0.00000  Uiso   1.00
H30    H     0.28512   0.20671   0.01698   0.00000  Uiso   1.00
N31    N     0.23744   0.15214   0.01284   0.00000  Uiso   1.00
N32    N     0.26255   0.18119   0.32049   0.00000  Uiso   1.00
O33    O     0.25325   0.09538   0.20659   0.00000  Uiso   1.00
O34    O     0.24674   0.23796   0.12674   0.00000  Uiso   1.00
O35    O     0.24480   0.08559   0.10279   0.00000  Uiso   1.00
O36    O     0.25520   0.24774   0.23055   0.00000  Uiso   1.00
O37    O     0.18935   0.17155   0.21857   0.00000  Uiso   1.00
O38    O     0.31064   0.16179   0.11476   0.00000  Uiso   1.00
O39    O     0.18090   0.16176   0.11477   0.00000  Uiso   1.00
O40    O     0.31910   0.17157   0.21857   0.00000  Uiso   1.00
O41    O     0.37731   0.07390   0.10984   0.00000  Uiso   1.00
C42    C     0.38511   0.05983   0.04617   0.00000  Uiso   1.00
H43    H     0.37924   0.01660   0.03098   0.00000  Uiso   1.00
H44    H     0.42013   0.06912   0.03591   0.00000  Uiso   1.00
C45    C     0.35254   0.08490   0.00745   0.00000  Uiso   1.00
H46    H     0.31758   0.07583   0.01749   0.00000  Uiso   1.00
H47    H     0.35922   0.12810   0.01903   0.00000  Uiso   1.00
C48    C     0.35807   0.06405   0.27212   0.00000  Uiso   1.00
H49    H     0.39249   0.07407   0.26079   0.00000  Uiso   1.00
H50    H     0.33397   0.08192   0.24459   0.00000  Uiso   1.00
H51    H     0.35152   0.02083   0.25909   0.00000  Uiso   1.00
O52    O     0.12228   0.26281   0.19894   0.00000  Uiso   1.00
C53    C     0.11311   0.29185   0.15335   0.00000  Uiso   1.00
H54    H     0.12543   0.33300   0.17362   0.00000  Uiso   1.00
H55    H     0.07681   0.29288   0.14053   0.00000  Uiso   1.00
C56    C     0.13683   0.27137   0.09446   0.00000  Uiso   1.00
H57    H     0.17113   0.26169   0.10645   0.00000  Uiso   1.00
H58    H     0.11845   0.23521   0.06703   0.00000  Uiso   1.00
C59    C     0.13939   0.31240   0.05562   0.00000  Uiso   1.00
H60    H     0.10597   0.32788   0.04927   0.00000  Uiso   1.00
H61    H     0.15148   0.29467   0.00984   0.00000  Uiso   1.00
H62    H     0.16295   0.01229   0.07897   0.00000  Uiso   1.00
N63    N     0.45257   0.01871   0.13577   0.00000  Uiso   1.00
H64    H     0.42582   0.02146   0.16414   0.00000  Uiso   1.00
H65    H     0.44199   0.00207   0.08998   0.00000  Uiso   1.00
N66    N     0.05045   0.30907   0.25054   0.00000  Uiso   1.00
H67    H     0.06489   0.30259   0.29168   0.00000  Uiso   1.00
H68    H     0.02886   0.00620   0.26251   0.00000  Uiso   1.00
N69    N     0.26886   0.31663   0.08546   0.00000  Uiso   1.00
H70    H     0.29918   0.00111   0.07771   0.00000  Uiso   1.00
H71    H     0.24522   0.31942   0.05014   0.00000  Uiso   1.00
N72    N     0.23194   0.01674   0.24809   0.00000  Uiso   1.00
H73    H     0.20160   0.33228   0.25584   0.00000  Uiso   1.00
H74    H     0.25559   0.01379   0.28334   0.00000  Uiso   1.00
C75    C     0.74938   0.06683   0.15130   0.00000  Uiso   1.00
C76    C     0.75107   0.26654   0.18205   0.00000  Uiso   1.00
C77    C     0.52100   0.07176   0.14239   0.00000  Uiso   1.00
C78    C     0.97934   0.25878   0.21732   0.00000  Uiso   1.00
C79    C     0.75397   0.01164   0.14322   0.00000  Uiso   1.00
C80    C     0.74682   0.32178   0.19029   0.00000  Uiso   1.00
C81    C     0.66460   0.16799   0.16808   0.00000  Uiso   1.00
C82    C     0.83535   0.16523   0.16520   0.00000  Uiso   1.00
C83    C     0.90835   0.21080   0.18943   0.00000  Uiso   1.00
C84    C     0.59182   0.12112   0.15628   0.00000  Uiso   1.00
C85    C     0.88341   0.16458   0.16293   0.00000  Uiso   1.00
C86    C     0.61650   0.16883   0.17097   0.00000  Uiso   1.00
C87    C     0.90411   0.11780   0.13940   0.00000  Uiso   1.00
C88    C     0.59564   0.21659   0.18722   0.00000  Uiso   1.00
C89    C     0.95129   0.11657   0.14975   0.00000  Uiso   1.00
C90    C     0.54872   0.21567   0.19373   0.00000  Uiso   1.00
C91    C     0.97652   0.16508   0.17171   0.00000  Uiso   1.00
C92    C     0.52359   0.16693   0.17401   0.00000  Uiso   1.00
C93    C     0.95471   0.21182   0.19205   0.00000  Uiso   1.00
C94    C     0.54548   0.11984   0.15672   0.00000  Uiso   1.00
C95    C     0.97440   0.06931   0.14046   0.00000  Uiso   1.00
C96    C     0.52612   0.26118   0.21958   0.00000  Uiso   1.00
Cu97   Cu    0.75500   0.17246   0.22813   0.00000  Uiso   1.00
Cu98   Cu    0.74499   0.16087   0.10521   0.00000  Uiso   1.00
H99    H     0.89134   0.24626   0.20737   0.00000  Uiso   1.00
H100   H     0.60892   0.08495   0.14371   0.00000  Uiso   1.00
H101   H     0.53820   0.03556   0.13339   0.00000  Uiso   1.00
H102   H     0.96201   0.29377   0.23597   0.00000  Uiso   1.00
H103   H     0.71495   0.12653   0.31634   0.00000  Uiso   1.00
H104   H     0.78512   0.20671   0.01698   0.00000  Uiso   1.00
N105   N     0.73744   0.15214   0.01284   0.00000  Uiso   1.00
N106   N     0.76255   0.18119   0.32049   0.00000  Uiso   1.00
O107   O     0.75325   0.09538   0.20659   0.00000  Uiso   1.00
O108   O     0.74674   0.23796   0.12674   0.00000  Uiso   1.00
O109   O     0.74480   0.08559   0.10279   0.00000  Uiso   1.00
O110   O     0.75520   0.24774   0.23055   0.00000  Uiso   1.00
O111   O     0.68935   0.17155   0.21857   0.00000  Uiso   1.00
O112   O     0.81064   0.16179   0.11476   0.00000  Uiso   1.00
O113   O     0.68090   0.16176   0.11477   0.00000  Uiso   1.00
O114   O     0.81910   0.17157   0.21857   0.00000  Uiso   1.00
O115   O     0.87731   0.07390   0.10984   0.00000  Uiso   1.00
C116   C     0.88511   0.05983   0.04617   0.00000  Uiso   1.00
H117   H     0.87924   0.01660   0.03098   0.00000  Uiso   1.00
H118   H     0.92013   0.06912   0.03591   0.00000  Uiso   1.00
C119   C     0.85254   0.08490   0.00745   0.00000  Uiso   1.00
H120   H     0.81758   0.07583   0.01749   0.00000  Uiso   1.00
H121   H     0.85922   0.12810   0.01903   0.00000  Uiso   1.00
C122   C     0.85807   0.06405   0.27212   0.00000  Uiso   1.00
H123   H     0.89249   0.07407   0.26079   0.00000  Uiso   1.00
H124   H     0.83397   0.08192   0.24459   0.00000  Uiso   1.00
H125   H     0.85152   0.02083   0.25909   0.00000  Uiso   1.00
O126   O     0.62228   0.26281   0.19894   0.00000  Uiso   1.00
C127   C     0.61311   0.29185   0.15335   0.00000  Uiso   1.00
H128   H     0.62543   0.33300   0.17362   0.00000  Uiso   1.00
H129   H     0.57681   0.29288   0.14053   0.00000  Uiso   1.00
C130   C     0.63683   0.27137   0.09446   0.00000  Uiso   1.00
H131   H     0.67113   0.26169   0.10645   0.00000  Uiso   1.00
H132   H     0.61845   0.23521   0.06703   0.00000  Uiso   1.00
C133   C     0.63939   0.31240   0.05562   0.00000  Uiso   1.00
H134   H     0.60597   0.32788   0.04927   0.00000  Uiso   1.00
H135   H     0.65148   0.29467   0.00984   0.00000  Uiso   1.00
H136   H     0.66295   0.01229   0.07897   0.00000  Uiso   1.00
N137   N     0.95257   0.01871   0.13577   0.00000  Uiso   1.00
H138   H     0.92582   0.02146   0.16414   0.00000  Uiso   1.00
H139   H     0.94199   0.00207   0.08998   0.00000  Uiso   1.00
N140   N     0.55045   0.30907   0.25054   0.00000  Uiso   1.00
H141   H     0.56489   0.30259   0.29168   0.00000  Uiso   1.00
H142   H     0.52886   0.00620   0.26251   0.00000  Uiso   1.00
N143   N     0.76886   0.31663   0.08546   0.00000  Uiso   1.00
H144   H     0.79918   0.00111   0.07771   0.00000  Uiso   1.00
H145   H     0.74522   0.31942   0.05014   0.00000  Uiso   1.00
N146   N     0.73194   0.01674   0.24809   0.00000  Uiso   1.00
H147   H     0.70160   0.33228   0.25584   0.00000  Uiso   1.00
H148   H     0.75559   0.01379   0.28334   0.00000  Uiso   1.00
C149   C     0.24938   0.40016   0.15130   0.00000  Uiso   1.00
C150   C     0.25107   0.59987   0.18205   0.00000  Uiso   1.00
C151   C     0.02100   0.40509   0.14239   0.00000  Uiso   1.00
C152   C     0.47934   0.59212   0.21732   0.00000  Uiso   1.00
C153   C     0.25397   0.34498   0.14322   0.00000  Uiso   1.00
C154   C     0.24682   0.65511   0.19029   0.00000  Uiso   1.00
C155   C     0.16460   0.50132   0.16808   0.00000  Uiso   1.00
C156   C     0.33535   0.49856   0.16520   0.00000  Uiso   1.00
C157   C     0.40835   0.54413   0.18943   0.00000  Uiso   1.00
C158   C     0.09182   0.45446   0.15628   0.00000  Uiso   1.00
C159   C     0.38341   0.49792   0.16293   0.00000  Uiso   1.00
C160   C     0.11650   0.50216   0.17097   0.00000  Uiso   1.00
C161   C     0.40411   0.45113   0.13940   0.00000  Uiso   1.00
C162   C     0.09564   0.54992   0.18722   0.00000  Uiso   1.00
C163   C     0.45129   0.44990   0.14975   0.00000  Uiso   1.00
C164   C     0.04872   0.54900   0.19373   0.00000  Uiso   1.00
C165   C     0.47652   0.49841   0.17171   0.00000  Uiso   1.00
C166   C     0.02359   0.50026   0.17401   0.00000  Uiso   1.00
C167   C     0.45471   0.54515   0.19205   0.00000  Uiso   1.00
C168   C     0.04548   0.45318   0.15672   0.00000  Uiso   1.00
C169   C     0.47440   0.40265   0.14046   0.00000  Uiso   1.00
C170   C     0.02612   0.59452   0.21958   0.00000  Uiso   1.00
Cu171  Cu    0.25500   0.50579   0.22813   0.00000  Uiso   1.00
Cu172  Cu    0.24499   0.49421   0.10521   0.00000  Uiso   1.00
H173   H     0.39134   0.57960   0.20737   0.00000  Uiso   1.00
H174   H     0.10892   0.41828   0.14371   0.00000  Uiso   1.00
H175   H     0.03820   0.36889   0.13339   0.00000  Uiso   1.00
H176   H     0.46201   0.62710   0.23597   0.00000  Uiso   1.00
H177   H     0.21495   0.45987   0.31634   0.00000  Uiso   1.00
H178   H     0.28512   0.54005   0.01698   0.00000  Uiso   1.00
N179   N     0.23744   0.48547   0.01284   0.00000  Uiso   1.00
N180   N     0.26255   0.51453   0.32049   0.00000  Uiso   1.00
O181   O     0.25325   0.42871   0.20659   0.00000  Uiso   1.00
O182   O     0.24674   0.57129   0.12674   0.00000  Uiso   1.00
O183   O     0.24480   0.41892   0.10279   0.00000  Uiso   1.00
O184   O     0.25520   0.58108   0.23055   0.00000  Uiso   1.00
O185   O     0.18935   0.50488   0.21857   0.00000  Uiso   1.00
O186   O     0.31064   0.49512   0.11476   0.00000  Uiso   1.00
O187   O     0.18090   0.49510   0.11477   0.00000  Uiso   1.00
O188   O     0.31910   0.50490   0.21857   0.00000  Uiso   1.00
O189   O     0.37731   0.40724   0.10984   0.00000  Uiso   1.00
C190   C     0.38511   0.39316   0.04617   0.00000  Uiso   1.00
H191   H     0.37924   0.34994   0.03098   0.00000  Uiso   1.00
H192   H     0.42013   0.40245   0.03591   0.00000  Uiso   1.00
C193   C     0.35254   0.41823   0.00745   0.00000  Uiso   1.00
H194   H     0.31758   0.40916   0.01749   0.00000  Uiso   1.00
H195   H     0.35922   0.46143   0.01903   0.00000  Uiso   1.00
C196   C     0.35807   0.39738   0.27212   0.00000  Uiso   1.00
H197   H     0.39249   0.40741   0.26079   0.00000  Uiso   1.00
H198   H     0.33397   0.41525   0.24459   0.00000  Uiso   1.00
H199   H     0.35152   0.35416   0.25909   0.00000  Uiso   1.00
O200   O     0.12228   0.59615   0.19894   0.00000  Uiso   1.00
C201   C     0.11311   0.62518   0.15335   0.00000  Uiso   1.00
H202   H     0.12543   0.66633   0.17362   0.00000  Uiso   1.00
H203   H     0.07681   0.62621   0.14053   0.00000  Uiso   1.00
C204   C     0.13683   0.60471   0.09446   0.00000  Uiso   1.00
H205   H     0.17113   0.59502   0.10645   0.00000  Uiso   1.00
H206   H     0.11845   0.56854   0.06703   0.00000  Uiso   1.00
C207   C     0.13939   0.64573   0.05562   0.00000  Uiso   1.00
H208   H     0.10597   0.66121   0.04927   0.00000  Uiso   1.00
H209   H     0.15148   0.62801   0.00984   0.00000  Uiso   1.00
H210   H     0.16295   0.34563   0.07897   0.00000  Uiso   1.00
N211   N     0.45257   0.35204   0.13577   0.00000  Uiso   1.00
H212   H     0.42582   0.35480   0.16414   0.00000  Uiso   1.00
H213   H     0.44199   0.33540   0.08998   0.00000  Uiso   1.00
N214   N     0.05045   0.64240   0.25054   0.00000  Uiso   1.00
H215   H     0.06489   0.63592   0.29168   0.00000  Uiso   1.00
H216   H     0.02886   0.33954   0.26251   0.00000  Uiso   1.00
N217   N     0.26886   0.64996   0.08546   0.00000  Uiso   1.00
H218   H     0.29918   0.33444   0.07771   0.00000  Uiso   1.00
H219   H     0.24522   0.65276   0.05014   0.00000  Uiso   1.00
N220   N     0.23194   0.35007   0.24809   0.00000  Uiso   1.00
H221   H     0.20160   0.66561   0.25584   0.00000  Uiso   1.00
H222   H     0.25559   0.34712   0.28334   0.00000  Uiso   1.00
C223   C     0.74938   0.40016   0.15130   0.00000  Uiso   1.00
C224   C     0.75107   0.59987   0.18205   0.00000  Uiso   1.00
C225   C     0.52100   0.40509   0.14239   0.00000  Uiso   1.00
C226   C     0.97934   0.59212   0.21732   0.00000  Uiso   1.00
C227   C     0.75397   0.34498   0.14322   0.00000  Uiso   1.00
C228   C     0.74682   0.65511   0.19029   0.00000  Uiso   1.00
C229   C     0.66460   0.50132   0.16808   0.00000  Uiso   1.00
C230   C     0.83535   0.49856   0.16520   0.00000  Uiso   1.00
C231   C     0.90835   0.54413   0.18943   0.00000  Uiso   1.00
C232   C     0.59182   0.45446   0.15628   0.00000  Uiso   1.00
C233   C     0.88341   0.49792   0.16293   0.00000  Uiso   1.00
C234   C     0.61650   0.50216   0.17097   0.00000  Uiso   1.00
C235   C     0.90411   0.45113   0.13940   0.00000  Uiso   1.00
C236   C     0.59564   0.54992   0.18722   0.00000  Uiso   1.00
C237   C     0.95129   0.44990   0.14975   0.00000  Uiso   1.00
C238   C     0.54872   0.54900   0.19373   0.00000  Uiso   1.00
C239   C     0.97652   0.49841   0.17171   0.00000  Uiso   1.00
C240   C     0.52359   0.50026   0.17401   0.00000  Uiso   1.00
C241   C     0.95471   0.54515   0.19205   0.00000  Uiso   1.00
C242   C     0.54548   0.45318   0.15672   0.00000  Uiso   1.00
C243   C     0.97440   0.40265   0.14046   0.00000  Uiso   1.00
C244   C     0.52612   0.59452   0.21958   0.00000  Uiso   1.00
Cu245  Cu    0.75500   0.50579   0.22813   0.00000  Uiso   1.00
Cu246  Cu    0.74499   0.49421   0.10521   0.00000  Uiso   1.00
H247   H     0.89134   0.57960   0.20737   0.00000  Uiso   1.00
H248   H     0.60892   0.41828   0.14371   0.00000  Uiso   1.00
H249   H     0.53820   0.36889   0.13339   0.00000  Uiso   1.00
H250   H     0.96201   0.62710   0.23597   0.00000  Uiso   1.00
H251   H     0.71495   0.45987   0.31634   0.00000  Uiso   1.00
H252   H     0.78512   0.54005   0.01698   0.00000  Uiso   1.00
N253   N     0.73744   0.48547   0.01284   0.00000  Uiso   1.00
N254   N     0.76255   0.51453   0.32049   0.00000  Uiso   1.00
O255   O     0.75325   0.42871   0.20659   0.00000  Uiso   1.00
O256   O     0.74674   0.57129   0.12674   0.00000  Uiso   1.00
O257   O     0.74480   0.41892   0.10279   0.00000  Uiso   1.00
O258   O     0.75520   0.58108   0.23055   0.00000  Uiso   1.00
O259   O     0.68935   0.50488   0.21857   0.00000  Uiso   1.00
O260   O     0.81064   0.49512   0.11476   0.00000  Uiso   1.00
O261   O     0.68090   0.49510   0.11477   0.00000  Uiso   1.00
O262   O     0.81910   0.50490   0.21857   0.00000  Uiso   1.00
O263   O     0.87731   0.40724   0.10984   0.00000  Uiso   1.00
C264   C     0.88511   0.39316   0.04617   0.00000  Uiso   1.00
H265   H     0.87924   0.34994   0.03098   0.00000  Uiso   1.00
H266   H     0.92013   0.40245   0.03591   0.00000  Uiso   1.00
C267   C     0.85254   0.41823   0.00745   0.00000  Uiso   1.00
H268   H     0.81758   0.40916   0.01749   0.00000  Uiso   1.00
H269   H     0.85922   0.46143   0.01903   0.00000  Uiso   1.00
C270   C     0.85807   0.39738   0.27212   0.00000  Uiso   1.00
H271   H     0.89249   0.40741   0.26079   0.00000  Uiso   1.00
H272   H     0.83397   0.41525   0.24459   0.00000  Uiso   1.00
H273   H     0.85152   0.35416   0.25909   0.00000  Uiso   1.00
O274   O     0.62228   0.59615   0.19894   0.00000  Uiso   1.00
C275   C     0.61311   0.62518   0.15335   0.00000  Uiso   1.00
H276   H     0.62543   0.66633   0.17362   0.00000  Uiso   1.00
H277   H     0.57681   0.62621   0.14053   0.00000  Uiso   1.00
C278   C     0.63683   0.60471   0.09446   0.00000  Uiso   1.00
H279   H     0.67113   0.59502   0.10645   0.00000  Uiso   1.00
H280   H     0.61845   0.56854   0.06703   0.00000  Uiso   1.00
C281   C     0.63939   0.64573   0.05562   0.00000  Uiso   1.00
H282   H     0.60597   0.66121   0.04927   0.00000  Uiso   1.00
H283   H     0.65148   0.62801   0.00984   0.00000  Uiso   1.00
H284   H     0.66295   0.34563   0.07897   0.00000  Uiso   1.00
N285   N     0.95257   0.35204   0.13577   0.00000  Uiso   1.00
H286   H     0.92582   0.35480   0.16414   0.00000  Uiso   1.00
H287   H     0.94199   0.33540   0.08998   0.00000  Uiso   1.00
N288   N     0.55045   0.64240   0.25054   0.00000  Uiso   1.00
H289   H     0.56489   0.63592   0.29168   0.00000  Uiso   1.00
H290   H     0.52886   0.33954   0.26251   0.00000  Uiso   1.00
N291   N     0.76886   0.64996   0.08546   0.00000  Uiso   1.00
H292   H     0.79918   0.33444   0.07771   0.00000  Uiso   1.00
H293   H     0.74522   0.65276   0.05014   0.00000  Uiso   1.00
N294   N     0.73194   0.35007   0.24809   0.00000  Uiso   1.00
H295   H     0.70160   0.66561   0.25584   0.00000  Uiso   1.00
H296   H     0.75559   0.34712   0.28334   0.00000  Uiso   1.00
C297   C     0.24938   0.73350   0.15130   0.00000  Uiso   1.00
C298   C     0.25107   0.93320   0.18205   0.00000  Uiso   1.00
C299   C     0.02100   0.73842   0.14239   0.00000  Uiso   1.00
C300   C     0.47934   0.92545   0.21732   0.00000  Uiso   1.00
C301   C     0.25397   0.67831   0.14322   0.00000  Uiso   1.00
C302   C     0.24682   0.98845   0.19029   0.00000  Uiso   1.00
C303   C     0.16460   0.83466   0.16808   0.00000  Uiso   1.00
C304   C     0.33535   0.83190   0.16520   0.00000  Uiso   1.00
C305   C     0.40835   0.87746   0.18943   0.00000  Uiso   1.00
C306   C     0.09182   0.78779   0.15628   0.00000  Uiso   1.00
C307   C     0.38341   0.83125   0.16293   0.00000  Uiso   1.00
C308   C     0.11650   0.83549   0.17097   0.00000  Uiso   1.00
C309   C     0.40411   0.78447   0.13940   0.00000  Uiso   1.00
C310   C     0.09564   0.88325   0.18722   0.00000  Uiso   1.00
C311   C     0.45129   0.78323   0.14975   0.00000  Uiso   1.00
C312   C     0.04872   0.88233   0.19373   0.00000  Uiso   1.00
C313   C     0.47652   0.83175   0.17171   0.00000  Uiso   1.00
C314   C     0.02359   0.83359   0.17401   0.00000  Uiso   1.00
C315   C     0.45471   0.87849   0.19205   0.00000  Uiso   1.00
C316   C     0.04548   0.78651   0.15672   0.00000  Uiso   1.00
C317   C     0.47440   0.73598   0.14046   0.00000  Uiso   1.00
C318   C     0.02612   0.92785   0.21958   0.00000  Uiso   1.00
Cu319  Cu    0.25500   0.83913   0.22813   0.00000  Uiso   1.00
Cu320  Cu    0.24499   0.82754   0.10521   0.00000  Uiso   1.00
H321   H     0.39134   0.91293   0.20737   0.00000  Uiso   1.00
H322   H     0.10892   0.75161   0.14371   0.00000  Uiso   1.00
H323   H     0.03820   0.70223   0.13339   0.00000  Uiso   1.00
H324   H     0.46201   0.96043   0.23597   0.00000  Uiso   1.00
H325   H     0.21495   0.79320   0.31634   0.00000  Uiso   1.00
H326   H     0.28512   0.87338   0.01698   0.00000  Uiso   1.00
N327   N     0.23744   0.81881   0.01284   0.00000  Uiso   1.00
N328   N     0.26255   0.84786   0.32049   0.00000  Uiso   1.00
O329   O     0.25325   0.76204   0.20659   0.00000  Uiso   1.00
O330   O     0.24674   0.90462   0.12674   0.00000  Uiso   1.00
O331   O     0.24480   0.75226   0.10279   0.00000  Uiso   1.00
O332   O     0.25520   0.91441   0.23055   0.00000  Uiso   1.00
O333   O     0.18935   0.83821   0.21857   0.00000  Uiso   1.00
O334   O     0.31064   0.82845   0.11476   0.00000  Uiso   1.00
O335   O     0.18090   0.82843   0.11477   0.00000  Uiso   1.00
O336   O     0.31910   0.83824   0.21857   0.00000  Uiso   1.00
O337   O     0.37731   0.74057   0.10984   0.00000  Uiso   1.00
C338   C     0.38511   0.72649   0.04617   0.00000  Uiso   1.00
H339   H     0.37924   0.68327   0.03098   0.00000  Uiso   1.00
H340   H     0.42013   0.73579   0.03591   0.00000  Uiso   1.00
C341   C     0.35254   0.75156   0.00745   0.00000  Uiso   1.00
H342   H     0.31758   0.74250   0.01749   0.00000  Uiso   1.00
H343   H     0.35922   0.79476   0.01903   0.00000  Uiso   1.00
C344   C     0.35807   0.73071   0.27212   0.00000  Uiso   1.00
H345   H     0.39249   0.74074   0.26079   0.00000  Uiso   1.00
H346   H     0.33397   0.74858   0.24459   0.00000  Uiso   1.00
H347   H     0.35152   0.68749   0.25909   0.00000  Uiso   1.00
O348   O     0.12228   0.92948   0.19894   0.00000  Uiso   1.00
C349   C     0.11311   0.95851   0.15335   0.00000  Uiso   1.00
H350   H     0.12543   0.99967   0.17362   0.00000  Uiso   1.00
H351   H     0.07681   0.95955   0.14053   0.00000  Uiso   1.00
C352   C     0.13683   0.93804   0.09446   0.00000  Uiso   1.00
H353   H     0.17113   0.92835   0.10645   0.00000  Uiso   1.00
H354   H     0.11845   0.90187   0.06703   0.00000  Uiso   1.00
C355   C     0.13939   0.97906   0.05562   0.00000  Uiso   1.00
H356   H     0.10597   0.99455   0.04927   0.00000  Uiso   1.00
H357   H     0.15148   0.96134   0.00984   0.00000  Uiso   1.00
H358   H     0.16295   0.67896   0.07897   0.00000  Uiso   1.00
N359   N     0.45257   0.68538   0.13577   0.00000  Uiso   1.00
H360   H     0.42582   0.68813   0.16414   0.00000  Uiso   1.00
H361   H     0.44199   0.66873   0.08998   0.00000  Uiso   1.00
N362   N     0.05045   0.97573   0.25054   0.00000  Uiso   1.00
H363   H     0.06489   0.96926   0.29168   0.00000  Uiso   1.00
H364   H     0.02886   0.67287   0.26251   0.00000  Uiso   1.00
N365   N     0.26886   0.98330   0.08546   0.00000  Uiso   1.00
H366   H     0.29918   0.66778   0.07771   0.00000  Uiso   1.00
H367   H     0.24522   0.98609   0.05014   0.00000  Uiso   1.00
N368   N     0.23194   0.68341   0.24809   0.00000  Uiso   1.00
H369   H     0.20160   0.99895   0.25584   0.00000  Uiso   1.00
H370   H     0.25559   0.68045   0.28334   0.00000  Uiso   1.00
C371   C     0.74938   0.73350   0.15130   0.00000  Uiso   1.00
C372   C     0.75107   0.93320   0.18205   0.00000  Uiso   1.00
C373   C     0.52100   0.73842   0.14239   0.00000  Uiso   1.00
C374   C     0.97934   0.92545   0.21732   0.00000  Uiso   1.00
C375   C     0.75397   0.67831   0.14322   0.00000  Uiso   1.00
C376   C     0.74682   0.98845   0.19029   0.00000  Uiso   1.00
C377   C     0.66460   0.83466   0.16808   0.00000  Uiso   1.00
C378   C     0.83535   0.83190   0.16520   0.00000  Uiso   1.00
C379   C     0.90835   0.87746   0.18943   0.00000  Uiso   1.00
C380   C     0.59182   0.78779   0.15628   0.00000  Uiso   1.00
C381   C     0.88341   0.83125   0.16293   0.00000  Uiso   1.00
C382   C     0.61650   0.83549   0.17097   0.00000  Uiso   1.00
C383   C     0.90411   0.78447   0.13940   0.00000  Uiso   1.00
C384   C     0.59564   0.88325   0.18722   0.00000  Uiso   1.00
C385   C     0.95129   0.78323   0.14975   0.00000  Uiso   1.00
C386   C     0.54872   0.88233   0.19373   0.00000  Uiso   1.00
C387   C     0.97652   0.83175   0.17171   0.00000  Uiso   1.00
C388   C     0.52359   0.83359   0.17401   0.00000  Uiso   1.00
C389   C     0.95471   0.87849   0.19205   0.00000  Uiso   1.00
C390   C     0.54548   0.78651   0.15672   0.00000  Uiso   1.00
C391   C     0.97440   0.73598   0.14046   0.00000  Uiso   1.00
C392   C     0.52612   0.92785   0.21958   0.00000  Uiso   1.00
Cu393  Cu    0.75500   0.83913   0.22813   0.00000  Uiso   1.00
Cu394  Cu    0.74499   0.82754   0.10521   0.00000  Uiso   1.00
H395   H     0.89134   0.91293   0.20737   0.00000  Uiso   1.00
H396   H     0.60892   0.75161   0.14371   0.00000  Uiso   1.00
H397   H     0.53820   0.70223   0.13339   0.00000  Uiso   1.00
H398   H     0.96201   0.96043   0.23597   0.00000  Uiso   1.00
H399   H     0.71495   0.79320   0.31634   0.00000  Uiso   1.00
H400   H     0.78512   0.87338   0.01698   0.00000  Uiso   1.00
N401   N     0.73744   0.81881   0.01284   0.00000  Uiso   1.00
N402   N     0.76255   0.84786   0.32049   0.00000  Uiso   1.00
O403   O     0.75325   0.76204   0.20659   0.00000  Uiso   1.00
O404   O     0.74674   0.90462   0.12674   0.00000  Uiso   1.00
O405   O     0.74480   0.75226   0.10279   0.00000  Uiso   1.00
O406   O     0.75520   0.91441   0.23055   0.00000  Uiso   1.00
O407   O     0.68935   0.83821   0.21857   0.00000  Uiso   1.00
O408   O     0.81064   0.82845   0.11476   0.00000  Uiso   1.00
O409   O     0.68090   0.82843   0.11477   0.00000  Uiso   1.00
O410   O     0.81910   0.83824   0.21857   0.00000  Uiso   1.00
O411   O     0.87731   0.74057   0.10984   0.00000  Uiso   1.00
C412   C     0.88511   0.72649   0.04617   0.00000  Uiso   1.00
H413   H     0.87924   0.68327   0.03098   0.00000  Uiso   1.00
H414   H     0.92013   0.73579   0.03591   0.00000  Uiso   1.00
C415   C     0.85254   0.75156   0.00745   0.00000  Uiso   1.00
H416   H     0.81758   0.74250   0.01749   0.00000  Uiso   1.00
H417   H     0.85922   0.79476   0.01903   0.00000  Uiso   1.00
C418   C     0.85807   0.73071   0.27212   0.00000  Uiso   1.00
H419   H     0.89249   0.74074   0.26079   0.00000  Uiso   1.00
H420   H     0.83397   0.74858   0.24459   0.00000  Uiso   1.00
H421   H     0.85152   0.68749   0.25909   0.00000  Uiso   1.00
O422   O     0.62228   0.92948   0.19894   0.00000  Uiso   1.00
C423   C     0.61311   0.95851   0.15335   0.00000  Uiso   1.00
H424   H     0.62543   0.99967   0.17362   0.00000  Uiso   1.00
H425   H     0.57681   0.95955   0.14053   0.00000  Uiso   1.00
C426   C     0.63683   0.93804   0.09446   0.00000  Uiso   1.00
H427   H     0.67113   0.92835   0.10645   0.00000  Uiso   1.00
H428   H     0.61845   0.90187   0.06703   0.00000  Uiso   1.00
C429   C     0.63939   0.97906   0.05562   0.00000  Uiso   1.00
H430   H     0.60597   0.99455   0.04927   0.00000  Uiso   1.00
H431   H     0.65148   0.96134   0.00984   0.00000  Uiso   1.00
H432   H     0.66295   0.67896   0.07897   0.00000  Uiso   1.00
N433   N     0.95257   0.68538   0.13577   0.00000  Uiso   1.00
H434   H     0.92582   0.68813   0.16414   0.00000  Uiso   1.00
H435   H     0.94199   0.66873   0.08998   0.00000  Uiso   1.00
N436   N     0.55045   0.97573   0.25054   0.00000  Uiso   1.00
H437   H     0.56489   0.96926   0.29168   0.00000  Uiso   1.00
H438   H     0.52886   0.67287   0.26251   0.00000  Uiso   1.00
N439   N     0.76886   0.98330   0.08546   0.00000  Uiso   1.00
H440   H     0.79918   0.66778   0.07771   0.00000  Uiso   1.00
H441   H     0.74522   0.98609   0.05014   0.00000  Uiso   1.00
N442   N     0.73194   0.68341   0.24809   0.00000  Uiso   1.00
H443   H     0.70160   0.99895   0.25584   0.00000  Uiso   1.00
H444   H     0.75559   0.68045   0.28334   0.00000  Uiso   1.00
C445   C     0.24938   0.06683   0.48464   0.00000  Uiso   1.00
C446   C     0.25107   0.26654   0.51538   0.00000  Uiso   1.00
C447   C     0.02100   0.07176   0.47572   0.00000  Uiso   1.00
C448   C     0.47934   0.25878   0.55065   0.00000  Uiso   1.00
C449   C     0.25397   0.01164   0.47656   0.00000  Uiso   1.00
C450   C     0.24682   0.32178   0.52363   0.00000  Uiso   1.00
C451   C     0.16460   0.16799   0.50141   0.00000  Uiso   1.00
C452   C     0.33535   0.16523   0.49853   0.00000  Uiso   1.00
C453   C     0.40835   0.21080   0.52277   0.00000  Uiso   1.00
C454   C     0.09182   0.12112   0.48961   0.00000  Uiso   1.00
C455   C     0.38341   0.16458   0.49626   0.00000  Uiso   1.00
C456   C     0.11650   0.16883   0.50431   0.00000  Uiso   1.00
C457   C     0.40411   0.11780   0.47274   0.00000  Uiso   1.00
C458   C     0.09564   0.21659   0.52056   0.00000  Uiso   1.00
C459   C     0.45129   0.11657   0.48309   0.00000  Uiso   1.00
C460   C     0.04872   0.21567   0.52706   0.00000  Uiso   1.00
C461   C     0.47652   0.16508   0.50504   0.00000  Uiso   1.00
C462   C     0.02359   0.16693   0.50735   0.00000  Uiso   1.00
C463   C     0.45471   0.21182   0.52538   0.00000  Uiso   1.00
C464   C     0.04548   0.11984   0.49005   0.00000  Uiso   1.00
C465   C     0.47440   0.06931   0.47379   0.00000  Uiso   1.00
C466   C     0.02612   0.26118   0.55291   0.00000  Uiso   1.00
Cu467  Cu    0.25500   0.17246   0.56146   0.00000  Uiso   1.00
Cu468  Cu    0.24499   0.16087   0.43854   0.00000  Uiso   1.00
H469   H     0.39134   0.24626   0.54071   0.00000  Uiso   1.00
H470   H     0.10892   0.08495   0.47704   0.00000  Uiso   1.00
H471   H     0.03820   0.03556   0.46673   0.00000  Uiso   1.00
H472   H     0.46201   0.29377   0.56930   0.00000  Uiso   1.00
H473   H     0.21495   0.12653   0.64968   0.00000  Uiso   1.00
H474   H     0.28512   0.20671   0.35031   0.00000  Uiso   1.00
N475   N     0.23744   0.15214   0.34617   0.00000  Uiso   1.00
N476   N     0.26255   0.18119   0.65383   0.00000  Uiso   1.00
O477   O     0.25325   0.09538   0.53992   0.00000  Uiso   1.00
O478   O     0.24674   0.23796   0.46008   0.00000  Uiso   1.00
O479   O     0.24480   0.08559   0.43612   0.00000  Uiso   1.00
O480   O     0.25520   0.24774   0.56388   0.00000  Uiso   1.00
O481   O     0.18935   0.17155   0.55191   0.00000  Uiso   1.00
O482   O     0.31064   0.16179   0.44809   0.00000  Uiso   1.00
O483   O     0.18090   0.16176   0.44810   0.00000  Uiso   1.00
O484   O     0.31910   0.17157   0.55190   0.00000  Uiso   1.00
O485   O     0.37731   0.07390   0.44317   0.00000  Uiso   1.00
C486   C     0.38511   0.05983   0.37951   0.00000  Uiso   1.00
H487   H     0.37924   0.01660   0.36431   0.00000  Uiso   1.00
H488   H     0.42013   0.06912   0.36925   0.00000  Uiso   1.00
C489   C     0.35254   0.08490   0.34078   0.00000  Uiso   1.00
H490   H     0.31758   0.07583   0.35082   0.00000  Uiso   1.00
H491   H     0.35922   0.12810   0.35236   0.00000  Uiso   1.00
C492   C     0.35807   0.06405   0.60545   0.00000  Uiso   1.00
H493   H     0.39249   0.07407   0.59413   0.00000  Uiso   1.00
H494   H     0.33397   0.08192   0.57792   0.00000  Uiso   1.00
H495   H     0.35152   0.02083   0.59243   0.00000  Uiso   1.00
O496   O     0.12228   0.26281   0.53227   0.00000  Uiso   1.00
C497   C     0.11311   0.29185   0.48668   0.00000  Uiso   1.00
H498   H     0.12543   0.33300   0.50695   0.00000  Uiso   1.00
H499   H     0.07681   0.29288   0.47387   0.00000  Uiso   1.00
C500   C     0.13683   0.27137   0.42780   0.00000  Uiso   1.00
H501   H     0.17113   0.26169   0.43978   0.00000  Uiso   1.00
H502   H     0.11845   0.23521   0.40036   0.00000  Uiso   1.00
C503   C     0.13939   0.31240   0.38895   0.00000  Uiso   1.00
H504   H     0.10597   0.32788   0.38260   0.00000  Uiso   1.00
H505   H     0.15148   0.29467   0.34317   0.00000  Uiso   1.00
H506   H     0.16295   0.01229   0.41230   0.00000  Uiso   1.00
N507   N     0.45257   0.01871   0.46910   0.00000  Uiso   1.00
H508   H     0.42582   0.02146   0.49748   0.00000  Uiso   1.00
H509   H     0.44199   0.00207   0.42331   0.00000  Uiso   1.00
N510   N     0.05045   0.30907   0.58388   0.00000  Uiso   1.00
H511   H     0.06489   0.30259   0.62501   0.00000  Uiso   1.00
H512   H     0.02886   0.00620   0.59584   0.00000  Uiso   1.00
N513   N     0.26886   0.31663   0.41879   0.00000  Uiso   1.00
H514   H     0.29918   0.00111   0.41105   0.00000  Uiso   1.00
H515   H     0.24522   0.31942   0.38347   0.00000  Uiso   1.00
N516   N     0.23194   0.01674   0.58143   0.00000  Uiso   1.00
H517   H     0.20160   0.33228   0.58917   0.00000  Uiso   1.00
H518   H     0.25559   0.01379   0.61667   0.00000  Uiso   1.00
C519   C     0.74938   0.06683   0.48464   0.00000  Uiso   1.00
C520   C     0.75107   0.26654   0.51538   0.00000  Uiso   1.00
C521   C     0.52100   0.07176   0.47572   0.00000  Uiso   1.00
C522   C     0.97934   0.25878   0.55065   0.00000  Uiso   1.00
C523   C     0.75397   0.01164   0.47656   0.00000  Uiso   1.00
C524   C     0.74682   0.32178   0.52363   0.00000  Uiso   1.00
C525   C     0.66460   0.16799   0.50141   0.00000  Uiso   1.00
C526   C     0.83535   0.16523   0.49853   0.00000  Uiso   1.00
C527   C     0.90835   0.21080   0.52277   0.00000  Uiso   1.00
C528   C     0.59182   0.12112   0.48961   0.00000  Uiso   1.00
C529   C     0.88341   0.16458   0.49626   0.00000  Uiso   1.00
C530   C     0.61650   0.16883   0.50431   0.00000  Uiso   1.00
C531   C     0.90411   0.11780   0.47274   0.00000  Uiso   1.00
C532   C     0.59564   0.21659   0.52056   0.00000  Uiso   1.00
C533   C     0.95129   0.11657   0.48309   0.00000  Uiso   1.00
C534   C     0.54872   0.21567   0.52706   0.00000  Uiso   1.00
C535   C     0.97652   0.16508   0.50504   0.00000  Uiso   1.00
C536   C     0.52359   0.16693   0.50735   0.00000  Uiso   1.00
C537   C     0.95471   0.21182   0.52538   0.00000  Uiso   1.00
C538   C     0.54548   0.11984   0.49005   0.00000  Uiso   1.00
C539   C     0.97440   0.06931   0.47379   0.00000  Uiso   1.00
C540   C     0.52612   0.26118   0.55291   0.00000  Uiso   1.00
Cu541  Cu    0.75500   0.17246   0.56146   0.00000  Uiso   1.00
Cu542  Cu    0.74499   0.16087   0.43854   0.00000  Uiso   1.00
H543   H     0.89134   0.24626   0.54071   0.00000  Uiso   1.00
H544   H     0.60892   0.08495   0.47704   0.00000  Uiso   1.00
H545   H     0.53820   0.03556   0.46673   0.00000  Uiso   1.00
H546   H     0.96201   0.29377   0.56930   0.00000  Uiso   1.00
H547   H     0.71495   0.12653   0.64968   0.00000  Uiso   1.00
H548   H     0.78512   0.20671   0.35031   0.00000  Uiso   1.00
N549   N     0.73744   0.15214   0.34617   0.00000  Uiso   1.00
N550   N     0.76255   0.18119   0.65383   0.00000  Uiso   1.00
O551   O     0.75325   0.09538   0.53992   0.00000  Uiso   1.00
O552   O     0.74674   0.23796   0.46008   0.00000  Uiso   1.00
O553   O     0.74480   0.08559   0.43612   0.00000  Uiso   1.00
O554   O     0.75520   0.24774   0.56388   0.00000  Uiso   1.00
O555   O     0.68935   0.17155   0.55191   0.00000  Uiso   1.00
O556   O     0.81064   0.16179   0.44809   0.00000  Uiso   1.00
O557   O     0.68090   0.16176   0.44810   0.00000  Uiso   1.00
O558   O     0.81910   0.17157   0.55190   0.00000  Uiso   1.00
O559   O     0.87731   0.07390   0.44317   0.00000  Uiso   1.00
C560   C     0.88511   0.05983   0.37951   0.00000  Uiso   1.00
H561   H     0.87924   0.01660   0.36431   0.00000  Uiso   1.00
H562   H     0.92013   0.06912   0.36925   0.00000  Uiso   1.00
C563   C     0.85254   0.08490   0.34078   0.00000  Uiso   1.00
H564   H     0.81758   0.07583   0.35082   0.00000  Uiso   1.00
H565   H     0.85922   0.12810   0.35236   0.00000  Uiso   1.00
C566   C     0.85807   0.06405   0.60545   0.00000  Uiso   1.00
H567   H     0.89249   0.07407   0.59413   0.00000  Uiso   1.00
H568   H     0.83397   0.08192   0.57792   0.00000  Uiso   1.00
H569   H     0.85152   0.02083   0.59243   0.00000  Uiso   1.00
O570   O     0.62228   0.26281   0.53227   0.00000  Uiso   1.00
C571   C     0.61311   0.29185   0.48668   0.00000  Uiso   1.00
H572   H     0.62543   0.33300   0.50695   0.00000  Uiso   1.00
H573   H     0.57681   0.29288   0.47387   0.00000  Uiso   1.00
C574   C     0.63683   0.27137   0.42780   0.00000  Uiso   1.00
H575   H     0.67113   0.26169   0.43978   0.00000  Uiso   1.00
H576   H     0.61845   0.23521   0.40036   0.00000  Uiso   1.00
C577   C     0.63939   0.31240   0.38895   0.00000  Uiso   1.00
H578   H     0.60597   0.32788   0.38260   0.00000  Uiso   1.00
H579   H     0.65148   0.29467   0.34317   0.00000  Uiso   1.00
H580   H     0.66295   0.01229   0.41230   0.00000  Uiso   1.00
N581   N     0.95257   0.01871   0.46910   0.00000  Uiso   1.00
H582   H     0.92582   0.02146   0.49748   0.00000  Uiso   1.00
H583   H     0.94199   0.00207   0.42331   0.00000  Uiso   1.00
N584   N     0.55045   0.30907   0.58388   0.00000  Uiso   1.00
H585   H     0.56489   0.30259   0.62501   0.00000  Uiso   1.00
H586   H     0.52886   0.00620   0.59584   0.00000  Uiso   1.00
N587   N     0.76886   0.31663   0.41879   0.00000  Uiso   1.00
H588   H     0.79918   0.00111   0.41105   0.00000  Uiso   1.00
H589   H     0.74522   0.31942   0.38347   0.00000  Uiso   1.00
N590   N     0.73194   0.01674   0.58143   0.00000  Uiso   1.00
H591   H     0.70160   0.33228   0.58917   0.00000  Uiso   1.00
H592   H     0.75559   0.01379   0.61667   0.00000  Uiso   1.00
C593   C     0.24938   0.40016   0.48464   0.00000  Uiso   1.00
C594   C     0.25107   0.59987   0.51538   0.00000  Uiso   1.00
C595   C     0.02100   0.40509   0.47572   0.00000  Uiso   1.00
C596   C     0.47934   0.59212   0.55065   0.00000  Uiso   1.00
C597   C     0.25397   0.34498   0.47656   0.00000  Uiso   1.00
C598   C     0.24682   0.65511   0.52363   0.00000  Uiso   1.00
C599   C     0.16460   0.50132   0.50141   0.00000  Uiso   1.00
C600   C     0.33535   0.49856   0.49853   0.00000  Uiso   1.00
C601   C     0.40835   0.54413   0.52277   0.00000  Uiso   1.00
C602   C     0.09182   0.45446   0.48961   0.00000  Uiso   1.00
C603   C     0.38341   0.49792   0.49626   0.00000  Uiso   1.00
C604   C     0.11650   0.50216   0.50431   0.00000  Uiso   1.00
C605   C     0.40411   0.45113   0.47274   0.00000  Uiso   1.00
C606   C     0.09564   0.54992   0.52056   0.00000  Uiso   1.00
C607   C     0.45129   0.44990   0.48309   0.00000  Uiso   1.00
C608   C     0.04872   0.54900   0.52706   0.00000  Uiso   1.00
C609   C     0.47652   0.49841   0.50504   0.00000  Uiso   1.00
C610   C     0.02359   0.50026   0.50735   0.00000  Uiso   1.00
C611   C     0.45471   0.54515   0.52538   0.00000  Uiso   1.00
C612   C     0.04548   0.45318   0.49005   0.00000  Uiso   1.00
C613   C     0.47440   0.40265   0.47379   0.00000  Uiso   1.00
C614   C     0.02612   0.59452   0.55291   0.00000  Uiso   1.00
Cu615  Cu    0.25500   0.50579   0.56146   0.00000  Uiso   1.00
Cu616  Cu    0.24499   0.49421   0.43854   0.00000  Uiso   1.00
H617   H     0.39134   0.57960   0.54071   0.00000  Uiso   1.00
H618   H     0.10892   0.41828   0.47704   0.00000  Uiso   1.00
H619   H     0.03820   0.36889   0.46673   0.00000  Uiso   1.00
H620   H     0.46201   0.62710   0.56930   0.00000  Uiso   1.00
H621   H     0.21495   0.45987   0.64968   0.00000  Uiso   1.00
H622   H     0.28512   0.54005   0.35031   0.00000  Uiso   1.00
N623   N     0.23744   0.48547   0.34617   0.00000  Uiso   1.00
N624   N     0.26255   0.51453   0.65383   0.00000  Uiso   1.00
O625   O     0.25325   0.42871   0.53992   0.00000  Uiso   1.00
O626   O     0.24674   0.57129   0.46008   0.00000  Uiso   1.00
O627   O     0.24480   0.41892   0.43612   0.00000  Uiso   1.00
O628   O     0.25520   0.58108   0.56388   0.00000  Uiso   1.00
O629   O     0.18935   0.50488   0.55191   0.00000  Uiso   1.00
O630   O     0.31064   0.49512   0.44809   0.00000  Uiso   1.00
O631   O     0.18090   0.49510   0.44810   0.00000  Uiso   1.00
O632   O     0.31910   0.50490   0.55190   0.00000  Uiso   1.00
O633   O     0.37731   0.40724   0.44317   0.00000  Uiso   1.00
C634   C     0.38511   0.39316   0.37951   0.00000  Uiso   1.00
H635   H     0.37924   0.34994   0.36431   0.00000  Uiso   1.00
H636   H     0.42013   0.40245   0.36925   0.00000  Uiso   1.00
C637   C     0.35254   0.41823   0.34078   0.00000  Uiso   1.00
H638   H     0.31758   0.40916   0.35082   0.00000  Uiso   1.00
H639   H     0.35922   0.46143   0.35236   0.00000  Uiso   1.00
C640   C     0.35807   0.39738   0.60545   0.00000  Uiso   1.00
H641   H     0.39249   0.40741   0.59413   0.00000  Uiso   1.00
H642   H     0.33397   0.41525   0.57792   0.00000  Uiso   1.00
H643   H     0.35152   0.35416   0.59243   0.00000  Uiso   1.00
O644   O     0.12228   0.59615   0.53227   0.00000  Uiso   1.00
C645   C     0.11311   0.62518   0.48668   0.00000  Uiso   1.00
H646   H     0.12543   0.66633   0.50695   0.00000  Uiso   1.00
H647   H     0.07681   0.62621   0.47387   0.00000  Uiso   1.00
C648   C     0.13683   0.60471   0.42780   0.00000  Uiso   1.00
H649   H     0.17113   0.59502   0.43978   0.00000  Uiso   1.00
H650   H     0.11845   0.56854   0.40036   0.00000  Uiso   1.00
C651   C     0.13939   0.64573   0.38895   0.00000  Uiso   1.00
H652   H     0.10597   0.66121   0.38260   0.00000  Uiso   1.00
H653   H     0.15148   0.62801   0.34317   0.00000  Uiso   1.00
H654   H     0.16295   0.34563   0.41230   0.00000  Uiso   1.00
N655   N     0.45257   0.35204   0.46910   0.00000  Uiso   1.00
H656   H     0.42582   0.35480   0.49748   0.00000  Uiso   1.00
H657   H     0.44199   0.33540   0.42331   0.00000  Uiso   1.00
N658   N     0.05045   0.64240   0.58388   0.00000  Uiso   1.00
H659   H     0.06489   0.63592   0.62501   0.00000  Uiso   1.00
H660   H     0.02886   0.33954   0.59584   0.00000  Uiso   1.00
N661   N     0.26886   0.64996   0.41879   0.00000  Uiso   1.00
H662   H     0.29918   0.33444   0.41105   0.00000  Uiso   1.00
H663   H     0.24522   0.65276   0.38347   0.00000  Uiso   1.00
N664   N     0.23194   0.35007   0.58143   0.00000  Uiso   1.00
H665   H     0.20160   0.66561   0.58917   0.00000  Uiso   1.00
H666   H     0.25559   0.34712   0.61667   0.00000  Uiso   1.00
C667   C     0.74938   0.40016   0.48464   0.00000  Uiso   1.00
C668   C     0.75107   0.59987   0.51538   0.00000  Uiso   1.00
C669   C     0.52100   0.40509   0.47572   0.00000  Uiso   1.00
C670   C     0.97934   0.59212   0.55065   0.00000  Uiso   1.00
C671   C     0.75397   0.34498   0.47656   0.00000  Uiso   1.00
C672   C     0.74682   0.65511   0.52363   0.00000  Uiso   1.00
C673   C     0.66460   0.50132   0.50141   0.00000  Uiso   1.00
C674   C     0.83535   0.49856   0.49853   0.00000  Uiso   1.00
C675   C     0.90835   0.54413   0.52277   0.00000  Uiso   1.00
C676   C     0.59182   0.45446   0.48961   0.00000  Uiso   1.00
C677   C     0.88341   0.49792   0.49626   0.00000  Uiso   1.00
C678   C     0.61650   0.50216   0.50431   0.00000  Uiso   1.00
C679   C     0.90411   0.45113   0.47274   0.00000  Uiso   1.00
C680   C     0.59564   0.54992   0.52056   0.00000  Uiso   1.00
C681   C     0.95129   0.44990   0.48309   0.00000  Uiso   1.00
C682   C     0.54872   0.54900   0.52706   0.00000  Uiso   1.00
C683   C     0.97652   0.49841   0.50504   0.00000  Uiso   1.00
C684   C     0.52359   0.50026   0.50735   0.00000  Uiso   1.00
C685   C     0.95471   0.54515   0.52538   0.00000  Uiso   1.00
C686   C     0.54548   0.45318   0.49005   0.00000  Uiso   1.00
C687   C     0.97440   0.40265   0.47379   0.00000  Uiso   1.00
C688   C     0.52612   0.59452   0.55291   0.00000  Uiso   1.00
Cu689  Cu    0.75500   0.50579   0.56146   0.00000  Uiso   1.00
Cu690  Cu    0.74499   0.49421   0.43854   0.00000  Uiso   1.00
H691   H     0.89134   0.57960   0.54071   0.00000  Uiso   1.00
H692   H     0.60892   0.41828   0.47704   0.00000  Uiso   1.00
H693   H     0.53820   0.36889   0.46673   0.00000  Uiso   1.00
H694   H     0.96201   0.62710   0.56930   0.00000  Uiso   1.00
H695   H     0.71495   0.45987   0.64968   0.00000  Uiso   1.00
H696   H     0.78512   0.54005   0.35031   0.00000  Uiso   1.00
N697   N     0.73744   0.48547   0.34617   0.00000  Uiso   1.00
N698   N     0.76255   0.51453   0.65383   0.00000  Uiso   1.00
O699   O     0.75325   0.42871   0.53992   0.00000  Uiso   1.00
O700   O     0.74674   0.57129   0.46008   0.00000  Uiso   1.00
O701   O     0.74480   0.41892   0.43612   0.00000  Uiso   1.00
O702   O     0.75520   0.58108   0.56388   0.00000  Uiso   1.00
O703   O     0.68935   0.50488   0.55191   0.00000  Uiso   1.00
O704   O     0.81064   0.49512   0.44809   0.00000  Uiso   1.00
O705   O     0.68090   0.49510   0.44810   0.00000  Uiso   1.00
O706   O     0.81910   0.50490   0.55190   0.00000  Uiso   1.00
O707   O     0.87731   0.40724   0.44317   0.00000  Uiso   1.00
C708   C     0.88511   0.39316   0.37951   0.00000  Uiso   1.00
H709   H     0.87924   0.34994   0.36431   0.00000  Uiso   1.00
H710   H     0.92013   0.40245   0.36925   0.00000  Uiso   1.00
C711   C     0.85254   0.41823   0.34078   0.00000  Uiso   1.00
H712   H     0.81758   0.40916   0.35082   0.00000  Uiso   1.00
H713   H     0.85922   0.46143   0.35236   0.00000  Uiso   1.00
C714   C     0.85807   0.39738   0.60545   0.00000  Uiso   1.00
H715   H     0.89249   0.40741   0.59413   0.00000  Uiso   1.00
H716   H     0.83397   0.41525   0.57792   0.00000  Uiso   1.00
H717   H     0.85152   0.35416   0.59243   0.00000  Uiso   1.00
O718   O     0.62228   0.59615   0.53227   0.00000  Uiso   1.00
C719   C     0.61311   0.62518   0.48668   0.00000  Uiso   1.00
H720   H     0.62543   0.66633   0.50695   0.00000  Uiso   1.00
H721   H     0.57681   0.62621   0.47387   0.00000  Uiso   1.00
C722   C     0.63683   0.60471   0.42780   0.00000  Uiso   1.00
H723   H     0.67113   0.59502   0.43978   0.00000  Uiso   1.00
H724   H     0.61845   0.56854   0.40036   0.00000  Uiso   1.00
C725   C     0.63939   0.64573   0.38895   0.00000  Uiso   1.00
H726   H     0.60597   0.66121   0.38260   0.00000  Uiso   1.00
H727   H     0.65148   0.62801   0.34317   0.00000  Uiso   1.00
H728   H     0.66295   0.34563   0.41230   0.00000  Uiso   1.00
N729   N     0.95257   0.35204   0.46910   0.00000  Uiso   1.00
H730   H     0.92582   0.35480   0.49748   0.00000  Uiso   1.00
H731   H     0.94199   0.33540   0.42331   0.00000  Uiso   1.00
N732   N     0.55045   0.64240   0.58388   0.00000  Uiso   1.00
H733   H     0.56489   0.63592   0.62501   0.00000  Uiso   1.00
H734   H     0.52886   0.33954   0.59584   0.00000  Uiso   1.00
N735   N     0.76886   0.64996   0.41879   0.00000  Uiso   1.00
H736   H     0.79918   0.33444   0.41105   0.00000  Uiso   1.00
H737   H     0.74522   0.65276   0.38347   0.00000  Uiso   1.00
N738   N     0.73194   0.35007   0.58143   0.00000  Uiso   1.00
H739   H     0.70160   0.66561   0.58917   0.00000  Uiso   1.00
H740   H     0.75559   0.34712   0.61667   0.00000  Uiso   1.00
C741   C     0.24938   0.73350   0.48464   0.00000  Uiso   1.00
C742   C     0.25107   0.93320   0.51538   0.00000  Uiso   1.00
C743   C     0.02100   0.73842   0.47572   0.00000  Uiso   1.00
C744   C     0.47934   0.92545   0.55065   0.00000  Uiso   1.00
C745   C     0.25397   0.67831   0.47656   0.00000  Uiso   1.00
C746   C     0.24682   0.98845   0.52363   0.00000  Uiso   1.00
C747   C     0.16460   0.83466   0.50141   0.00000  Uiso   1.00
C748   C     0.33535   0.83190   0.49853   0.00000  Uiso   1.00
C749   C     0.40835   0.87746   0.52277   0.00000  Uiso   1.00
C750   C     0.09182   0.78779   0.48961   0.00000  Uiso   1.00
C751   C     0.38341   0.83125   0.49626   0.00000  Uiso   1.00
C752   C     0.11650   0.83549   0.50431   0.00000  Uiso   1.00
C753   C     0.40411   0.78447   0.47274   0.00000  Uiso   1.00
C754   C     0.09564   0.88325   0.52056   0.00000  Uiso   1.00
C755   C     0.45129   0.78323   0.48309   0.00000  Uiso   1.00
C756   C     0.04872   0.88233   0.52706   0.00000  Uiso   1.00
C757   C     0.47652   0.83175   0.50504   0.00000  Uiso   1.00
C758   C     0.02359   0.83359   0.50735   0.00000  Uiso   1.00
C759   C     0.45471   0.87849   0.52538   0.00000  Uiso   1.00
C760   C     0.04548   0.78651   0.49005   0.00000  Uiso   1.00
C761   C     0.47440   0.73598   0.47379   0.00000  Uiso   1.00
C762   C     0.02612   0.92785   0.55291   0.00000  Uiso   1.00
Cu763  Cu    0.25500   0.83913   0.56146   0.00000  Uiso   1.00
Cu764  Cu    0.24499   0.82754   0.43854   0.00000  Uiso   1.00
H765   H     0.39134   0.91293   0.54071   0.00000  Uiso   1.00
H766   H     0.10892   0.75161   0.47704   0.00000  Uiso   1.00
H767   H     0.03820   0.70223   0.46673   0.00000  Uiso   1.00
H768   H     0.46201   0.96043   0.56930   0.00000  Uiso   1.00
H769   H     0.21495   0.79320   0.64968   0.00000  Uiso   1.00
H770   H     0.28512   0.87338   0.35031   0.00000  Uiso   1.00
N771   N     0.23744   0.81881   0.34617   0.00000  Uiso   1.00
N772   N     0.26255   0.84786   0.65383   0.00000  Uiso   1.00
O773   O     0.25325   0.76204   0.53992   0.00000  Uiso   1.00
O774   O     0.24674   0.90462   0.46008   0.00000  Uiso   1.00
O775   O     0.24480   0.75226   0.43612   0.00000  Uiso   1.00
O776   O     0.25520   0.91441   0.56388   0.00000  Uiso   1.00
O777   O     0.18935   0.83821   0.55191   0.00000  Uiso   1.00
O778   O     0.31064   0.82845   0.44809   0.00000  Uiso   1.00
O779   O     0.18090   0.82843   0.44810   0.00000  Uiso   1.00
O780   O     0.31910   0.83824   0.55190   0.00000  Uiso   1.00
O781   O     0.37731   0.74057   0.44317   0.00000  Uiso   1.00
C782   C     0.38511   0.72649   0.37951   0.00000  Uiso   1.00
H783   H     0.37924   0.68327   0.36431   0.00000  Uiso   1.00
H784   H     0.42013   0.73579   0.36925   0.00000  Uiso   1.00
C785   C     0.35254   0.75156   0.34078   0.00000  Uiso   1.00
H786   H     0.31758   0.74250   0.35082   0.00000  Uiso   1.00
H787   H     0.35922   0.79476   0.35236   0.00000  Uiso   1.00
C788   C     0.35807   0.73071   0.60545   0.00000  Uiso   1.00
H789   H     0.39249   0.74074   0.59413   0.00000  Uiso   1.00
H790   H     0.33397   0.74858   0.57792   0.00000  Uiso   1.00
H791   H     0.35152   0.68749   0.59243   0.00000  Uiso   1.00
O792   O     0.12228   0.92948   0.53227   0.00000  Uiso   1.00
C793   C     0.11311   0.95851   0.48668   0.00000  Uiso   1.00
H794   H     0.12543   0.99967   0.50695   0.00000  Uiso   1.00
H795   H     0.07681   0.95955   0.47387   0.00000  Uiso   1.00
C796   C     0.13683   0.93804   0.42780   0.00000  Uiso   1.00
H797   H     0.17113   0.92835   0.43978   0.00000  Uiso   1.00
H798   H     0.11845   0.90187   0.40036   0.00000  Uiso   1.00
C799   C     0.13939   0.97906   0.38895   0.00000  Uiso   1.00
H800   H     0.10597   0.99455   0.38260   0.00000  Uiso   1.00
H801   H     0.15148   0.96134   0.34317   0.00000  Uiso   1.00
H802   H     0.16295   0.67896   0.41230   0.00000  Uiso   1.00
N803   N     0.45257   0.68538   0.46910   0.00000  Uiso   1.00
H804   H     0.42582   0.68813   0.49748   0.00000  Uiso   1.00
H805   H     0.44199   0.66873   0.42331   0.00000  Uiso   1.00
N806   N     0.05045   0.97573   0.58388   0.00000  Uiso   1.00
H807   H     0.06489   0.96926   0.62501   0.00000  Uiso   1.00
H808   H     0.02886   0.67287   0.59584   0.00000  Uiso   1.00
N809   N     0.26886   0.98330   0.41879   0.00000  Uiso   1.00
H810   H     0.29918   0.66778   0.41105   0.00000  Uiso   1.00
H811   H     0.24522   0.98609   0.38347   0.00000  Uiso   1.00
N812   N     0.23194   0.68341   0.58143   0.00000  Uiso   1.00
H813   H     0.20160   0.99895   0.58917   0.00000  Uiso   1.00
H814   H     0.25559   0.68045   0.61667   0.00000  Uiso   1.00
C815   C     0.74938   0.73350   0.48464   0.00000  Uiso   1.00
C816   C     0.75107   0.93320   0.51538   0.00000  Uiso   1.00
C817   C     0.52100   0.73842   0.47572   0.00000  Uiso   1.00
C818   C     0.97934   0.92545   0.55065   0.00000  Uiso   1.00
C819   C     0.75397   0.67831   0.47656   0.00000  Uiso   1.00
C820   C     0.74682   0.98845   0.52363   0.00000  Uiso   1.00
C821   C     0.66460   0.83466   0.50141   0.00000  Uiso   1.00
C822   C     0.83535   0.83190   0.49853   0.00000  Uiso   1.00
C823   C     0.90835   0.87746   0.52277   0.00000  Uiso   1.00
C824   C     0.59182   0.78779   0.48961   0.00000  Uiso   1.00
C825   C     0.88341   0.83125   0.49626   0.00000  Uiso   1.00
C826   C     0.61650   0.83549   0.50431   0.00000  Uiso   1.00
C827   C     0.90411   0.78447   0.47274   0.00000  Uiso   1.00
C828   C     0.59564   0.88325   0.52056   0.00000  Uiso   1.00
C829   C     0.95129   0.78323   0.48309   0.00000  Uiso   1.00
C830   C     0.54872   0.88233   0.52706   0.00000  Uiso   1.00
C831   C     0.97652   0.83175   0.50504   0.00000  Uiso   1.00
C832   C     0.52359   0.83359   0.50735   0.00000  Uiso   1.00
C833   C     0.95471   0.87849   0.52538   0.00000  Uiso   1.00
C834   C     0.54548   0.78651   0.49005   0.00000  Uiso   1.00
C835   C     0.97440   0.73598   0.47379   0.00000  Uiso   1.00
C836   C     0.52612   0.92785   0.55291   0.00000  Uiso   1.00
Cu837  Cu    0.75500   0.83913   0.56146   0.00000  Uiso   1.00
Cu838  Cu    0.74499   0.82754   0.43854   0.00000  Uiso   1.00
H839   H     0.89134   0.91293   0.54071   0.00000  Uiso   1.00
H840   H     0.60892   0.75161   0.47704   0.00000  Uiso   1.00
H841   H     0.53820   0.70223   0.46673   0.00000  Uiso   1.00
H842   H     0.96201   0.96043   0.56930   0.00000  Uiso   1.00
H843   H     0.71495   0.79320   0.64968   0.00000  Uiso   1.00
H844   H     0.78512   0.87338   0.35031   0.00000  Uiso   1.00
N845   N     0.73744   0.81881   0.34617   0.00000  Uiso   1.00
N846   N     0.76255   0.84786   0.65383   0.00000  Uiso   1.00
O847   O     0.75325   0.76204   0.53992   0.00000  Uiso   1.00
O848   O     0.74674   0.90462   0.46008   0.00000  Uiso   1.00
O849   O     0.74480   0.75226   0.43612   0.00000  Uiso   1.00
O850   O     0.75520   0.91441   0.56388   0.00000  Uiso   1.00
O851   O     0.68935   0.83821   0.55191   0.00000  Uiso   1.00
O852   O     0.81064   0.82845   0.44809   0.00000  Uiso   1.00
O853   O     0.68090   0.82843   0.44810   0.00000  Uiso   1.00
O854   O     0.81910   0.83824   0.55190   0.00000  Uiso   1.00
O855   O     0.87731   0.74057   0.44317   0.00000  Uiso   1.00
C856   C     0.88511   0.72649   0.37951   0.00000  Uiso   1.00
H857   H     0.87924   0.68327   0.36431   0.00000  Uiso   1.00
H858   H     0.92013   0.73579   0.36925   0.00000  Uiso   1.00
C859   C     0.85254   0.75156   0.34078   0.00000  Uiso   1.00
H860   H     0.81758   0.74250   0.35082   0.00000  Uiso   1.00
H861   H     0.85922   0.79476   0.35236   0.00000  Uiso   1.00
C862   C     0.85807   0.73071   0.60545   0.00000  Uiso   1.00
H863   H     0.89249   0.74074   0.59413   0.00000  Uiso   1.00
H864   H     0.83397   0.74858   0.57792   0.00000  Uiso   1.00
H865   H     0.85152   0.68749   0.59243   0.00000  Uiso   1.00
O866   O     0.62228   0.92948   0.53227   0.00000  Uiso   1.00
C867   C     0.61311   0.95851   0.48668   0.00000  Uiso   1.00
H868   H     0.62543   0.99967   0.50695   0.00000  Uiso   1.00
H869   H     0.57681   0.95955   0.47387   0.00000  Uiso   1.00
C870   C     0.63683   0.93804   0.42780   0.00000  Uiso   1.00
H871   H     0.67113   0.92835   0.43978   0.00000  Uiso   1.00
H872   H     0.61845   0.90187   0.40036   0.00000  Uiso   1.00
C873   C     0.63939   0.97906   0.38895   0.00000  Uiso   1.00
H874   H     0.60597   0.99455   0.38260   0.00000  Uiso   1.00
H875   H     0.65148   0.96134   0.34317   0.00000  Uiso   1.00
H876   H     0.66295   0.67896   0.41230   0.00000  Uiso   1.00
N877   N     0.95257   0.68538   0.46910   0.00000  Uiso   1.00
H878   H     0.92582   0.68813   0.49748   0.00000  Uiso   1.00
H879   H     0.94199   0.66873   0.42331   0.00000  Uiso   1.00
N880   N     0.55045   0.97573   0.58388   0.00000  Uiso   1.00
H881   H     0.56489   0.96926   0.62501   0.00000  Uiso   1.00
H882   H     0.52886   0.67287   0.59584   0.00000  Uiso   1.00
N883   N     0.76886   0.98330   0.41879   0.00000  Uiso   1.00
H884   H     0.79918   0.66778   0.41105   0.00000  Uiso   1.00
H885   H     0.74522   0.98609   0.38347   0.00000  Uiso   1.00
N886   N     0.73194   0.68341   0.58143   0.00000  Uiso   1.00
H887   H     0.70160   0.99895   0.58917   0.00000  Uiso   1.00
H888   H     0.75559   0.68045   0.61667   0.00000  Uiso   1.00
C889   C     0.24938   0.06683   0.81797   0.00000  Uiso   1.00
C890   C     0.25107   0.26654   0.84872   0.00000  Uiso   1.00
C891   C     0.02100   0.07176   0.80905   0.00000  Uiso   1.00
C892   C     0.47934   0.25878   0.88398   0.00000  Uiso   1.00
C893   C     0.25397   0.01164   0.80989   0.00000  Uiso   1.00
C894   C     0.24682   0.32178   0.85696   0.00000  Uiso   1.00
C895   C     0.16460   0.16799   0.83474   0.00000  Uiso   1.00
C896   C     0.33535   0.16523   0.83186   0.00000  Uiso   1.00
C897   C     0.40835   0.21080   0.85610   0.00000  Uiso   1.00
C898   C     0.09182   0.12112   0.82294   0.00000  Uiso   1.00
C899   C     0.38341   0.16458   0.82960   0.00000  Uiso   1.00
C900   C     0.11650   0.16883   0.83764   0.00000  Uiso   1.00
C901   C     0.40411   0.11780   0.80607   0.00000  Uiso   1.00
C902   C     0.09564   0.21659   0.85389   0.00000  Uiso   1.00
C903   C     0.45129   0.11657   0.81642   0.00000  Uiso   1.00
C904   C     0.04872   0.21567   0.86040   0.00000  Uiso   1.00
C905   C     0.47652   0.16508   0.83838   0.00000  Uiso   1.00
C906   C     0.02359   0.16693   0.84068   0.00000  Uiso   1.00
C907   C     0.45471   0.21182   0.85871   0.00000  Uiso   1.00
C908   C     0.04548   0.11984   0.82338   0.00000  Uiso   1.00
C909   C     0.47440   0.06931   0.80712   0.00000  Uiso   1.00
C910   C     0.02612   0.26118   0.88624   0.00000  Uiso   1.00
Cu911  Cu    0.25500   0.17246   0.89479   0.00000  Uiso   1.00
Cu912  Cu    0.24499   0.16087   0.77187   0.00000  Uiso   1.00
H913   H     0.39134   0.24626   0.87404   0.00000  Uiso   1.00
H914   H     0.10892   0.08495   0.81037   0.00000  Uiso   1.00
H915   H     0.03820   0.03556   0.80006   0.00000  Uiso   1.00
H916   H     0.46201   0.29377   0.90263   0.00000  Uiso   1.00
H917   H     0.21495   0.12653   0.98301   0.00000  Uiso   1.00
H918   H     0.28512   0.20671   0.68364   0.00000  Uiso   1.00
N919   N     0.23744   0.15214   0.67951   0.00000  Uiso   1.00
N920   N     0.26255   0.18119   0.98716   0.00000  Uiso   1.00
O921   O     0.25325   0.09538   0.87326   0.00000  Uiso   1.00
O922   O     0.24674   0.23796   0.79341   0.00000  Uiso   1.00
O923   O     0.24480   0.08559   0.76945   0.00000  Uiso   1.00
O924   O     0.25520   0.24774   0.89721   0.00000  Uiso   1.00
O925   O     0.18935   0.17155   0.88524   0.00000  Uiso   1.00
O926   O     0.31064   0.16179   0.78143   0.00000  Uiso   1.00
O927   O     0.18090   0.16176   0.78143   0.00000  Uiso   1.00
O928   O     0.31910   0.17157   0.88523   0.00000  Uiso   1.00
O929   O     0.37731   0.07390   0.77650   0.00000  Uiso   1.00
C930   C     0.38511   0.05983   0.71284   0.00000  Uiso   1.00
H931   H     0.37924   0.01660   0.69764   0.00000  Uiso   1.00
H932   H     0.42013   0.06912   0.70258   0.00000  Uiso   1.00
C933   C     0.35254   0.08490   0.67411   0.00000  Uiso   1.00
H934   H     0.31758   0.07583   0.68415   0.00000  Uiso   1.00
H935   H     0.35922   0.12810   0.68570   0.00000  Uiso   1.00
C936   C     0.35807   0.06405   0.93878   0.00000  Uiso   1.00
H937   H     0.39249   0.07407   0.92746   0.00000  Uiso   1.00
H938   H     0.33397   0.08192   0.91126   0.00000  Uiso   1.00
H939   H     0.35152   0.02083   0.92576   0.00000  Uiso   1.00
O940   O     0.12228   0.26281   0.86561   0.00000  Uiso   1.00
C941   C     0.11311   0.29185   0.82001   0.00000  Uiso   1.00
H942   H     0.12543   0.33300   0.84028   0.00000  Uiso   1.00
H943   H     0.07681   0.29288   0.80720   0.00000  Uiso   1.00
C944   C     0.13683   0.27137   0.76113   0.00000  Uiso   1.00
H945   H     0.17113   0.26169   0.77311   0.00000  Uiso   1.00
H946   H     0.11845   0.23521   0.73369   0.00000  Uiso   1.00
C947   C     0.13939   0.31240   0.72229   0.00000  Uiso   1.00
H948   H     0.10597   0.32788   0.71593   0.00000  Uiso   1.00
H949   H     0.15148   0.29467   0.67651   0.00000  Uiso   1.00
H950   H     0.16295   0.01229   0.74563   0.00000  Uiso   1.00
N951   N     0.45257   0.01871   0.80243   0.00000  Uiso   1.00
H952   H     0.42582   0.02146   0.83081   0.00000  Uiso   1.00
H953   H     0.44199   0.00207   0.75664   0.00000  Uiso   1.00
N954   N     0.05045   0.30907   0.91721   0.00000  Uiso   1.00
H955   H     0.06489   0.30259   0.95834   0.00000  Uiso   1.00
H956   H     0.02886   0.00620   0.92918   0.00000  Uiso   1.00
N957   N     0.26886   0.31663   0.75213   0.00000  Uiso   1.00
H958   H     0.29918   0.00111   0.74438   0.00000  Uiso   1.00
H959   H     0.24522   0.31942   0.71680   0.00000  Uiso   1.00
N960   N     0.23194   0.01674   0.91476   0.00000  Uiso   1.00
H961   H     0.20160   0.33228   0.92250   0.00000  Uiso   1.00
H962   H     0.25559   0.01379   0.95001   0.00000  Uiso   1.00
C963   C     0.74938   0.06683   0.81797   0.00000  Uiso   1.00
C964   C     0.75107   0.26654   0.84872   0.00000  Uiso   1.00
C965   C     0.52100   0.07176   0.80905   0.00000  Uiso   1.00
C966   C     0.97934   0.25878   0.88398   0.00000  Uiso   1.00
C967   C     0.75397   0.01164   0.80989   0.00000  Uiso   1.00
C968   C     0.74682   0.32178   0.85696   0.00000  Uiso   1.00
C969   C     0.66460   0.16799   0.83474   0.00000  Uiso   1.00
C970   C     0.83535   0.16523   0.83186   0.00000  Uiso   1.00
C971   C     0.90835   0.21080   0.85610   0.00000  Uiso   1.00
C972   C     0.59182   0.12112   0.82294   0.00000  Uiso   1.00
C973   C     0.88341   0.16458   0.82960   0.00000  Uiso   1.00
C974   C     0.61650   0.16883   0.83764   0.00000  Uiso   1.00
C975   C     0.90411   0.11780   0.80607   0.00000  Uiso   1.00
C976   C     0.59564   0.21659   0.85389   0.00000  Uiso   1.00
C977   C     0.95129   0.11657   0.81642   0.00000  Uiso   1.00
C978   C     0.54872   0.21567   0.86040   0.00000  Uiso   1.00
C979   C     0.97652   0.16508   0.83838   0.00000  Uiso   1.00
C980   C     0.52359   0.16693   0.84068   0.00000  Uiso   1.00
C981   C     0.95471   0.21182   0.85871   0.00000  Uiso   1.00
C982   C     0.54548   0.11984   0.82338   0.00000  Uiso   1.00
C983   C     0.97440   0.06931   0.80712   0.00000  Uiso   1.00
C984   C     0.52612   0.26118   0.88624   0.00000  Uiso   1.00
Cu985  Cu    0.75500   0.17246   0.89479   0.00000  Uiso   1.00
Cu986  Cu    0.74499   0.16087   0.77187   0.00000  Uiso   1.00
H987   H     0.89134   0.24626   0.87404   0.00000  Uiso   1.00
H988   H     0.60892   0.08495   0.81037   0.00000  Uiso   1.00
H989   H     0.53820   0.03556   0.80006   0.00000  Uiso   1.00
H990   H     0.96201   0.29377   0.90263   0.00000  Uiso   1.00
H991   H     0.71495   0.12653   0.98301   0.00000  Uiso   1.00
H992   H     0.78512   0.20671   0.68364   0.00000  Uiso   1.00
N993   N     0.73744   0.15214   0.67951   0.00000  Uiso   1.00
N994   N     0.76255   0.18119   0.98716   0.00000  Uiso   1.00
O995   O     0.75325   0.09538   0.87326   0.00000  Uiso   1.00
O996   O     0.74674   0.23796   0.79341   0.00000  Uiso   1.00
O997   O     0.74480   0.08559   0.76945   0.00000  Uiso   1.00
O998   O     0.75520   0.24774   0.89721   0.00000  Uiso   1.00
O999   O     0.68935   0.17155   0.88524   0.00000  Uiso   1.00
O1000  O     0.81064   0.16179   0.78143   0.00000  Uiso   1.00
O1001  O     0.68090   0.16176   0.78143   0.00000  Uiso   1.00
O1002  O     0.81910   0.17157   0.88523   0.00000  Uiso   1.00
O1003  O     0.87731   0.07390   0.77650   0.00000  Uiso   1.00
C1004  C     0.88511   0.05983   0.71284   0.00000  Uiso   1.00
H1005  H     0.87924   0.01660   0.69764   0.00000  Uiso   1.00
H1006  H     0.92013   0.06912   0.70258   0.00000  Uiso   1.00
C1007  C     0.85254   0.08490   0.67411   0.00000  Uiso   1.00
H1008  H     0.81758   0.07583   0.68415   0.00000  Uiso   1.00
H1009  H     0.85922   0.12810   0.68570   0.00000  Uiso   1.00
C1010  C     0.85807   0.06405   0.93878   0.00000  Uiso   1.00
H1011  H     0.89249   0.07407   0.92746   0.00000  Uiso   1.00
H1012  H     0.83397   0.08192   0.91126   0.00000  Uiso   1.00
H1013  H     0.85152   0.02083   0.92576   0.00000  Uiso   1.00
O1014  O     0.62228   0.26281   0.86561   0.00000  Uiso   1.00
C1015  C     0.61311   0.29185   0.82001   0.00000  Uiso   1.00
H1016  H     0.62543   0.33300   0.84028   0.00000  Uiso   1.00
H1017  H     0.57681   0.29288   0.80720   0.00000  Uiso   1.00
C1018  C     0.63683   0.27137   0.76113   0.00000  Uiso   1.00
H1019  H     0.67113   0.26169   0.77311   0.00000  Uiso   1.00
H1020  H     0.61845   0.23521   0.73369   0.00000  Uiso   1.00
C1021  C     0.63939   0.31240   0.72229   0.00000  Uiso   1.00
H1022  H     0.60597   0.32788   0.71593   0.00000  Uiso   1.00
H1023  H     0.65148   0.29467   0.67651   0.00000  Uiso   1.00
H1024  H     0.66295   0.01229   0.74563   0.00000  Uiso   1.00
N1025  N     0.95257   0.01871   0.80243   0.00000  Uiso   1.00
H1026  H     0.92582   0.02146   0.83081   0.00000  Uiso   1.00
H1027  H     0.94199   0.00207   0.75664   0.00000  Uiso   1.00
N1028  N     0.55045   0.30907   0.91721   0.00000  Uiso   1.00
H1029  H     0.56489   0.30259   0.95834   0.00000  Uiso   1.00
H1030  H     0.52886   0.00620   0.92918   0.00000  Uiso   1.00
N1031  N     0.76886   0.31663   0.75213   0.00000  Uiso   1.00
H1032  H     0.79918   0.00111   0.74438   0.00000  Uiso   1.00
H1033  H     0.74522   0.31942   0.71680   0.00000  Uiso   1.00
N1034  N     0.73194   0.01674   0.91476   0.00000  Uiso   1.00
H1035  H     0.70160   0.33228   0.92250   0.00000  Uiso   1.00
H1036  H     0.75559   0.01379   0.95001   0.00000  Uiso   1.00
C1037  C     0.24938   0.40016   0.81797   0.00000  Uiso   1.00
C1038  C     0.25107   0.59987   0.84872   0.00000  Uiso   1.00
C1039  C     0.02100   0.40509   0.80905   0.00000  Uiso   1.00
C1040  C     0.47934   0.59212   0.88398   0.00000  Uiso   1.00
C1041  C     0.25397   0.34498   0.80989   0.00000  Uiso   1.00
C1042  C     0.24682   0.65511   0.85696   0.00000  Uiso   1.00
C1043  C     0.16460   0.50132   0.83474   0.00000  Uiso   1.00
C1044  C     0.33535   0.49856   0.83186   0.00000  Uiso   1.00
C1045  C     0.40835   0.54413   0.85610   0.00000  Uiso   1.00
C1046  C     0.09182   0.45446   0.82294   0.00000  Uiso   1.00
C1047  C     0.38341   0.49792   0.82960   0.00000  Uiso   1.00
C1048  C     0.11650   0.50216   0.83764   0.00000  Uiso   1.00
C1049  C     0.40411   0.45113   0.80607   0.00000  Uiso   1.00
C1050  C     0.09564   0.54992   0.85389   0.00000  Uiso   1.00
C1051  C     0.45129   0.44990   0.81642   0.00000  Uiso   1.00
C1052  C     0.04872   0.54900   0.86040   0.00000  Uiso   1.00
C1053  C     0.47652   0.49841   0.83838   0.00000  Uiso   1.00
C1054  C     0.02359   0.50026   0.84068   0.00000  Uiso   1.00
C1055  C     0.45471   0.54515   0.85871   0.00000  Uiso   1.00
C1056  C     0.04548   0.45318   0.82338   0.00000  Uiso   1.00
C1057  C     0.47440   0.40265   0.80712   0.00000  Uiso   1.00
C1058  C     0.02612   0.59452   0.88624   0.00000  Uiso   1.00
Cu1059 Cu    0.25500   0.50579   0.89479   0.00000  Uiso   1.00
Cu1060 Cu    0.24499   0.49421   0.77187   0.00000  Uiso   1.00
H1061  H     0.39134   0.57960   0.87404   0.00000  Uiso   1.00
H1062  H     0.10892   0.41828   0.81037   0.00000  Uiso   1.00
H1063  H     0.03820   0.36889   0.80006   0.00000  Uiso   1.00
H1064  H     0.46201   0.62710   0.90263   0.00000  Uiso   1.00
H1065  H     0.21495   0.45987   0.98301   0.00000  Uiso   1.00
H1066  H     0.28512   0.54005   0.68364   0.00000  Uiso   1.00
N1067  N     0.23744   0.48547   0.67951   0.00000  Uiso   1.00
N1068  N     0.26255   0.51453   0.98716   0.00000  Uiso   1.00
O1069  O     0.25325   0.42871   0.87326   0.00000  Uiso   1.00
O1070  O     0.24674   0.57129   0.79341   0.00000  Uiso   1.00
O1071  O     0.24480   0.41892   0.76945   0.00000  Uiso   1.00
O1072  O     0.25520   0.58108   0.89721   0.00000  Uiso   1.00
O1073  O     0.18935   0.50488   0.88524   0.00000  Uiso   1.00
O1074  O     0.31064   0.49512   0.78143   0.00000  Uiso   1.00
O1075  O     0.18090   0.49510   0.78143   0.00000  Uiso   1.00
O1076  O     0.31910   0.50490   0.88523   0.00000  Uiso   1.00
O1077  O     0.37731   0.40724   0.77650   0.00000  Uiso   1.00
C1078  C     0.38511   0.39316   0.71284   0.00000  Uiso   1.00
H1079  H     0.37924   0.34994   0.69764   0.00000  Uiso   1.00
H1080  H     0.42013   0.40245   0.70258   0.00000  Uiso   1.00
C1081  C     0.35254   0.41823   0.67411   0.00000  Uiso   1.00
H1082  H     0.31758   0.40916   0.68415   0.00000  Uiso   1.00
H1083  H     0.35922   0.46143   0.68570   0.00000  Uiso   1.00
C1084  C     0.35807   0.39738   0.93878   0.00000  Uiso   1.00
H1085  H     0.39249   0.40741   0.92746   0.00000  Uiso   1.00
H1086  H     0.33397   0.41525   0.91126   0.00000  Uiso   1.00
H1087  H     0.35152   0.35416   0.92576   0.00000  Uiso   1.00
O1088  O     0.12228   0.59615   0.86561   0.00000  Uiso   1.00
C1089  C     0.11311   0.62518   0.82001   0.00000  Uiso   1.00
H1090  H     0.12543   0.66633   0.84028   0.00000  Uiso   1.00
H1091  H     0.07681   0.62621   0.80720   0.00000  Uiso   1.00
C1092  C     0.13683   0.60471   0.76113   0.00000  Uiso   1.00
H1093  H     0.17113   0.59502   0.77311   0.00000  Uiso   1.00
H1094  H     0.11845   0.56854   0.73369   0.00000  Uiso   1.00
C1095  C     0.13939   0.64573   0.72229   0.00000  Uiso   1.00
H1096  H     0.10597   0.66121   0.71593   0.00000  Uiso   1.00
H1097  H     0.15148   0.62801   0.67651   0.00000  Uiso   1.00
H1098  H     0.16295   0.34563   0.74563   0.00000  Uiso   1.00
N1099  N     0.45257   0.35204   0.80243   0.00000  Uiso   1.00
H1100  H     0.42582   0.35480   0.83081   0.00000  Uiso   1.00
H1101  H     0.44199   0.33540   0.75664   0.00000  Uiso   1.00
N1102  N     0.05045   0.64240   0.91721   0.00000  Uiso   1.00
H1103  H     0.06489   0.63592   0.95834   0.00000  Uiso   1.00
H1104  H     0.02886   0.33954   0.92918   0.00000  Uiso   1.00
N1105  N     0.26886   0.64996   0.75213   0.00000  Uiso   1.00
H1106  H     0.29918   0.33444   0.74438   0.00000  Uiso   1.00
H1107  H     0.24522   0.65276   0.71680   0.00000  Uiso   1.00
N1108  N     0.23194   0.35007   0.91476   0.00000  Uiso   1.00
H1109  H     0.20160   0.66561   0.92250   0.00000  Uiso   1.00
H1110  H     0.25559   0.34712   0.95001   0.00000  Uiso   1.00
C1111  C     0.74938   0.40016   0.81797   0.00000  Uiso   1.00
C1112  C     0.75107   0.59987   0.84872   0.00000  Uiso   1.00
C1113  C     0.52100   0.40509   0.80905   0.00000  Uiso   1.00
C1114  C     0.97934   0.59212   0.88398   0.00000  Uiso   1.00
C1115  C     0.75397   0.34498   0.80989   0.00000  Uiso   1.00
C1116  C     0.74682   0.65511   0.85696   0.00000  Uiso   1.00
C1117  C     0.66460   0.50132   0.83474   0.00000  Uiso   1.00
C1118  C     0.83535   0.49856   0.83186   0.00000  Uiso   1.00
C1119  C     0.90835   0.54413   0.85610   0.00000  Uiso   1.00
C1120  C     0.59182   0.45446   0.82294   0.00000  Uiso   1.00
C1121  C     0.88341   0.49792   0.82960   0.00000  Uiso   1.00
C1122  C     0.61650   0.50216   0.83764   0.00000  Uiso   1.00
C1123  C     0.90411   0.45113   0.80607   0.00000  Uiso   1.00
C1124  C     0.59564   0.54992   0.85389   0.00000  Uiso   1.00
C1125  C     0.95129   0.44990   0.81642   0.00000  Uiso   1.00
C1126  C     0.54872   0.54900   0.86040   0.00000  Uiso   1.00
C1127  C     0.97652   0.49841   0.83838   0.00000  Uiso   1.00
C1128  C     0.52359   0.50026   0.84068   0.00000  Uiso   1.00
C1129  C     0.95471   0.54515   0.85871   0.00000  Uiso   1.00
C1130  C     0.54548   0.45318   0.82338   0.00000  Uiso   1.00
C1131  C     0.97440   0.40265   0.80712   0.00000  Uiso   1.00
C1132  C     0.52612   0.59452   0.88624   0.00000  Uiso   1.00
Cu1133 Cu    0.75500   0.50579   0.89479   0.00000  Uiso   1.00
Cu1134 Cu    0.74499   0.49421   0.77187   0.00000  Uiso   1.00
H1135  H     0.89134   0.57960   0.87404   0.00000  Uiso   1.00
H1136  H     0.60892   0.41828   0.81037   0.00000  Uiso   1.00
H1137  H     0.53820   0.36889   0.80006   0.00000  Uiso   1.00
H1138  H     0.96201   0.62710   0.90263   0.00000  Uiso   1.00
H1139  H     0.71495   0.45987   0.98301   0.00000  Uiso   1.00
H1140  H     0.78512   0.54005   0.68364   0.00000  Uiso   1.00
N1141  N     0.73744   0.48547   0.67951   0.00000  Uiso   1.00
N1142  N     0.76255   0.51453   0.98716   0.00000  Uiso   1.00
O1143  O     0.75325   0.42871   0.87326   0.00000  Uiso   1.00
O1144  O     0.74674   0.57129   0.79341   0.00000  Uiso   1.00
O1145  O     0.74480   0.41892   0.76945   0.00000  Uiso   1.00
O1146  O     0.75520   0.58108   0.89721   0.00000  Uiso   1.00
O1147  O     0.68935   0.50488   0.88524   0.00000  Uiso   1.00
O1148  O     0.81064   0.49512   0.78143   0.00000  Uiso   1.00
O1149  O     0.68090   0.49510   0.78143   0.00000  Uiso   1.00
O1150  O     0.81910   0.50490   0.88523   0.00000  Uiso   1.00
O1151  O     0.87731   0.40724   0.77650   0.00000  Uiso   1.00
C1152  C     0.88511   0.39316   0.71284   0.00000  Uiso   1.00
H1153  H     0.87924   0.34994   0.69764   0.00000  Uiso   1.00
H1154  H     0.92013   0.40245   0.70258   0.00000  Uiso   1.00
C1155  C     0.85254   0.41823   0.67411   0.00000  Uiso   1.00
H1156  H     0.81758   0.40916   0.68415   0.00000  Uiso   1.00
H1157  H     0.85922   0.46143   0.68570   0.00000  Uiso   1.00
C1158  C     0.85807   0.39738   0.93878   0.00000  Uiso   1.00
H1159  H     0.89249   0.40741   0.92746   0.00000  Uiso   1.00
H1160  H     0.83397   0.41525   0.91126   0.00000  Uiso   1.00
H1161  H     0.85152   0.35416   0.92576   0.00000  Uiso   1.00
O1162  O     0.62228   0.59615   0.86561   0.00000  Uiso   1.00
C1163  C     0.61311   0.62518   0.82001   0.00000  Uiso   1.00
H1164  H     0.62543   0.66633   0.84028   0.00000  Uiso   1.00
H1165  H     0.57681   0.62621   0.80720   0.00000  Uiso   1.00
C1166  C     0.63683   0.60471   0.76113   0.00000  Uiso   1.00
H1167  H     0.67113   0.59502   0.77311   0.00000  Uiso   1.00
H1168  H     0.61845   0.56854   0.73369   0.00000  Uiso   1.00
C1169  C     0.63939   0.64573   0.72229   0.00000  Uiso   1.00
H1170  H     0.60597   0.66121   0.71593   0.00000  Uiso   1.00
H1171  H     0.65148   0.62801   0.67651   0.00000  Uiso   1.00
H1172  H     0.66295   0.34563   0.74563   0.00000  Uiso   1.00
N1173  N     0.95257   0.35204   0.80243   0.00000  Uiso   1.00
H1174  H     0.92582   0.35480   0.83081   0.00000  Uiso   1.00
H1175  H     0.94199   0.33540   0.75664   0.00000  Uiso   1.00
N1176  N     0.55045   0.64240   0.91721   0.00000  Uiso   1.00
H1177  H     0.56489   0.63592   0.95834   0.00000  Uiso   1.00
H1178  H     0.52886   0.33954   0.92918   0.00000  Uiso   1.00
N1179  N     0.76886   0.64996   0.75213   0.00000  Uiso   1.00
H1180  H     0.79918   0.33444   0.74438   0.00000  Uiso   1.00
H1181  H     0.74522   0.65276   0.71680   0.00000  Uiso   1.00
N1182  N     0.73194   0.35007   0.91476   0.00000  Uiso   1.00
H1183  H     0.70160   0.66561   0.92250   0.00000  Uiso   1.00
H1184  H     0.75559   0.34712   0.95001   0.00000  Uiso   1.00
C1185  C     0.24938   0.73350   0.81797   0.00000  Uiso   1.00
C1186  C     0.25107   0.93320   0.84872   0.00000  Uiso   1.00
C1187  C     0.02100   0.73842   0.80905   0.00000  Uiso   1.00
C1188  C     0.47934   0.92545   0.88398   0.00000  Uiso   1.00
C1189  C     0.25397   0.67831   0.80989   0.00000  Uiso   1.00
C1190  C     0.24682   0.98845   0.85696   0.00000  Uiso   1.00
C1191  C     0.16460   0.83466   0.83474   0.00000  Uiso   1.00
C1192  C     0.33535   0.83190   0.83186   0.00000  Uiso   1.00
C1193  C     0.40835   0.87746   0.85610   0.00000  Uiso   1.00
C1194  C     0.09182   0.78779   0.82294   0.00000  Uiso   1.00
C1195  C     0.38341   0.83125   0.82960   0.00000  Uiso   1.00
C1196  C     0.11650   0.83549   0.83764   0.00000  Uiso   1.00
C1197  C     0.40411   0.78447   0.80607   0.00000  Uiso   1.00
C1198  C     0.09564   0.88325   0.85389   0.00000  Uiso   1.00
C1199  C     0.45129   0.78323   0.81642   0.00000  Uiso   1.00
C1200  C     0.04872   0.88233   0.86040   0.00000  Uiso   1.00
C1201  C     0.47652   0.83175   0.83838   0.00000  Uiso   1.00
C1202  C     0.02359   0.83359   0.84068   0.00000  Uiso   1.00
C1203  C     0.45471   0.87849   0.85871   0.00000  Uiso   1.00
C1204  C     0.04548   0.78651   0.82338   0.00000  Uiso   1.00
C1205  C     0.47440   0.73598   0.80712   0.00000  Uiso   1.00
C1206  C     0.02612   0.92785   0.88624   0.00000  Uiso   1.00
Cu1207 Cu    0.25500   0.83913   0.89479   0.00000  Uiso   1.00
Cu1208 Cu    0.24499   0.82754   0.77187   0.00000  Uiso   1.00
H1209  H     0.39134   0.91293   0.87404   0.00000  Uiso   1.00
H1210  H     0.10892   0.75161   0.81037   0.00000  Uiso   1.00
H1211  H     0.03820   0.70223   0.80006   0.00000  Uiso   1.00
H1212  H     0.46201   0.96043   0.90263   0.00000  Uiso   1.00
H1213  H     0.21495   0.79320   0.98301   0.00000  Uiso   1.00
H1214  H     0.28512   0.87338   0.68364   0.00000  Uiso   1.00
N1215  N     0.23744   0.81881   0.67951   0.00000  Uiso   1.00
N1216  N     0.26255   0.84786   0.98716   0.00000  Uiso   1.00
O1217  O     0.25325   0.76204   0.87326   0.00000  Uiso   1.00
O1218  O     0.24674   0.90462   0.79341   0.00000  Uiso   1.00
O1219  O     0.24480   0.75226   0.76945   0.00000  Uiso   1.00
O1220  O     0.25520   0.91441   0.89721   0.00000  Uiso   1.00
O1221  O     0.18935   0.83821   0.88524   0.00000  Uiso   1.00
O1222  O     0.31064   0.82845   0.78143   0.00000  Uiso   1.00
O1223  O     0.18090   0.82843   0.78143   0.00000  Uiso   1.00
O1224  O     0.31910   0.83824   0.88523   0.00000  Uiso   1.00
O1225  O     0.37731   0.74057   0.77650   0.00000  Uiso   1.00
C1226  C     0.38511   0.72649   0.71284   0.00000  Uiso   1.00
H1227  H     0.37924   0.68327   0.69764   0.00000  Uiso   1.00
H1228  H     0.42013   0.73579   0.70258   0.00000  Uiso   1.00
C1229  C     0.35254   0.75156   0.67411   0.00000  Uiso   1.00
H1230  H     0.31758   0.74250   0.68415   0.00000  Uiso   1.00
H1231  H     0.35922   0.79476   0.68570   0.00000  Uiso   1.00
C1232  C     0.35807   0.73071   0.93878   0.00000  Uiso   1.00
H1233  H     0.39249   0.74074   0.92746   0.00000  Uiso   1.00
H1234  H     0.33397   0.74858   0.91126   0.00000  Uiso   1.00
H1235  H     0.35152   0.68749   0.92576   0.00000  Uiso   1.00
O1236  O     0.12228   0.92948   0.86561   0.00000  Uiso   1.00
C1237  C     0.11311   0.95851   0.82001   0.00000  Uiso   1.00
H1238  H     0.12543   0.99967   0.84028   0.00000  Uiso   1.00
H1239  H     0.07681   0.95955   0.80720   0.00000  Uiso   1.00
C1240  C     0.13683   0.93804   0.76113   0.00000  Uiso   1.00
H1241  H     0.17113   0.92835   0.77311   0.00000  Uiso   1.00
H1242  H     0.11845   0.90187   0.73369   0.00000  Uiso   1.00
C1243  C     0.13939   0.97906   0.72229   0.00000  Uiso   1.00
H1244  H     0.10597   0.99455   0.71593   0.00000  Uiso   1.00
H1245  H     0.15148   0.96134   0.67651   0.00000  Uiso   1.00
H1246  H     0.16295   0.67896   0.74563   0.00000  Uiso   1.00
N1247  N     0.45257   0.68538   0.80243   0.00000  Uiso   1.00
H1248  H     0.42582   0.68813   0.83081   0.00000  Uiso   1.00
H1249  H     0.44199   0.66873   0.75664   0.00000  Uiso   1.00
N1250  N     0.05045   0.97573   0.91721   0.00000  Uiso   1.00
H1251  H     0.06489   0.96926   0.95834   0.00000  Uiso   1.00
H1252  H     0.02886   0.67287   0.92918   0.00000  Uiso   1.00
N1253  N     0.26886   0.98330   0.75213   0.00000  Uiso   1.00
H1254  H     0.29918   0.66778   0.74438   0.00000  Uiso   1.00
H1255  H     0.24522   0.98609   0.71680   0.00000  Uiso   1.00
N1256  N     0.23194   0.68341   0.91476   0.00000  Uiso   1.00
H1257  H     0.20160   0.99895   0.92250   0.00000  Uiso   1.00
H1258  H     0.25559   0.68045   0.95001   0.00000  Uiso   1.00
C1259  C     0.74938   0.73350   0.81797   0.00000  Uiso   1.00
C1260  C     0.75107   0.93320   0.84872   0.00000  Uiso   1.00
C1261  C     0.52100   0.73842   0.80905   0.00000  Uiso   1.00
C1262  C     0.97934   0.92545   0.88398   0.00000  Uiso   1.00
C1263  C     0.75397   0.67831   0.80989   0.00000  Uiso   1.00
C1264  C     0.74682   0.98845   0.85696   0.00000  Uiso   1.00
C1265  C     0.66460   0.83466   0.83474   0.00000  Uiso   1.00
C1266  C     0.83535   0.83190   0.83186   0.00000  Uiso   1.00
C1267  C     0.90835   0.87746   0.85610   0.00000  Uiso   1.00
C1268  C     0.59182   0.78779   0.82294   0.00000  Uiso   1.00
C1269  C     0.88341   0.83125   0.82960   0.00000  Uiso   1.00
C1270  C     0.61650   0.83549   0.83764   0.00000  Uiso   1.00
C1271  C     0.90411   0.78447   0.80607   0.00000  Uiso   1.00
C1272  C     0.59564   0.88325   0.85389   0.00000  Uiso   1.00
C1273  C     0.95129   0.78323   0.81642   0.00000  Uiso   1.00
C1274  C     0.54872   0.88233   0.86040   0.00000  Uiso   1.00
C1275  C     0.97652   0.83175   0.83838   0.00000  Uiso   1.00
C1276  C     0.52359   0.83359   0.84068   0.00000  Uiso   1.00
C1277  C     0.95471   0.87849   0.85871   0.00000  Uiso   1.00
C1278  C     0.54548   0.78651   0.82338   0.00000  Uiso   1.00
C1279  C     0.97440   0.73598   0.80712   0.00000  Uiso   1.00
C1280  C     0.52612   0.92785   0.88624   0.00000  Uiso   1.00
Cu1281 Cu    0.75500   0.83913   0.89479   0.00000  Uiso   1.00
Cu1282 Cu    0.74499   0.82754   0.77187   0.00000  Uiso   1.00
H1283  H     0.89134   0.91293   0.87404   0.00000  Uiso   1.00
H1284  H     0.60892   0.75161   0.81037   0.00000  Uiso   1.00
H1285  H     0.53820   0.70223   0.80006   0.00000  Uiso   1.00
H1286  H     0.96201   0.96043   0.90263   0.00000  Uiso   1.00
H1287  H     0.71495   0.79320   0.98301   0.00000  Uiso   1.00
H1288  H     0.78512   0.87338   0.68364   0.00000  Uiso   1.00
N1289  N     0.73744   0.81881   0.67951   0.00000  Uiso   1.00
N1290  N     0.76255   0.84786   0.98716   0.00000  Uiso   1.00
O1291  O     0.75325   0.76204   0.87326   0.00000  Uiso   1.00
O1292  O     0.74674   0.90462   0.79341   0.00000  Uiso   1.00
O1293  O     0.74480   0.75226   0.76945   0.00000  Uiso   1.00
O1294  O     0.75520   0.91441   0.89721   0.00000  Uiso   1.00
O1295  O     0.68935   0.83821   0.88524   0.00000  Uiso   1.00
O1296  O     0.81064   0.82845   0.78143   0.00000  Uiso   1.00
O1297  O     0.68090   0.82843   0.78143   0.00000  Uiso   1.00
O1298  O     0.81910   0.83824   0.88523   0.00000  Uiso   1.00
O1299  O     0.87731   0.74057   0.77650   0.00000  Uiso   1.00
C1300  C     0.88511   0.72649   0.71284   0.00000  Uiso   1.00
H1301  H     0.87924   0.68327   0.69764   0.00000  Uiso   1.00
H1302  H     0.92013   0.73579   0.70258   0.00000  Uiso   1.00
C1303  C     0.85254   0.75156   0.67411   0.00000  Uiso   1.00
H1304  H     0.81758   0.74250   0.68415   0.00000  Uiso   1.00
H1305  H     0.85922   0.79476   0.68570   0.00000  Uiso   1.00
C1306  C     0.85807   0.73071   0.93878   0.00000  Uiso   1.00
H1307  H     0.89249   0.74074   0.92746   0.00000  Uiso   1.00
H1308  H     0.83397   0.74858   0.91126   0.00000  Uiso   1.00
H1309  H     0.85152   0.68749   0.92576   0.00000  Uiso   1.00
O1310  O     0.62228   0.92948   0.86561   0.00000  Uiso   1.00
C1311  C     0.61311   0.95851   0.82001   0.00000  Uiso   1.00
H1312  H     0.62543   0.99967   0.84028   0.00000  Uiso   1.00
H1313  H     0.57681   0.95955   0.80720   0.00000  Uiso   1.00
C1314  C     0.63683   0.93804   0.76113   0.00000  Uiso   1.00
H1315  H     0.67113   0.92835   0.77311   0.00000  Uiso   1.00
H1316  H     0.61845   0.90187   0.73369   0.00000  Uiso   1.00
C1317  C     0.63939   0.97906   0.72229   0.00000  Uiso   1.00
H1318  H     0.60597   0.99455   0.71593   0.00000  Uiso   1.00
H1319  H     0.65148   0.96134   0.67651   0.00000  Uiso   1.00
H1320  H     0.66295   0.67896   0.74563   0.00000  Uiso   1.00
N1321  N     0.95257   0.68538   0.80243   0.00000  Uiso   1.00
H1322  H     0.92582   0.68813   0.83081   0.00000  Uiso   1.00
H1323  H     0.94199   0.66873   0.75664   0.00000  Uiso   1.00
N1324  N     0.55045   0.97573   0.91721   0.00000  Uiso   1.00
H1325  H     0.56489   0.96926   0.95834   0.00000  Uiso   1.00
H1326  H     0.52886   0.67287   0.92918   0.00000  Uiso   1.00
N1327  N     0.76886   0.98330   0.75213   0.00000  Uiso   1.00
H1328  H     0.79918   0.66778   0.74438   0.00000  Uiso   1.00
H1329  H     0.74522   0.98609   0.71680   0.00000  Uiso   1.00
N1330  N     0.73194   0.68341   0.91476   0.00000  Uiso   1.00
H1331  H     0.70160   0.99895   0.92250   0.00000  Uiso   1.00
H1332  H     0.75559   0.68045   0.95001   0.00000  Uiso   1.00
loop_
_geom_bond_atom_site_label_1
_geom_bond_atom_site_label_2
_geom_bond_distance
_geom_bond_site_symmetry_2
_ccdc_geom_bond_type
C1     O33     1.287   .     A
C1     C5      1.431   .     S
C1     O35     1.287   .     A
C2     O34     1.288   .     A
C2     C6      1.430   .     S
C2     O36     1.286   .     A
C3     H27     1.083   .     S
C3     C20     1.395   .     A
C3     C95     1.392   1_455 S
C4     H28     1.085   .     S
C4     C19     1.395   .     A
C4     C96     1.398   .     S
C5     C302    1.348   1_545 S
C5     N365    1.441   1_545 S
C6     C153    1.348   .     S
C6     N220    1.441   .     S
C7     O37     1.295   .     A
C7     C12     1.447   .     S
C7     O39     1.291   .     A
C8     O38     1.293   .     A
C8     C11     1.444   .     S
C8     O40     1.291   .     A
C9     C11     1.389   .     A
C9     H25     1.086   .     S
C9     C19     1.386   .     A
C10    H26     1.085   .     S
C10    C12     1.390   .     A
C10    C20     1.388   .     A
C11    C13     1.406   .     A
C12    C14     1.406   .     A
C13    C15     1.421   .     A
C13    O41     1.389   .     S
C14    C16     1.421   .     A
C14    O52     1.389   .     S
C15    C21     1.424   .     A
C15    C17     1.424   .     A
C16    C22     1.420   .     A
C16    C18     1.423   .     A
C17    C19     1.409   .     A
C17    C92     1.406   .     S
C18    C20     1.409   .     A
C18    C91     1.406   1_455 S
C21    N63     1.435   .     S
C21    C77     1.392   .     S
C22    N66     1.437   .     S
C22    C78     1.398   1_455 S
Cu23   Cu24    2.687   .     S
Cu23   N32     2.019   .     S
Cu23   O40     1.945   .     S
Cu23   O36     1.962   .     S
Cu23   O37     1.964   .     S
Cu23   O33     1.967   .     S
Cu24   O38     1.964   .     S
Cu24   N31     2.019   .     S
Cu24   O35     1.962   .     S
Cu24   O39     1.945   .     S
Cu24   O34     1.967   .     S
H29    N475    1.029   .     S
H30    N920    1.029   1_554 S
N31    H917    1.029   1_554 S
N31    N920    1.293   1_554 S
N32    N475    1.293   .     S
N32    H474    1.029   .     S
O41    C42     1.420   .     S
C42    H44     1.115   .     S
C42    H43     1.111   .     S
C42    C45     1.529   .     S
C45    H46     1.111   .     S
C45    H47     1.111   .     S
C45    C936    1.527   1_554 S
C48    H50     1.105   .     S
C48    H49     1.111   .     S
C48    H51     1.111   .     S
C48    C489    1.527   .     S
O52    C53     1.421   .     S
C53    H54     1.111   .     S
C53    C56     1.530   .     S
C53    H55     1.111   .     S
C56    H58     1.112   .     S
C56    H57     1.101   .     S
C56    C59     1.526   .     S
C59    H60     1.109   .     S
C59    H61     1.111   .     S
C59    H210    1.110   .     S
H62    C355    1.110   1_545 S
N63    H65     1.042   .     S
N63    H64     1.045   .     S
N66    H67     1.042   .     S
N66    H216    1.046   .     S
H68    N362    1.046   1_545 S
N69    H71     1.045   .     S
N69    C153    1.441   .     S
N69    H218    1.045   .     S
H70    N365    1.045   1_545 S
N72    H74     1.045   .     S
N72    C302    1.441   1_545 S
N72    H369    1.046   1_545 S
H73    N220    1.046   .     S
C75    O107    1.287   .     A
C75    C79     1.431   .     S
C75    O109    1.287   .     A
C76    O108    1.288   .     A
C76    C80     1.430   .     S
C76    O110    1.286   .     A
C77    H101    1.083   .     S
C77    C94     1.395   .     A
C78    H102    1.085   .     S
C78    C93     1.395   .     A
C78    C22     1.398   1_655 S
C79    C376    1.348   1_545 S
C79    N439    1.441   1_545 S
C80    C227    1.348   .     S
C80    N294    1.441   .     S
C81    O111    1.295   .     A
C81    C86     1.447   .     S
C81    O113    1.291   .     A
C82    O112    1.293   .     A
C82    C85     1.444   .     S
C82    O114    1.291   .     A
C83    C85     1.389   .     A
C83    H99     1.086   .     S
C83    C93     1.386   .     A
C84    H100    1.085   .     S
C84    C86     1.390   .     A
C84    C94     1.388   .     A
C85    C87     1.406   .     A
C86    C88     1.406   .     A
C87    C89     1.421   .     A
C87    O115    1.389   .     S
C88    C90     1.421   .     A
C88    O126    1.389   .     S
C89    C95     1.424   .     A
C89    C91     1.424   .     A
C90    C96     1.420   .     A
C90    C92     1.423   .     A
C91    C93     1.409   .     A
C91    C18     1.406   1_655 S
C92    C94     1.409   .     A
C95    N137    1.435   .     S
C95    C3      1.392   1_655 S
C96    N140    1.437   .     S
Cu97   Cu98    2.687   .     S
Cu97   N106    2.019   .     S
Cu97   O114    1.945   .     S
Cu97   O110    1.962   .     S
Cu97   O111    1.964   .     S
Cu97   O107    1.967   .     S
Cu98   O112    1.964   .     S
Cu98   N105    2.019   .     S
Cu98   O109    1.962   .     S
Cu98   O113    1.945   .     S
Cu98   O108    1.967   .     S
H103   N549    1.029   .     S
H104   N994    1.029   1_554 S
N105   H991    1.029   1_554 S
N105   N994    1.293   1_554 S
N106   N549    1.293   .     S
N106   H548    1.029   .     S
O115   C116    1.420   .     S
C116   H118    1.115   .     S
C116   H117    1.111   .     S
C116   C119    1.529   .     S
C119   H120    1.111   .     S
C119   H121    1.111   .     S
C119   C1010   1.527   1_554 S
C122   H124    1.105   .     S
C122   H123    1.111   .     S
C122   H125    1.111   .     S
C122   C563    1.527   .     S
O126   C127    1.421   .     S
C127   H128    1.111   .     S
C127   C130    1.530   .     S
C127   H129    1.111   .     S
C130   H132    1.112   .     S
C130   H131    1.101   .     S
C130   C133    1.526   .     S
C133   H134    1.109   .     S
C133   H135    1.111   .     S
C133   H284    1.110   .     S
H136   C429    1.110   1_545 S
N137   H139    1.042   .     S
N137   H138    1.045   .     S
N140   H141    1.042   .     S
N140   H290    1.046   .     S
H142   N436    1.046   1_545 S
N143   H145    1.045   .     S
N143   C227    1.441   .     S
N143   H292    1.045   .     S
H144   N439    1.045   1_545 S
N146   H148    1.045   .     S
N146   C376    1.441   1_545 S
N146   H443    1.046   1_545 S
H147   N294    1.046   .     S
C149   O181    1.287   .     A
C149   C153    1.431   .     S
C149   O183    1.287   .     A
C150   O182    1.288   .     A
C150   C154    1.430   .     S
C150   O184    1.286   .     A
C151   H175    1.083   .     S
C151   C168    1.395   .     A
C151   C243    1.392   1_455 S
C152   H176    1.085   .     S
C152   C167    1.395   .     A
C152   C244    1.398   .     S
C154   C301    1.348   .     S
C154   N368    1.441   .     S
C155   O185    1.295   .     A
C155   C160    1.447   .     S
C155   O187    1.291   .     A
C156   O186    1.293   .     A
C156   C159    1.444   .     S
C156   O188    1.291   .     A
C157   C159    1.389   .     A
C157   H173    1.086   .     S
C157   C167    1.386   .     A
C158   H174    1.085   .     S
C158   C160    1.390   .     A
C158   C168    1.388   .     A
C159   C161    1.406   .     A
C160   C162    1.406   .     A
C161   C163    1.421   .     A
C161   O189    1.389   .     S
C162   C164    1.421   .     A
C162   O200    1.389   .     S
C163   C169    1.424   .     A
C163   C165    1.424   .     A
C164   C170    1.420   .     A
C164   C166    1.423   .     A
C165   C167    1.409   .     A
C165   C240    1.406   .     S
C166   C168    1.409   .     A
C166   C239    1.406   1_455 S
C169   N211    1.435   .     S
C169   C225    1.392   .     S
C170   N214    1.437   .     S
C170   C226    1.398   1_455 S
Cu171  Cu172   2.687   .     S
Cu171  N180    2.019   .     S
Cu171  O188    1.945   .     S
Cu171  O184    1.962   .     S
Cu171  O185    1.964   .     S
Cu171  O181    1.967   .     S
Cu172  O186    1.964   .     S
Cu172  N179    2.019   .     S
Cu172  O183    1.962   .     S
Cu172  O187    1.945   .     S
Cu172  O182    1.967   .     S
H177   N623    1.029   .     S
H178   N1068   1.029   1_554 S
N179   H1065   1.029   1_554 S
N179   N1068   1.293   1_554 S
N180   N623    1.293   .     S
N180   H622    1.029   .     S
O189   C190    1.420   .     S
C190   H192    1.115   .     S
C190   H191    1.111   .     S
C190   C193    1.529   .     S
C193   H194    1.111   .     S
C193   H195    1.111   .     S
C193   C1084   1.527   1_554 S
C196   H198    1.105   .     S
C196   H197    1.111   .     S
C196   H199    1.111   .     S
C196   C637    1.527   .     S
O200   C201    1.421   .     S
C201   H202    1.111   .     S
C201   C204    1.530   .     S
C201   H203    1.111   .     S
C204   H206    1.112   .     S
C204   H205    1.101   .     S
C204   C207    1.526   .     S
C207   H208    1.109   .     S
C207   H209    1.111   .     S
C207   H358    1.110   .     S
N211   H213    1.042   .     S
N211   H212    1.045   .     S
N214   H215    1.042   .     S
N214   H364    1.046   .     S
N217   H219    1.045   .     S
N217   C301    1.441   .     S
N217   H366    1.045   .     S
N220   H222    1.045   .     S
H221   N368    1.046   .     S
C223   O255    1.287   .     A
C223   C227    1.431   .     S
C223   O257    1.287   .     A
C224   O256    1.288   .     A
C224   C228    1.430   .     S
C224   O258    1.286   .     A
C225   H249    1.083   .     S
C225   C242    1.395   .     A
C226   H250    1.085   .     S
C226   C241    1.395   .     A
C226   C170    1.398   1_655 S
C228   C375    1.348   .     S
C228   N442    1.441   .     S
C229   O259    1.295   .     A
C229   C234    1.447   .     S
C229   O261    1.291   .     A
C230   O260    1.293   .     A
C230   C233    1.444   .     S
C230   O262    1.291   .     A
C231   C233    1.389   .     A
C231   H247    1.086   .     S
C231   C241    1.386   .     A
C232   H248    1.085   .     S
C232   C234    1.390   .     A
C232   C242    1.388   .     A
C233   C235    1.406   .     A
C234   C236    1.406   .     A
C235   C237    1.421   .     A
C235   O263    1.389   .     S
C236   C238    1.421   .     A
C236   O274    1.389   .     S
C237   C243    1.424   .     A
C237   C239    1.424   .     A
C238   C244    1.420   .     A
C238   C240    1.423   .     A
C239   C241    1.409   .     A
C239   C166    1.406   1_655 S
C240   C242    1.409   .     A
C243   N285    1.435   .     S
C243   C151    1.392   1_655 S
C244   N288    1.437   .     S
Cu245  Cu246   2.687   .     S
Cu245  N254    2.019   .     S
Cu245  O262    1.945   .     S
Cu245  O258    1.962   .     S
Cu245  O259    1.964   .     S
Cu245  O255    1.967   .     S
Cu246  O260    1.964   .     S
Cu246  N253    2.019   .     S
Cu246  O257    1.962   .     S
Cu246  O261    1.945   .     S
Cu246  O256    1.967   .     S
H251   N697    1.029   .     S
H252   N1142   1.029   1_554 S
N253   H1139   1.029   1_554 S
N253   N1142   1.293   1_554 S
N254   N697    1.293   .     S
N254   H696    1.029   .     S
O263   C264    1.420   .     S
C264   H266    1.115   .     S
C264   H265    1.111   .     S
C264   C267    1.529   .     S
C267   H268    1.111   .     S
C267   H269    1.111   .     S
C267   C1158   1.527   1_554 S
C270   H272    1.105   .     S
C270   H271    1.111   .     S
C270   H273    1.111   .     S
C270   C711    1.527   .     S
O274   C275    1.421   .     S
C275   H276    1.111   .     S
C275   C278    1.530   .     S
C275   H277    1.111   .     S
C278   H280    1.112   .     S
C278   H279    1.101   .     S
C278   C281    1.526   .     S
C281   H282    1.109   .     S
C281   H283    1.111   .     S
C281   H432    1.110   .     S
N285   H287    1.042   .     S
N285   H286    1.045   .     S
N288   H289    1.042   .     S
N288   H438    1.046   .     S
N291   H293    1.045   .     S
N291   C375    1.441   .     S
N291   H440    1.045   .     S
N294   H296    1.045   .     S
H295   N442    1.046   .     S
C297   O329    1.287   .     A
C297   C301    1.431   .     S
C297   O331    1.287   .     A
C298   O330    1.288   .     A
C298   C302    1.430   .     S
C298   O332    1.286   .     A
C299   H323    1.083   .     S
C299   C316    1.395   .     A
C299   C391    1.392   1_455 S
C300   H324    1.085   .     S
C300   C315    1.395   .     A
C300   C392    1.398   .     S
C302   C5      1.348   1_565 S
C302   N72     1.441   1_565 S
C303   O333    1.295   .     A
C303   C308    1.447   .     S
C303   O335    1.291   .     A
C304   O334    1.293   .     A
C304   C307    1.444   .     S
C304   O336    1.291   .     A
C305   C307    1.389   .     A
C305   H321    1.086   .     S
C305   C315    1.386   .     A
C306   H322    1.085   .     S
C306   C308    1.390   .     A
C306   C316    1.388   .     A
C307   C309    1.406   .     A
C308   C310    1.406   .     A
C309   C311    1.421   .     A
C309   O337    1.389   .     S
C310   C312    1.421   .     A
C310   O348    1.389   .     S
C311   C317    1.424   .     A
C311   C313    1.424   .     A
C312   C318    1.420   .     A
C312   C314    1.423   .     A
C313   C315    1.409   .     A
C313   C388    1.406   .     S
C314   C316    1.409   .     A
C314   C387    1.406   1_455 S
C317   N359    1.435   .     S
C317   C373    1.392   .     S
C318   N362    1.437   .     S
C318   C374    1.398   1_455 S
Cu319  Cu320   2.687   .     S
Cu319  N328    2.019   .     S
Cu319  O336    1.945   .     S
Cu319  O332    1.962   .     S
Cu319  O333    1.964   .     S
Cu319  O329    1.967   .     S
Cu320  O334    1.964   .     S
Cu320  N327    2.019   .     S
Cu320  O331    1.962   .     S
Cu320  O335    1.945   .     S
Cu320  O330    1.967   .     S
H325   N771    1.029   .     S
H326   N1216   1.029   1_554 S
N327   H1213   1.029   1_554 S
N327   N1216   1.293   1_554 S
N328   N771    1.293   .     S
N328   H770    1.029   .     S
O337   C338    1.420   .     S
C338   H340    1.115   .     S
C338   H339    1.111   .     S
C338   C341    1.529   .     S
C341   H342    1.111   .     S
C341   H343    1.111   .     S
C341   C1232   1.527   1_554 S
C344   H346    1.105   .     S
C344   H345    1.111   .     S
C344   H347    1.111   .     S
C344   C785    1.527   .     S
O348   C349    1.421   .     S
C349   H350    1.111   .     S
C349   C352    1.530   .     S
C349   H351    1.111   .     S
C352   H354    1.112   .     S
C352   H353    1.101   .     S
C352   C355    1.526   .     S
C355   H356    1.109   .     S
C355   H357    1.111   .     S
C355   H62     1.110   1_565 S
N359   H361    1.042   .     S
N359   H360    1.045   .     S
N362   H363    1.042   .     S
N362   H68     1.046   1_565 S
N365   H367    1.045   .     S
N365   C5      1.441   1_565 S
N365   H70     1.045   1_565 S
N368   H370    1.045   .     S
H369   N72     1.046   1_565 S
C371   O403    1.287   .     A
C371   C375    1.431   .     S
C371   O405    1.287   .     A
C372   O404    1.288   .     A
C372   C376    1.430   .     S
C372   O406    1.286   .     A
C373   H397    1.083   .     S
C373   C390    1.395   .     A
C374   H398    1.085   .     S
C374   C389    1.395   .     A
C374   C318    1.398   1_655 S
C376   C79     1.348   1_565 S
C376   N146    1.441   1_565 S
C377   O407    1.295   .     A
C377   C382    1.447   .     S
C377   O409    1.291   .     A
C378   O408    1.293   .     A
C378   C381    1.444   .     S
C378   O410    1.291   .     A
C379   C381    1.389   .     A
C379   H395    1.086   .     S
C379   C389    1.386   .     A
C380   H396    1.085   .     S
C380   C382    1.390   .     A
C380   C390    1.388   .     A
C381   C383    1.406   .     A
C382   C384    1.406   .     A
C383   C385    1.421   .     A
C383   O411    1.389   .     S
C384   C386    1.421   .     A
C384   O422    1.389   .     S
C385   C391    1.424   .     A
C385   C387    1.424   .     A
C386   C392    1.420   .     A
C386   C388    1.423   .     A
C387   C389    1.409   .     A
C387   C314    1.406   1_655 S
C388   C390    1.409   .     A
C391   N433    1.435   .     S
C391   C299    1.392   1_655 S
C392   N436    1.437   .     S
Cu393  Cu394   2.687   .     S
Cu393  N402    2.019   .     S
Cu393  O410    1.945   .     S
Cu393  O406    1.962   .     S
Cu393  O407    1.964   .     S
Cu393  O403    1.967   .     S
Cu394  O408    1.964   .     S
Cu394  N401    2.019   .     S
Cu394  O405    1.962   .     S
Cu394  O409    1.945   .     S
Cu394  O404    1.967   .     S
H399   N845    1.029   .     S
H400   N1290   1.029   1_554 S
N401   H1287   1.029   1_554 S
N401   N1290   1.293   1_554 S
N402   N845    1.293   .     S
N402   H844    1.029   .     S
O411   C412    1.420   .     S
C412   H414    1.115   .     S
C412   H413    1.111   .     S
C412   C415    1.529   .     S
C415   H416    1.111   .     S
C415   H417    1.111   .     S
C415   C1306   1.527   1_554 S
C418   H420    1.105   .     S
C418   H419    1.111   .     S
C418   H421    1.111   .     S
C418   C859    1.527   .     S
O422   C423    1.421   .     S
C423   H424    1.111   .     S
C423   C426    1.530   .     S
C423   H425    1.111   .     S
C426   H428    1.112   .     S
C426   H427    1.101   .     S
C426   C429    1.526   .     S
C429   H430    1.109   .     S
C429   H431    1.111   .     S
C429   H136    1.110   1_565 S
N433   H435    1.042   .     S
N433   H434    1.045   .     S
N436   H437    1.042   .     S
N436   H142    1.046   1_565 S
N439   H441    1.045   .     S
N439   C79     1.441   1_565 S
N439   H144    1.045   1_565 S
N442   H444    1.045   .     S
H443   N146    1.046   1_565 S
C445   O477    1.287   .     A
C445   C449    1.431   .     S
C445   O479    1.287   .     A
C446   O478    1.288   .     A
C446   C450    1.430   .     S
C446   O480    1.286   .     A
C447   H471    1.083   .     S
C447   C464    1.395   .     A
C447   C539    1.392   1_455 S
C448   H472    1.085   .     S
C448   C463    1.395   .     A
C448   C540    1.398   .     S
C449   C746    1.348   1_545 S
C449   N809    1.441   1_545 S
C450   C597    1.348   .     S
C450   N664    1.441   .     S
C451   O481    1.295   .     A
C451   C456    1.447   .     S
C451   O483    1.291   .     A
C452   O482    1.293   .     A
C452   C455    1.444   .     S
C452   O484    1.291   .     A
C453   C455    1.389   .     A
C453   H469    1.086   .     S
C453   C463    1.386   .     A
C454   H470    1.085   .     S
C454   C456    1.390   .     A
C454   C464    1.388   .     A
C455   C457    1.406   .     A
C456   C458    1.406   .     A
C457   C459    1.421   .     A
C457   O485    1.389   .     S
C458   C460    1.421   .     A
C458   O496    1.389   .     S
C459   C465    1.424   .     A
C459   C461    1.424   .     A
C460   C466    1.420   .     A
C460   C462    1.423   .     A
C461   C463    1.409   .     A
C461   C536    1.406   .     S
C462   C464    1.409   .     A
C462   C535    1.406   1_455 S
C465   N507    1.435   .     S
C465   C521    1.392   .     S
C466   N510    1.437   .     S
C466   C522    1.398   1_455 S
Cu467  Cu468   2.687   .     S
Cu467  N476    2.019   .     S
Cu467  O484    1.945   .     S
Cu467  O480    1.962   .     S
Cu467  O481    1.964   .     S
Cu467  O477    1.967   .     S
Cu468  O482    1.964   .     S
Cu468  N475    2.019   .     S
Cu468  O479    1.962   .     S
Cu468  O483    1.945   .     S
Cu468  O478    1.967   .     S
H473   N919    1.029   .     S
N476   N919    1.293   .     S
N476   H918    1.029   .     S
O485   C486    1.420   .     S
C486   H488    1.115   .     S
C486   H487    1.111   .     S
C486   C489    1.529   .     S
C489   H490    1.111   .     S
C489   H491    1.111   .     S
C492   H494    1.105   .     S
C492   H493    1.111   .     S
C492   H495    1.111   .     S
C492   C933    1.527   .     S
O496   C497    1.421   .     S
C497   H498    1.111   .     S
C497   C500    1.530   .     S
C497   H499    1.111   .     S
C500   H502    1.112   .     S
C500   H501    1.101   .     S
C500   C503    1.526   .     S
C503   H504    1.109   .     S
C503   H505    1.111   .     S
C503   H654    1.110   .     S
H506   C799    1.110   1_545 S
N507   H509    1.042   .     S
N507   H508    1.045   .     S
N510   H511    1.042   .     S
N510   H660    1.046   .     S
H512   N806    1.046   1_545 S
N513   H515    1.045   .     S
N513   C597    1.441   .     S
N513   H662    1.045   .     S
H514   N809    1.045   1_545 S
N516   H518    1.045   .     S
N516   C746    1.441   1_545 S
N516   H813    1.046   1_545 S
H517   N664    1.046   .     S
C519   O551    1.287   .     A
C519   C523    1.431   .     S
C519   O553    1.287   .     A
C520   O552    1.288   .     A
C520   C524    1.430   .     S
C520   O554    1.286   .     A
C521   H545    1.083   .     S
C521   C538    1.395   .     A
C522   H546    1.085   .     S
C522   C537    1.395   .     A
C522   C466    1.398   1_655 S
C523   C820    1.348   1_545 S
C523   N883    1.441   1_545 S
C524   C671    1.348   .     S
C524   N738    1.441   .     S
C525   O555    1.295   .     A
C525   C530    1.447   .     S
C525   O557    1.291   .     A
C526   O556    1.293   .     A
C526   C529    1.444   .     S
C526   O558    1.291   .     A
C527   C529    1.389   .     A
C527   H543    1.086   .     S
C527   C537    1.386   .     A
C528   H544    1.085   .     S
C528   C530    1.390   .     A
C528   C538    1.388   .     A
C529   C531    1.406   .     A
C530   C532    1.406   .     A
C531   C533    1.421   .     A
C531   O559    1.389   .     S
C532   C534    1.421   .     A
C532   O570    1.389   .     S
C533   C539    1.424   .     A
C533   C535    1.424   .     A
C534   C540    1.420   .     A
C534   C536    1.423   .     A
C535   C537    1.409   .     A
C535   C462    1.406   1_655 S
C536   C538    1.409   .     A
C539   N581    1.435   .     S
C539   C447    1.392   1_655 S
C540   N584    1.437   .     S
Cu541  Cu542   2.687   .     S
Cu541  N550    2.019   .     S
Cu541  O558    1.945   .     S
Cu541  O554    1.962   .     S
Cu541  O555    1.964   .     S
Cu541  O551    1.967   .     S
Cu542  O556    1.964   .     S
Cu542  N549    2.019   .     S
Cu542  O553    1.962   .     S
Cu542  O557    1.945   .     S
Cu542  O552    1.967   .     S
H547   N993    1.029   .     S
N550   N993    1.293   .     S
N550   H992    1.029   .     S
O559   C560    1.420   .     S
C560   H562    1.115   .     S
C560   H561    1.111   .     S
C560   C563    1.529   .     S
C563   H564    1.111   .     S
C563   H565    1.111   .     S
C566   H568    1.105   .     S
C566   H567    1.111   .     S
C566   H569    1.111   .     S
C566   C1007   1.527   .     S
O570   C571    1.421   .     S
C571   H572    1.111   .     S
C571   C574    1.530   .     S
C571   H573    1.111   .     S
C574   H576    1.112   .     S
C574   H575    1.101   .     S
C574   C577    1.526   .     S
C577   H578    1.109   .     S
C577   H579    1.111   .     S
C577   H728    1.110   .     S
H580   C873    1.110   1_545 S
N581   H583    1.042   .     S
N581   H582    1.045   .     S
N584   H585    1.042   .     S
N584   H734    1.046   .     S
H586   N880    1.046   1_545 S
N587   H589    1.045   .     S
N587   C671    1.441   .     S
N587   H736    1.045   .     S
H588   N883    1.045   1_545 S
N590   H592    1.045   .     S
N590   C820    1.441   1_545 S
N590   H887    1.046   1_545 S
H591   N738    1.046   .     S
C593   O625    1.287   .     A
C593   C597    1.431   .     S
C593   O627    1.287   .     A
C594   O626    1.288   .     A
C594   C598    1.430   .     S
C594   O628    1.286   .     A
C595   H619    1.083   .     S
C595   C612    1.395   .     A
C595   C687    1.392   1_455 S
C596   H620    1.085   .     S
C596   C611    1.395   .     A
C596   C688    1.398   .     S
C598   C745    1.348   .     S
C598   N812    1.441   .     S
C599   O629    1.295   .     A
C599   C604    1.447   .     S
C599   O631    1.291   .     A
C600   O630    1.293   .     A
C600   C603    1.444   .     S
C600   O632    1.291   .     A
C601   C603    1.389   .     A
C601   H617    1.086   .     S
C601   C611    1.386   .     A
C602   H618    1.085   .     S
C602   C604    1.390   .     A
C602   C612    1.388   .     A
C603   C605    1.406   .     A
C604   C606    1.406   .     A
C605   C607    1.421   .     A
C605   O633    1.389   .     S
C606   C608    1.421   .     A
C606   O644    1.389   .     S
C607   C613    1.424   .     A
C607   C609    1.424   .     A
C608   C614    1.420   .     A
C608   C610    1.423   .     A
C609   C611    1.409   .     A
C609   C684    1.406   .     S
C610   C612    1.409   .     A
C610   C683    1.406   1_455 S
C613   N655    1.435   .     S
C613   C669    1.392   .     S
C614   N658    1.437   .     S
C614   C670    1.398   1_455 S
Cu615  Cu616   2.687   .     S
Cu615  N624    2.019   .     S
Cu615  O632    1.945   .     S
Cu615  O628    1.962   .     S
Cu615  O629    1.964   .     S
Cu615  O625    1.967   .     S
Cu616  O630    1.964   .     S
Cu616  N623    2.019   .     S
Cu616  O627    1.962   .     S
Cu616  O631    1.945   .     S
Cu616  O626    1.967   .     S
H621   N1067   1.029   .     S
N624   N1067   1.293   .     S
N624   H1066   1.029   .     S
O633   C634    1.420   .     S
C634   H636    1.115   .     S
C634   H635    1.111   .     S
C634   C637    1.529   .     S
C637   H638    1.111   .     S
C637   H639    1.111   .     S
C640   H642    1.105   .     S
C640   H641    1.111   .     S
C640   H643    1.111   .     S
C640   C1081   1.527   .     S
O644   C645    1.421   .     S
C645   H646    1.111   .     S
C645   C648    1.530   .     S
C645   H647    1.111   .     S
C648   H650    1.112   .     S
C648   H649    1.101   .     S
C648   C651    1.526   .     S
C651   H652    1.109   .     S
C651   H653    1.111   .     S
C651   H802    1.110   .     S
N655   H657    1.042   .     S
N655   H656    1.045   .     S
N658   H659    1.042   .     S
N658   H808    1.046   .     S
N661   H663    1.045   .     S
N661   C745    1.441   .     S
N661   H810    1.045   .     S
N664   H666    1.045   .     S
H665   N812    1.046   .     S
C667   O699    1.287   .     A
C667   C671    1.431   .     S
C667   O701    1.287   .     A
C668   O700    1.288   .     A
C668   C672    1.430   .     S
C668   O702    1.286   .     A
C669   H693    1.083   .     S
C669   C686    1.395   .     A
C670   H694    1.085   .     S
C670   C685    1.395   .     A
C670   C614    1.398   1_655 S
C672   C819    1.348   .     S
C672   N886    1.441   .     S
C673   O703    1.295   .     A
C673   C678    1.447   .     S
C673   O705    1.291   .     A
C674   O704    1.293   .     A
C674   C677    1.444   .     S
C674   O706    1.291   .     A
C675   C677    1.389   .     A
C675   H691    1.086   .     S
C675   C685    1.386   .     A
C676   H692    1.085   .     S
C676   C678    1.390   .     A
C676   C686    1.388   .     A
C677   C679    1.406   .     A
C678   C680    1.406   .     A
C679   C681    1.421   .     A
C679   O707    1.389   .     S
C680   C682    1.421   .     A
C680   O718    1.389   .     S
C681   C687    1.424   .     A
C681   C683    1.424   .     A
C682   C688    1.420   .     A
C682   C684    1.423   .     A
C683   C685    1.409   .     A
C683   C610    1.406   1_655 S
C684   C686    1.409   .     A
C687   N729    1.435   .     S
C687   C595    1.392   1_655 S
C688   N732    1.437   .     S
Cu689  Cu690   2.687   .     S
Cu689  N698    2.019   .     S
Cu689  O706    1.945   .     S
Cu689  O702    1.962   .     S
Cu689  O703    1.964   .     S
Cu689  O699    1.967   .     S
Cu690  O704    1.964   .     S
Cu690  N697    2.019   .     S
Cu690  O701    1.962   .     S
Cu690  O705    1.945   .     S
Cu690  O700    1.967   .     S
H695   N1141   1.029   .     S
N698   N1141   1.293   .     S
N698   H1140   1.029   .     S
O707   C708    1.420   .     S
C708   H710    1.115   .     S
C708   H709    1.111   .     S
C708   C711    1.529   .     S
C711   H712    1.111   .     S
C711   H713    1.111   .     S
C714   H716    1.105   .     S
C714   H715    1.111   .     S
C714   H717    1.111   .     S
C714   C1155   1.527   .     S
O718   C719    1.421   .     S
C719   H720    1.111   .     S
C719   C722    1.530   .     S
C719   H721    1.111   .     S
C722   H724    1.112   .     S
C722   H723    1.101   .     S
C722   C725    1.526   .     S
C725   H726    1.109   .     S
C725   H727    1.111   .     S
C725   H876    1.110   .     S
N729   H731    1.042   .     S
N729   H730    1.045   .     S
N732   H733    1.042   .     S
N732   H882    1.046   .     S
N735   H737    1.045   .     S
N735   C819    1.441   .     S
N735   H884    1.045   .     S
N738   H740    1.045   .     S
H739   N886    1.046   .     S
C741   O773    1.287   .     A
C741   C745    1.431   .     S
C741   O775    1.287   .     A
C742   O774    1.288   .     A
C742   C746    1.430   .     S
C742   O776    1.286   .     A
C743   H767    1.083   .     S
C743   C760    1.395   .     A
C743   C835    1.392   1_455 S
C744   H768    1.085   .     S
C744   C759    1.395   .     A
C744   C836    1.398   .     S
C746   C449    1.348   1_565 S
C746   N516    1.441   1_565 S
C747   O777    1.295   .     A
C747   C752    1.447   .     S
C747   O779    1.291   .     A
C748   O778    1.293   .     A
C748   C751    1.444   .     S
C748   O780    1.291   .     A
C749   C751    1.389   .     A
C749   H765    1.086   .     S
C749   C759    1.386   .     A
C750   H766    1.085   .     S
C750   C752    1.390   .     A
C750   C760    1.388   .     A
C751   C753    1.406   .     A
C752   C754    1.406   .     A
C753   C755    1.421   .     A
C753   O781    1.389   .     S
C754   C756    1.421   .     A
C754   O792    1.389   .     S
C755   C761    1.424   .     A
C755   C757    1.424   .     A
C756   C762    1.420   .     A
C756   C758    1.423   .     A
C757   C759    1.409   .     A
C757   C832    1.406   .     S
C758   C760    1.409   .     A
C758   C831    1.406   1_455 S
C761   N803    1.435   .     S
C761   C817    1.392   .     S
C762   N806    1.437   .     S
C762   C818    1.398   1_455 S
Cu763  Cu764   2.687   .     S
Cu763  N772    2.019   .     S
Cu763  O780    1.945   .     S
Cu763  O776    1.962   .     S
Cu763  O777    1.964   .     S
Cu763  O773    1.967   .     S
Cu764  O778    1.964   .     S
Cu764  N771    2.019   .     S
Cu764  O775    1.962   .     S
Cu764  O779    1.945   .     S
Cu764  O774    1.967   .     S
H769   N1215   1.029   .     S
N772   N1215   1.293   .     S
N772   H1214   1.029   .     S
O781   C782    1.420   .     S
C782   H784    1.115   .     S
C782   H783    1.111   .     S
C782   C785    1.529   .     S
C785   H786    1.111   .     S
C785   H787    1.111   .     S
C788   H790    1.105   .     S
C788   H789    1.111   .     S
C788   H791    1.111   .     S
C788   C1229   1.527   .     S
O792   C793    1.421   .     S
C793   H794    1.111   .     S
C793   C796    1.530   .     S
C793   H795    1.111   .     S
C796   H798    1.112   .     S
C796   H797    1.101   .     S
C796   C799    1.526   .     S
C799   H800    1.109   .     S
C799   H801    1.111   .     S
C799   H506    1.110   1_565 S
N803   H805    1.042   .     S
N803   H804    1.045   .     S
N806   H807    1.042   .     S
N806   H512    1.046   1_565 S
N809   H811    1.045   .     S
N809   C449    1.441   1_565 S
N809   H514    1.045   1_565 S
N812   H814    1.045   .     S
H813   N516    1.046   1_565 S
C815   O847    1.287   .     A
C815   C819    1.431   .     S
C815   O849    1.287   .     A
C816   O848    1.288   .     A
C816   C820    1.430   .     S
C816   O850    1.286   .     A
C817   H841    1.083   .     S
C817   C834    1.395   .     A
C818   H842    1.085   .     S
C818   C833    1.395   .     A
C818   C762    1.398   1_655 S
C820   C523    1.348   1_565 S
C820   N590    1.441   1_565 S
C821   O851    1.295   .     A
C821   C826    1.447   .     S
C821   O853    1.291   .     A
C822   O852    1.293   .     A
C822   C825    1.444   .     S
C822   O854    1.291   .     A
C823   C825    1.389   .     A
C823   H839    1.086   .     S
C823   C833    1.386   .     A
C824   H840    1.085   .     S
C824   C826    1.390   .     A
C824   C834    1.388   .     A
C825   C827    1.406   .     A
C826   C828    1.406   .     A
C827   C829    1.421   .     A
C827   O855    1.389   .     S
C828   C830    1.421   .     A
C828   O866    1.389   .     S
C829   C835    1.424   .     A
C829   C831    1.424   .     A
C830   C836    1.420   .     A
C830   C832    1.423   .     A
C831   C833    1.409   .     A
C831   C758    1.406   1_655 S
C832   C834    1.409   .     A
C835   N877    1.435   .     S
C835   C743    1.392   1_655 S
C836   N880    1.437   .     S
Cu837  Cu838   2.687   .     S
Cu837  N846    2.019   .     S
Cu837  O854    1.945   .     S
Cu837  O850    1.962   .     S
Cu837  O851    1.964   .     S
Cu837  O847    1.967   .     S
Cu838  O852    1.964   .     S
Cu838  N845    2.019   .     S
Cu838  O849    1.962   .     S
Cu838  O853    1.945   .     S
Cu838  O848    1.967   .     S
H843   N1289   1.029   .     S
N846   N1289   1.293   .     S
N846   H1288   1.029   .     S
O855   C856    1.420   .     S
C856   H858    1.115   .     S
C856   H857    1.111   .     S
C856   C859    1.529   .     S
C859   H860    1.111   .     S
C859   H861    1.111   .     S
C862   H864    1.105   .     S
C862   H863    1.111   .     S
C862   H865    1.111   .     S
C862   C1303   1.527   .     S
O866   C867    1.421   .     S
C867   H868    1.111   .     S
C867   C870    1.530   .     S
C867   H869    1.111   .     S
C870   H872    1.112   .     S
C870   H871    1.101   .     S
C870   C873    1.526   .     S
C873   H874    1.109   .     S
C873   H875    1.111   .     S
C873   H580    1.110   1_565 S
N877   H879    1.042   .     S
N877   H878    1.045   .     S
N880   H881    1.042   .     S
N880   H586    1.046   1_565 S
N883   H885    1.045   .     S
N883   C523    1.441   1_565 S
N883   H588    1.045   1_565 S
N886   H888    1.045   .     S
H887   N590    1.046   1_565 S
C889   O921    1.287   .     A
C889   C893    1.431   .     S
C889   O923    1.287   .     A
C890   O922    1.288   .     A
C890   C894    1.430   .     S
C890   O924    1.286   .     A
C891   H915    1.083   .     S
C891   C908    1.395   .     A
C891   C983    1.392   1_455 S
C892   H916    1.085   .     S
C892   C907    1.395   .     A
C892   C984    1.398   .     S
C893   C1190   1.348   1_545 S
C893   N1253   1.441   1_545 S
C894   C1041   1.348   .     S
C894   N1108   1.441   .     S
C895   O925    1.295   .     A
C895   C900    1.447   .     S
C895   O927    1.291   .     A
C896   O926    1.293   .     A
C896   C899    1.444   .     S
C896   O928    1.291   .     A
C897   C899    1.389   .     A
C897   H913    1.086   .     S
C897   C907    1.386   .     A
C898   H914    1.085   .     S
C898   C900    1.390   .     A
C898   C908    1.388   .     A
C899   C901    1.406   .     A
C900   C902    1.406   .     A
C901   C903    1.421   .     A
C901   O929    1.389   .     S
C902   C904    1.421   .     A
C902   O940    1.389   .     S
C903   C909    1.424   .     A
C903   C905    1.424   .     A
C904   C910    1.420   .     A
C904   C906    1.423   .     A
C905   C907    1.409   .     A
C905   C980    1.406   .     S
C906   C908    1.409   .     A
C906   C979    1.406   1_455 S
C909   N951    1.435   .     S
C909   C965    1.392   .     S
C910   N954    1.437   .     S
C910   C966    1.398   1_455 S
Cu911  Cu912   2.687   .     S
Cu911  N920    2.019   .     S
Cu911  O928    1.945   .     S
Cu911  O924    1.962   .     S
Cu911  O925    1.964   .     S
Cu911  O921    1.967   .     S
Cu912  O926    1.964   .     S
Cu912  N919    2.019   .     S
Cu912  O923    1.962   .     S
Cu912  O927    1.945   .     S
Cu912  O922    1.967   .     S
H917   N31     1.029   1_556 S
N920   N31     1.293   1_556 S
N920   H30     1.029   1_556 S
O929   C930    1.420   .     S
C930   H932    1.115   .     S
C930   H931    1.111   .     S
C930   C933    1.529   .     S
C933   H934    1.111   .     S
C933   H935    1.111   .     S
C936   H938    1.105   .     S
C936   H937    1.111   .     S
C936   H939    1.111   .     S
C936   C45     1.527   1_556 S
O940   C941    1.421   .     S
C941   H942    1.111   .     S
C941   C944    1.530   .     S
C941   H943    1.111   .     S
C944   H946    1.112   .     S
C944   H945    1.101   .     S
C944   C947    1.526   .     S
C947   H948    1.109   .     S
C947   H949    1.111   .     S
C947   H1098   1.110   .     S
H950   C1243   1.110   1_545 S
N951   H953    1.042   .     S
N951   H952    1.045   .     S
N954   H955    1.042   .     S
N954   H1104   1.046   .     S
H956   N1250   1.046   1_545 S
N957   H959    1.045   .     S
N957   C1041   1.441   .     S
N957   H1106   1.045   .     S
H958   N1253   1.045   1_545 S
N960   H962    1.045   .     S
N960   C1190   1.441   1_545 S
N960   H1257   1.046   1_545 S
H961   N1108   1.046   .     S
C963   O995    1.287   .     A
C963   C967    1.431   .     S
C963   O997    1.287   .     A
C964   O996    1.288   .     A
C964   C968    1.430   .     S
C964   O998    1.286   .     A
C965   H989    1.083   .     S
C965   C982    1.395   .     A
C966   H990    1.085   .     S
C966   C981    1.395   .     A
C966   C910    1.398   1_655 S
C967   C1264   1.348   1_545 S
C967   N1327   1.441   1_545 S
C968   C1115   1.348   .     S
C968   N1182   1.441   .     S
C969   O999    1.295   .     A
C969   C974    1.447   .     S
C969   O1001   1.291   .     A
C970   O1000   1.293   .     A
C970   C973    1.444   .     S
C970   O1002   1.291   .     A
C971   C973    1.389   .     A
C971   H987    1.086   .     S
C971   C981    1.386   .     A
C972   H988    1.085   .     S
C972   C974    1.390   .     A
C972   C982    1.388   .     A
C973   C975    1.406   .     A
C974   C976    1.406   .     A
C975   C977    1.421   .     A
C975   O1003   1.389   .     S
C976   C978    1.421   .     A
C976   O1014   1.389   .     S
C977   C983    1.424   .     A
C977   C979    1.424   .     A
C978   C984    1.420   .     A
C978   C980    1.423   .     A
C979   C981    1.409   .     A
C979   C906    1.406   1_655 S
C980   C982    1.409   .     A
C983   N1025   1.435   .     S
C983   C891    1.392   1_655 S
C984   N1028   1.437   .     S
Cu985  Cu986   2.687   .     S
Cu985  N994    2.019   .     S
Cu985  O1002   1.945   .     S
Cu985  O998    1.962   .     S
Cu985  O999    1.964   .     S
Cu985  O995    1.967   .     S
Cu986  O1000   1.964   .     S
Cu986  N993    2.019   .     S
Cu986  O997    1.962   .     S
Cu986  O1001   1.945   .     S
Cu986  O996    1.967   .     S
H991   N105    1.029   1_556 S
N994   N105    1.293   1_556 S
N994   H104    1.029   1_556 S
O1003  C1004   1.420   .     S
C1004  H1006   1.115   .     S
C1004  H1005   1.111   .     S
C1004  C1007   1.529   .     S
C1007  H1008   1.111   .     S
C1007  H1009   1.111   .     S
C1010  H1012   1.105   .     S
C1010  H1011   1.111   .     S
C1010  H1013   1.111   .     S
C1010  C119    1.527   1_556 S
O1014  C1015   1.421   .     S
C1015  H1016   1.111   .     S
C1015  C1018   1.530   .     S
C1015  H1017   1.111   .     S
C1018  H1020   1.112   .     S
C1018  H1019   1.101   .     S
C1018  C1021   1.526   .     S
C1021  H1022   1.109   .     S
C1021  H1023   1.111   .     S
C1021  H1172   1.110   .     S
H1024  C1317   1.110   1_545 S
N1025  H1027   1.042   .     S
N1025  H1026   1.045   .     S
N1028  H1029   1.042   .     S
N1028  H1178   1.046   .     S
H1030  N1324   1.046   1_545 S
N1031  H1033   1.045   .     S
N1031  C1115   1.441   .     S
N1031  H1180   1.045   .     S
H1032  N1327   1.045   1_545 S
N1034  H1036   1.045   .     S
N1034  C1264   1.441   1_545 S
N1034  H1331   1.046   1_545 S
H1035  N1182   1.046   .     S
C1037  O1069   1.287   .     A
C1037  C1041   1.431   .     S
C1037  O1071   1.287   .     A
C1038  O1070   1.288   .     A
C1038  C1042   1.430   .     S
C1038  O1072   1.286   .     A
C1039  H1063   1.083   .     S
C1039  C1056   1.395   .     A
C1039  C1131   1.392   1_455 S
C1040  H1064   1.085   .     S
C1040  C1055   1.395   .     A
C1040  C1132   1.398   .     S
C1042  C1189   1.348   .     S
C1042  N1256   1.441   .     S
C1043  O1073   1.295   .     A
C1043  C1048   1.447   .     S
C1043  O1075   1.291   .     A
C1044  O1074   1.293   .     A
C1044  C1047   1.444   .     S
C1044  O1076   1.291   .     A
C1045  C1047   1.389   .     A
C1045  H1061   1.086   .     S
C1045  C1055   1.386   .     A
C1046  H1062   1.085   .     S
C1046  C1048   1.390   .     A
C1046  C1056   1.388   .     A
C1047  C1049   1.406   .     A
C1048  C1050   1.406   .     A
C1049  C1051   1.421   .     A
C1049  O1077   1.389   .     S
C1050  C1052   1.421   .     A
C1050  O1088   1.389   .     S
C1051  C1057   1.424   .     A
C1051  C1053   1.424   .     A
C1052  C1058   1.420   .     A
C1052  C1054   1.423   .     A
C1053  C1055   1.409   .     A
C1053  C1128   1.406   .     S
C1054  C1056   1.409   .     A
C1054  C1127   1.406   1_455 S
C1057  N1099   1.435   .     S
C1057  C1113   1.392   .     S
C1058  N1102   1.437   .     S
C1058  C1114   1.398   1_455 S
Cu1059 Cu1060  2.687   .     S
Cu1059 N1068   2.019   .     S
Cu1059 O1076   1.945   .     S
Cu1059 O1072   1.962   .     S
Cu1059 O1073   1.964   .     S
Cu1059 O1069   1.967   .     S
Cu1060 O1074   1.964   .     S
Cu1060 N1067   2.019   .     S
Cu1060 O1071   1.962   .     S
Cu1060 O1075   1.945   .     S
Cu1060 O1070   1.967   .     S
H1065  N179    1.029   1_556 S
N1068  N179    1.293   1_556 S
N1068  H178    1.029   1_556 S
O1077  C1078   1.420   .     S
C1078  H1080   1.115   .     S
C1078  H1079   1.111   .     S
C1078  C1081   1.529   .     S
C1081  H1082   1.111   .     S
C1081  H1083   1.111   .     S
C1084  H1086   1.105   .     S
C1084  H1085   1.111   .     S
C1084  H1087   1.111   .     S
C1084  C193    1.527   1_556 S
O1088  C1089   1.421   .     S
C1089  H1090   1.111   .     S
C1089  C1092   1.530   .     S
C1089  H1091   1.111   .     S
C1092  H1094   1.112   .     S
C1092  H1093   1.101   .     S
C1092  C1095   1.526   .     S
C1095  H1096   1.109   .     S
C1095  H1097   1.111   .     S
C1095  H1246   1.110   .     S
N1099  H1101   1.042   .     S
N1099  H1100   1.045   .     S
N1102  H1103   1.042   .     S
N1102  H1252   1.046   .     S
N1105  H1107   1.045   .     S
N1105  C1189   1.441   .     S
N1105  H1254   1.045   .     S
N1108  H1110   1.045   .     S
H1109  N1256   1.046   .     S
C1111  O1143   1.287   .     A
C1111  C1115   1.431   .     S
C1111  O1145   1.287   .     A
C1112  O1144   1.288   .     A
C1112  C1116   1.430   .     S
C1112  O1146   1.286   .     A
C1113  H1137   1.083   .     S
C1113  C1130   1.395   .     A
C1114  H1138   1.085   .     S
C1114  C1129   1.395   .     A
C1114  C1058   1.398   1_655 S
C1116  C1263   1.348   .     S
C1116  N1330   1.441   .     S
C1117  O1147   1.295   .     A
C1117  C1122   1.447   .     S
C1117  O1149   1.291   .     A
C1118  O1148   1.293   .     A
C1118  C1121   1.444   .     S
C1118  O1150   1.291   .     A
C1119  C1121   1.389   .     A
C1119  H1135   1.086   .     S
C1119  C1129   1.386   .     A
C1120  H1136   1.085   .     S
C1120  C1122   1.390   .     A
C1120  C1130   1.388   .     A
C1121  C1123   1.406   .     A
C1122  C1124   1.406   .     A
C1123  C1125   1.421   .     A
C1123  O1151   1.389   .     S
C1124  C1126   1.421   .     A
C1124  O1162   1.389   .     S
C1125  C1131   1.424   .     A
C1125  C1127   1.424   .     A
C1126  C1132   1.420   .     A
C1126  C1128   1.423   .     A
C1127  C1129   1.409   .     A
C1127  C1054   1.406   1_655 S
C1128  C1130   1.409   .     A
C1131  N1173   1.435   .     S
C1131  C1039   1.392   1_655 S
C1132  N1176   1.437   .     S
Cu1133 Cu1134  2.687   .     S
Cu1133 N1142   2.019   .     S
Cu1133 O1150   1.945   .     S
Cu1133 O1146   1.962   .     S
Cu1133 O1147   1.964   .     S
Cu1133 O1143   1.967   .     S
Cu1134 O1148   1.964   .     S
Cu1134 N1141   2.019   .     S
Cu1134 O1145   1.962   .     S
Cu1134 O1149   1.945   .     S
Cu1134 O1144   1.967   .     S
H1139  N253    1.029   1_556 S
N1142  N253    1.293   1_556 S
N1142  H252    1.029   1_556 S
O1151  C1152   1.420   .     S
C1152  H1154   1.115   .     S
C1152  H1153   1.111   .     S
C1152  C1155   1.529   .     S
C1155  H1156   1.111   .     S
C1155  H1157   1.111   .     S
C1158  H1160   1.105   .     S
C1158  H1159   1.111   .     S
C1158  H1161   1.111   .     S
C1158  C267    1.527   1_556 S
O1162  C1163   1.421   .     S
C1163  H1164   1.111   .     S
C1163  C1166   1.530   .     S
C1163  H1165   1.111   .     S
C1166  H1168   1.112   .     S
C1166  H1167   1.101   .     S
C1166  C1169   1.526   .     S
C1169  H1170   1.109   .     S
C1169  H1171   1.111   .     S
C1169  H1320   1.110   .     S
N1173  H1175   1.042   .     S
N1173  H1174   1.045   .     S
N1176  H1177   1.042   .     S
N1176  H1326   1.046   .     S
N1179  H1181   1.045   .     S
N1179  C1263   1.441   .     S
N1179  H1328   1.045   .     S
N1182  H1184   1.045   .     S
H1183  N1330   1.046   .     S
C1185  O1217   1.287   .     A
C1185  C1189   1.431   .     S
C1185  O1219   1.287   .     A
C1186  O1218   1.288   .     A
C1186  C1190   1.430   .     S
C1186  O1220   1.286   .     A
C1187  H1211   1.083   .     S
C1187  C1204   1.395   .     A
C1187  C1279   1.392   1_455 S
C1188  H1212   1.085   .     S
C1188  C1203   1.395   .     A
C1188  C1280   1.398   .     S
C1190  C893    1.348   1_565 S
C1190  N960    1.441   1_565 S
C1191  O1221   1.295   .     A
C1191  C1196   1.447   .     S
C1191  O1223   1.291   .     A
C1192  O1222   1.293   .     A
C1192  C1195   1.444   .     S
C1192  O1224   1.291   .     A
C1193  C1195   1.389   .     A
C1193  H1209   1.086   .     S
C1193  C1203   1.386   .     A
C1194  H1210   1.085   .     S
C1194  C1196   1.390   .     A
C1194  C1204   1.388   .     A
C1195  C1197   1.406   .     A
C1196  C1198   1.406   .     A
C1197  C1199   1.421   .     A
C1197  O1225   1.389   .     S
C1198  C1200   1.421   .     A
C1198  O1236   1.389   .     S
C1199  C1205   1.424   .     A
C1199  C1201   1.424   .     A
C1200  C1206   1.420   .     A
C1200  C1202   1.423   .     A
C1201  C1203   1.409   .     A
C1201  C1276   1.406   .     S
C1202  C1204   1.409   .     A
C1202  C1275   1.406   1_455 S
C1205  N1247   1.435   .     S
C1205  C1261   1.392   .     S
C1206  N1250   1.437   .     S
C1206  C1262   1.398   1_455 S
Cu1207 Cu1208  2.687   .     S
Cu1207 N1216   2.019   .     S
Cu1207 O1224   1.945   .     S
Cu1207 O1220   1.962   .     S
Cu1207 O1221   1.964   .     S
Cu1207 O1217   1.967   .     S
Cu1208 O1222   1.964   .     S
Cu1208 N1215   2.019   .     S
Cu1208 O1219   1.962   .     S
Cu1208 O1223   1.945   .     S
Cu1208 O1218   1.967   .     S
H1213  N327    1.029   1_556 S
N1216  N327    1.293   1_556 S
N1216  H326    1.029   1_556 S
O1225  C1226   1.420   .     S
C1226  H1228   1.115   .     S
C1226  H1227   1.111   .     S
C1226  C1229   1.529   .     S
C1229  H1230   1.111   .     S
C1229  H1231   1.111   .     S
C1232  H1234   1.105   .     S
C1232  H1233   1.111   .     S
C1232  H1235   1.111   .     S
C1232  C341    1.527   1_556 S
O1236  C1237   1.421   .     S
C1237  H1238   1.111   .     S
C1237  C1240   1.530   .     S
C1237  H1239   1.111   .     S
C1240  H1242   1.112   .     S
C1240  H1241   1.101   .     S
C1240  C1243   1.526   .     S
C1243  H1244   1.109   .     S
C1243  H1245   1.111   .     S
C1243  H950    1.110   1_565 S
N1247  H1249   1.042   .     S
N1247  H1248   1.045   .     S
N1250  H1251   1.042   .     S
N1250  H956    1.046   1_565 S
N1253  H1255   1.045   .     S
N1253  C893    1.441   1_565 S
N1253  H958    1.045   1_565 S
N1256  H1258   1.045   .     S
H1257  N960    1.046   1_565 S
C1259  O1291   1.287   .     A
C1259  C1263   1.431   .     S
C1259  O1293   1.287   .     A
C1260  O1292   1.288   .     A
C1260  C1264   1.430   .     S
C1260  O1294   1.286   .     A
C1261  H1285   1.083   .     S
C1261  C1278   1.395   .     A
C1262  H1286   1.085   .     S
C1262  C1277   1.395   .     A
C1262  C1206   1.398   1_655 S
C1264  C967    1.348   1_565 S
C1264  N1034   1.441   1_565 S
C1265  O1295   1.295   .     A
C1265  C1270   1.447   .     S
C1265  O1297   1.291   .     A
C1266  O1296   1.293   .     A
C1266  C1269   1.444   .     S
C1266  O1298   1.291   .     A
C1267  C1269   1.389   .     A
C1267  H1283   1.086   .     S
C1267  C1277   1.386   .     A
C1268  H1284   1.085   .     S
C1268  C1270   1.390   .     A
C1268  C1278   1.388   .     A
C1269  C1271   1.406   .     A
C1270  C1272   1.406   .     A
C1271  C1273   1.421   .     A
C1271  O1299   1.389   .     S
C1272  C1274   1.421   .     A
C1272  O1310   1.389   .     S
C1273  C1279   1.424   .     A
C1273  C1275   1.424   .     A
C1274  C1280   1.420   .     A
C1274  C1276   1.423   .     A
C1275  C1277   1.409   .     A
C1275  C1202   1.406   1_655 S
C1276  C1278   1.409   .     A
C1279  N1321   1.435   .     S
C1279  C1187   1.392   1_655 S
C1280  N1324   1.437   .     S
Cu1281 Cu1282  2.687   .     S
Cu1281 N1290   2.019   .     S
Cu1281 O1298   1.945   .     S
Cu1281 O1294   1.962   .     S
Cu1281 O1295   1.964   .     S
Cu1281 O1291   1.967   .     S
Cu1282 O1296   1.964   .     S
Cu1282 N1289   2.019   .     S
Cu1282 O1293   1.962   .     S
Cu1282 O1297   1.945   .     S
Cu1282 O1292   1.967   .     S
H1287  N401    1.029   1_556 S
N1290  N401    1.293   1_556 S
N1290  H400    1.029   1_556 S
O1299  C1300   1.420   .     S
C1300  H1302   1.115   .     S
C1300  H1301   1.111   .     S
C1300  C1303   1.529   .     S
C1303  H1304   1.111   .     S
C1303  H1305   1.111   .     S
C1306  H1308   1.105   .     S
C1306  H1307   1.111   .     S
C1306  H1309   1.111   .     S
C1306  C415    1.527   1_556 S
O1310  C1311   1.421   .     S
C1311  H1312   1.111   .     S
C1311  C1314   1.530   .     S
C1311  H1313   1.111   .     S
C1314  H1316   1.112   .     S
C1314  H1315   1.101   .     S
C1314  C1317   1.526   .     S
C1317  H1318   1.109   .     S
C1317  H1319   1.111   .     S
C1317  H1024   1.110   1_565 S
N1321  H1323   1.042   .     S
N1321  H1322   1.045   .     S
N1324  H1325   1.042   .     S
N1324  H1030   1.046   1_565 S
N1327  H1329   1.045   .     S
N1327  C967    1.441   1_565 S
N1327  H1032   1.045   1_565 S
N1330  H1332   1.045   .     S
H1331  N1034   1.046   1_565 S
