data_str_m2_o10_o18_pcu_sym.72
_audit_creation_date              2020-01-03
_audit_creation_method            'Materials Studio'
_symmetry_space_group_name_H-M    'P1'
_symmetry_Int_Tables_number       1
_symmetry_cell_setting            triclinic
loop_
_symmetry_equiv_pos_as_xyz
  x,y,z
_cell_length_a                    22.3341
_cell_length_b                    26.0724
_cell_length_c                    31.3008
_cell_angle_alpha                 94.1824
_cell_angle_beta                  75.3247
_cell_angle_gamma                 103.1574
loop_
_atom_site_label
_atom_site_type_symbol
_atom_site_fract_x
_atom_site_fract_y
_atom_site_fract_z
_atom_site_U_iso_or_equiv
_atom_site_adp_type
_atom_site_occupancy
C1     C     0.18168   0.26672   0.25132   0.00000  Uiso   1.00
C2     C     0.20522   0.17035   0.16660   0.00000  Uiso   1.00
C3     C     0.10477   0.14815   0.38019   0.00000  Uiso   1.00
C4     C     0.22897   0.17234   0.11823   0.00000  Uiso   1.00
C5     C     0.03339   0.09086   0.43739   0.00000  Uiso   1.00
C6     C     0.31357   0.19734   0.05306   0.00000  Uiso   1.00
C7     C     0.04801   0.11171   0.39529   0.00000  Uiso   1.00
C8     C     0.29304   0.19205   0.09870   0.00000  Uiso   1.00
C9     C     0.14579   0.16425   0.40796   0.00000  Uiso   1.00
C10    C     0.18655   0.15516   0.09136   0.00000  Uiso   1.00
C11    C     0.13656   0.13828   0.44776   0.00000  Uiso   1.00
C12    C     0.15163   0.06662   0.24872   0.00000  Uiso   1.00
C13    C     0.20737   0.15499   0.04494   0.00000  Uiso   1.00
C14    C     0.07798   0.10252   0.46363   0.00000  Uiso   1.00
C15    C     0.27092   0.18049   0.02591   0.00000  Uiso   1.00
C16    C     0.18369   0.14818   0.47237   0.00000  Uiso   1.00
C17    C     0.16552   0.13347   0.01733   0.00000  Uiso   1.00
C18    C     0.10824   0.09524   0.03241   0.00000  Uiso   1.00
C19    C     0.24884   0.17100   0.45326   0.00000  Uiso   1.00
C20    C     0.06558   0.07884   0.00502   0.00000  Uiso   1.00
C21    C     0.29136   0.18887   0.48032   0.00000  Uiso   1.00
C22    C     0.19013   0.32269   0.25198   0.00000  Uiso   1.00
C23    C     0.14315   0.01065   0.24812   0.00000  Uiso   1.00
C24    C     0.12805   0.16164   0.33327   0.00000  Uiso   1.00
Cu25   Cu    0.10737   0.16108   0.24516   0.00000  Uiso   1.00
Cu26   Cu    0.22596   0.17225   0.25483   0.00000  Uiso   1.00
H27    H     0.13669   0.14417   0.10723   0.00000  Uiso   1.00
H28    H     0.33201   0.12805   0.21543   0.00000  Uiso   1.00
H29    H     0.00565   0.01575   0.49441   0.00000  Uiso   1.00
H30    H     0.02625   0.22336   0.43181   0.00000  Uiso   1.00
H31    H     0.05641   0.04613   0.07933   0.00000  Uiso   1.00
H32    H     0.25267   0.13777   0.39575   0.00000  Uiso   1.00
H33    H     0.18609   0.19632   0.39719   0.00000  Uiso   1.00
H34    H     0.32679   0.20549   0.11877   0.00000  Uiso   1.00
H35    H     0.01566   0.09838   0.37420   0.00000  Uiso   1.00
H36    H     0.32082   0.06485   0.44849   0.00000  Uiso   1.00
H37    H     0.02966   0.21499   0.03922   0.00000  Uiso   1.00
H38    H     0.23542   0.01315   0.25562   0.00000  Uiso   1.00
H39    H     0.09786   0.32019   0.24448   0.00000  Uiso   1.00
H40    H     0.00131   0.20527   0.28459   0.00000  Uiso   1.00
N41    N     0.31506   0.18068   0.26212   0.00000  Uiso   1.00
N42    N     0.01827   0.15265   0.23788   0.00000  Uiso   1.00
O43    O     0.12815   0.23809   0.24686   0.00000  Uiso   1.00
O44    O     0.02031   0.21424   0.46297   0.00000  Uiso   1.00
O45    O     0.09929   0.06913   0.07127   0.00000  Uiso   1.00
O46    O     0.27429   0.17075   0.40824   0.00000  Uiso   1.00
O47    O     0.20518   0.09524   0.25314   0.00000  Uiso   1.00
O48    O     0.22829   0.24753   0.25502   0.00000  Uiso   1.00
O49    O     0.10504   0.08580   0.24497   0.00000  Uiso   1.00
O50    O     0.08851   0.15930   0.30854   0.00000  Uiso   1.00
O51    O     0.24482   0.17403   0.19145   0.00000  Uiso   1.00
O52    O     0.18866   0.16874   0.31671   0.00000  Uiso   1.00
O53    O     0.14468   0.16460   0.18329   0.00000  Uiso   1.00
O54    O     0.01239   0.03958   0.01968   0.00000  Uiso   1.00
C55    C     0.51502   0.26672   0.25132   0.00000  Uiso   1.00
C56    C     0.53855   0.17035   0.16660   0.00000  Uiso   1.00
C57    C     0.43810   0.14815   0.38019   0.00000  Uiso   1.00
C58    C     0.56231   0.17234   0.11823   0.00000  Uiso   1.00
C59    C     0.36672   0.09086   0.43739   0.00000  Uiso   1.00
C60    C     0.64690   0.19734   0.05306   0.00000  Uiso   1.00
C61    C     0.38134   0.11171   0.39529   0.00000  Uiso   1.00
C62    C     0.62638   0.19205   0.09870   0.00000  Uiso   1.00
C63    C     0.47912   0.16425   0.40796   0.00000  Uiso   1.00
C64    C     0.51988   0.15516   0.09136   0.00000  Uiso   1.00
C65    C     0.46989   0.13828   0.44776   0.00000  Uiso   1.00
C66    C     0.48496   0.06662   0.24872   0.00000  Uiso   1.00
C67    C     0.54070   0.15499   0.04494   0.00000  Uiso   1.00
C68    C     0.41132   0.10252   0.46363   0.00000  Uiso   1.00
C69    C     0.60425   0.18049   0.02591   0.00000  Uiso   1.00
C70    C     0.51702   0.14818   0.47237   0.00000  Uiso   1.00
C71    C     0.49885   0.13347   0.01733   0.00000  Uiso   1.00
C72    C     0.44157   0.09524   0.03241   0.00000  Uiso   1.00
C73    C     0.58218   0.17100   0.45326   0.00000  Uiso   1.00
C74    C     0.39892   0.07884   0.00502   0.00000  Uiso   1.00
C75    C     0.62469   0.18887   0.48032   0.00000  Uiso   1.00
C76    C     0.52347   0.32269   0.25198   0.00000  Uiso   1.00
C77    C     0.47648   0.01065   0.24812   0.00000  Uiso   1.00
C78    C     0.46139   0.16164   0.33327   0.00000  Uiso   1.00
Cu79   Cu    0.44071   0.16108   0.24516   0.00000  Uiso   1.00
Cu80   Cu    0.55929   0.17225   0.25483   0.00000  Uiso   1.00
H81    H     0.47002   0.14417   0.10723   0.00000  Uiso   1.00
H82    H     0.66534   0.12805   0.21543   0.00000  Uiso   1.00
H83    H     0.33899   0.01575   0.49441   0.00000  Uiso   1.00
H84    H     0.35958   0.22336   0.43181   0.00000  Uiso   1.00
H85    H     0.38974   0.04613   0.07933   0.00000  Uiso   1.00
H86    H     0.58600   0.13777   0.39575   0.00000  Uiso   1.00
H87    H     0.51942   0.19632   0.39719   0.00000  Uiso   1.00
H88    H     0.66013   0.20549   0.11877   0.00000  Uiso   1.00
H89    H     0.34899   0.09838   0.37420   0.00000  Uiso   1.00
H90    H     0.65415   0.06485   0.44849   0.00000  Uiso   1.00
H91    H     0.36299   0.21499   0.03922   0.00000  Uiso   1.00
H92    H     0.56875   0.01315   0.25562   0.00000  Uiso   1.00
H93    H     0.43120   0.32019   0.24448   0.00000  Uiso   1.00
H94    H     0.33465   0.20527   0.28459   0.00000  Uiso   1.00
N95    N     0.64839   0.18068   0.26212   0.00000  Uiso   1.00
N96    N     0.35161   0.15265   0.23788   0.00000  Uiso   1.00
O97    O     0.46148   0.23809   0.24686   0.00000  Uiso   1.00
O98    O     0.35364   0.21424   0.46297   0.00000  Uiso   1.00
O99    O     0.43262   0.06913   0.07127   0.00000  Uiso   1.00
O100   O     0.60763   0.17075   0.40824   0.00000  Uiso   1.00
O101   O     0.53852   0.09524   0.25314   0.00000  Uiso   1.00
O102   O     0.56163   0.24753   0.25502   0.00000  Uiso   1.00
O103   O     0.43837   0.08580   0.24497   0.00000  Uiso   1.00
O104   O     0.42185   0.15930   0.30854   0.00000  Uiso   1.00
O105   O     0.57815   0.17403   0.19145   0.00000  Uiso   1.00
O106   O     0.52199   0.16874   0.31671   0.00000  Uiso   1.00
O107   O     0.47801   0.16460   0.18329   0.00000  Uiso   1.00
O108   O     0.34572   0.03958   0.01968   0.00000  Uiso   1.00
C109   C     0.84835   0.26672   0.25132   0.00000  Uiso   1.00
C110   C     0.87189   0.17035   0.16660   0.00000  Uiso   1.00
C111   C     0.77144   0.14815   0.38019   0.00000  Uiso   1.00
C112   C     0.89564   0.17234   0.11823   0.00000  Uiso   1.00
C113   C     0.70006   0.09086   0.43739   0.00000  Uiso   1.00
C114   C     0.98024   0.19734   0.05306   0.00000  Uiso   1.00
C115   C     0.71467   0.11171   0.39529   0.00000  Uiso   1.00
C116   C     0.95971   0.19205   0.09870   0.00000  Uiso   1.00
C117   C     0.81246   0.16425   0.40796   0.00000  Uiso   1.00
C118   C     0.85321   0.15516   0.09136   0.00000  Uiso   1.00
C119   C     0.80323   0.13828   0.44776   0.00000  Uiso   1.00
C120   C     0.81829   0.06662   0.24872   0.00000  Uiso   1.00
C121   C     0.87404   0.15499   0.04494   0.00000  Uiso   1.00
C122   C     0.74465   0.10252   0.46363   0.00000  Uiso   1.00
C123   C     0.93759   0.18049   0.02591   0.00000  Uiso   1.00
C124   C     0.85036   0.14818   0.47237   0.00000  Uiso   1.00
C125   C     0.83219   0.13347   0.01733   0.00000  Uiso   1.00
C126   C     0.77490   0.09524   0.03241   0.00000  Uiso   1.00
C127   C     0.91551   0.17100   0.45326   0.00000  Uiso   1.00
C128   C     0.73225   0.07884   0.00502   0.00000  Uiso   1.00
C129   C     0.95802   0.18887   0.48032   0.00000  Uiso   1.00
C130   C     0.85680   0.32269   0.25198   0.00000  Uiso   1.00
C131   C     0.80981   0.01065   0.24812   0.00000  Uiso   1.00
C132   C     0.79472   0.16164   0.33327   0.00000  Uiso   1.00
Cu133  Cu    0.77404   0.16108   0.24516   0.00000  Uiso   1.00
Cu134  Cu    0.89263   0.17225   0.25483   0.00000  Uiso   1.00
H135   H     0.80336   0.14417   0.10723   0.00000  Uiso   1.00
H136   H     0.99868   0.12805   0.21543   0.00000  Uiso   1.00
H137   H     0.67232   0.01575   0.49441   0.00000  Uiso   1.00
H138   H     0.69292   0.22336   0.43181   0.00000  Uiso   1.00
H139   H     0.72308   0.04613   0.07933   0.00000  Uiso   1.00
H140   H     0.91933   0.13777   0.39575   0.00000  Uiso   1.00
H141   H     0.85275   0.19632   0.39719   0.00000  Uiso   1.00
H142   H     0.99346   0.20549   0.11877   0.00000  Uiso   1.00
H143   H     0.68233   0.09838   0.37420   0.00000  Uiso   1.00
H144   H     0.98749   0.06485   0.44849   0.00000  Uiso   1.00
H145   H     0.69632   0.21499   0.03922   0.00000  Uiso   1.00
H146   H     0.90208   0.01315   0.25562   0.00000  Uiso   1.00
H147   H     0.76453   0.32019   0.24448   0.00000  Uiso   1.00
H148   H     0.66798   0.20527   0.28459   0.00000  Uiso   1.00
N149   N     0.98173   0.18068   0.26212   0.00000  Uiso   1.00
N150   N     0.68494   0.15265   0.23788   0.00000  Uiso   1.00
O151   O     0.79482   0.23809   0.24686   0.00000  Uiso   1.00
O152   O     0.68698   0.21424   0.46297   0.00000  Uiso   1.00
O153   O     0.76596   0.06913   0.07127   0.00000  Uiso   1.00
O154   O     0.94096   0.17075   0.40824   0.00000  Uiso   1.00
O155   O     0.87185   0.09524   0.25314   0.00000  Uiso   1.00
O156   O     0.89496   0.24753   0.25502   0.00000  Uiso   1.00
O157   O     0.77171   0.08580   0.24497   0.00000  Uiso   1.00
O158   O     0.75518   0.15930   0.30854   0.00000  Uiso   1.00
O159   O     0.91149   0.17403   0.19145   0.00000  Uiso   1.00
O160   O     0.85532   0.16874   0.31671   0.00000  Uiso   1.00
O161   O     0.81134   0.16460   0.18329   0.00000  Uiso   1.00
O162   O     0.67905   0.03958   0.01968   0.00000  Uiso   1.00
C163   C     0.18168   0.60005   0.25132   0.00000  Uiso   1.00
C164   C     0.20522   0.50369   0.16660   0.00000  Uiso   1.00
C165   C     0.10477   0.48148   0.38019   0.00000  Uiso   1.00
C166   C     0.22897   0.50567   0.11823   0.00000  Uiso   1.00
C167   C     0.03339   0.42419   0.43739   0.00000  Uiso   1.00
C168   C     0.31357   0.53067   0.05306   0.00000  Uiso   1.00
C169   C     0.04801   0.44505   0.39529   0.00000  Uiso   1.00
C170   C     0.29304   0.52538   0.09870   0.00000  Uiso   1.00
C171   C     0.14579   0.49758   0.40796   0.00000  Uiso   1.00
C172   C     0.18655   0.48849   0.09136   0.00000  Uiso   1.00
C173   C     0.13656   0.47161   0.44776   0.00000  Uiso   1.00
C174   C     0.15163   0.39995   0.24872   0.00000  Uiso   1.00
C175   C     0.20737   0.48833   0.04494   0.00000  Uiso   1.00
C176   C     0.07798   0.43585   0.46363   0.00000  Uiso   1.00
C177   C     0.27092   0.51383   0.02591   0.00000  Uiso   1.00
C178   C     0.18369   0.48152   0.47237   0.00000  Uiso   1.00
C179   C     0.16552   0.46680   0.01733   0.00000  Uiso   1.00
C180   C     0.10824   0.42858   0.03241   0.00000  Uiso   1.00
C181   C     0.24884   0.50433   0.45326   0.00000  Uiso   1.00
C182   C     0.06558   0.41217   0.00502   0.00000  Uiso   1.00
C183   C     0.29136   0.52220   0.48032   0.00000  Uiso   1.00
C184   C     0.19013   0.65602   0.25198   0.00000  Uiso   1.00
C185   C     0.14315   0.34398   0.24812   0.00000  Uiso   1.00
C186   C     0.12805   0.49497   0.33327   0.00000  Uiso   1.00
Cu187  Cu    0.10737   0.49441   0.24516   0.00000  Uiso   1.00
Cu188  Cu    0.22596   0.50559   0.25483   0.00000  Uiso   1.00
H189   H     0.13669   0.47750   0.10723   0.00000  Uiso   1.00
H190   H     0.33201   0.46138   0.21543   0.00000  Uiso   1.00
H191   H     0.00565   0.34909   0.49441   0.00000  Uiso   1.00
H192   H     0.02625   0.55670   0.43181   0.00000  Uiso   1.00
H193   H     0.05641   0.37947   0.07933   0.00000  Uiso   1.00
H194   H     0.25267   0.47110   0.39575   0.00000  Uiso   1.00
H195   H     0.18609   0.52965   0.39719   0.00000  Uiso   1.00
H196   H     0.32679   0.53882   0.11877   0.00000  Uiso   1.00
H197   H     0.01566   0.43172   0.37420   0.00000  Uiso   1.00
H198   H     0.32082   0.39818   0.44849   0.00000  Uiso   1.00
H199   H     0.02966   0.54832   0.03922   0.00000  Uiso   1.00
H200   H     0.23542   0.34648   0.25562   0.00000  Uiso   1.00
H201   H     0.09786   0.65352   0.24448   0.00000  Uiso   1.00
H202   H     0.00131   0.53860   0.28459   0.00000  Uiso   1.00
N203   N     0.31506   0.51401   0.26212   0.00000  Uiso   1.00
N204   N     0.01827   0.48599   0.23788   0.00000  Uiso   1.00
O205   O     0.12815   0.57142   0.24686   0.00000  Uiso   1.00
O206   O     0.02031   0.54757   0.46297   0.00000  Uiso   1.00
O207   O     0.09929   0.40246   0.07127   0.00000  Uiso   1.00
O208   O     0.27429   0.50409   0.40824   0.00000  Uiso   1.00
O209   O     0.20518   0.42858   0.25314   0.00000  Uiso   1.00
O210   O     0.22829   0.58086   0.25502   0.00000  Uiso   1.00
O211   O     0.10504   0.41914   0.24497   0.00000  Uiso   1.00
O212   O     0.08851   0.49263   0.30854   0.00000  Uiso   1.00
O213   O     0.24482   0.50737   0.19145   0.00000  Uiso   1.00
O214   O     0.18866   0.50207   0.31671   0.00000  Uiso   1.00
O215   O     0.14468   0.49793   0.18329   0.00000  Uiso   1.00
O216   O     0.01239   0.37291   0.01968   0.00000  Uiso   1.00
C217   C     0.51502   0.60005   0.25132   0.00000  Uiso   1.00
C218   C     0.53855   0.50369   0.16660   0.00000  Uiso   1.00
C219   C     0.43810   0.48148   0.38019   0.00000  Uiso   1.00
C220   C     0.56231   0.50567   0.11823   0.00000  Uiso   1.00
C221   C     0.36672   0.42419   0.43739   0.00000  Uiso   1.00
C222   C     0.64690   0.53067   0.05306   0.00000  Uiso   1.00
C223   C     0.38134   0.44505   0.39529   0.00000  Uiso   1.00
C224   C     0.62638   0.52538   0.09870   0.00000  Uiso   1.00
C225   C     0.47912   0.49758   0.40796   0.00000  Uiso   1.00
C226   C     0.51988   0.48849   0.09136   0.00000  Uiso   1.00
C227   C     0.46989   0.47161   0.44776   0.00000  Uiso   1.00
C228   C     0.48496   0.39995   0.24872   0.00000  Uiso   1.00
C229   C     0.54070   0.48833   0.04494   0.00000  Uiso   1.00
C230   C     0.41132   0.43585   0.46363   0.00000  Uiso   1.00
C231   C     0.60425   0.51383   0.02591   0.00000  Uiso   1.00
C232   C     0.51702   0.48152   0.47237   0.00000  Uiso   1.00
C233   C     0.49885   0.46680   0.01733   0.00000  Uiso   1.00
C234   C     0.44157   0.42858   0.03241   0.00000  Uiso   1.00
C235   C     0.58218   0.50433   0.45326   0.00000  Uiso   1.00
C236   C     0.39892   0.41217   0.00502   0.00000  Uiso   1.00
C237   C     0.62469   0.52220   0.48032   0.00000  Uiso   1.00
C238   C     0.52347   0.65602   0.25198   0.00000  Uiso   1.00
C239   C     0.47648   0.34398   0.24812   0.00000  Uiso   1.00
C240   C     0.46139   0.49497   0.33327   0.00000  Uiso   1.00
Cu241  Cu    0.44071   0.49441   0.24516   0.00000  Uiso   1.00
Cu242  Cu    0.55929   0.50559   0.25483   0.00000  Uiso   1.00
H243   H     0.47002   0.47750   0.10723   0.00000  Uiso   1.00
H244   H     0.66534   0.46138   0.21543   0.00000  Uiso   1.00
H245   H     0.33899   0.34909   0.49441   0.00000  Uiso   1.00
H246   H     0.35958   0.55670   0.43181   0.00000  Uiso   1.00
H247   H     0.38974   0.37947   0.07933   0.00000  Uiso   1.00
H248   H     0.58600   0.47110   0.39575   0.00000  Uiso   1.00
H249   H     0.51942   0.52965   0.39719   0.00000  Uiso   1.00
H250   H     0.66013   0.53882   0.11877   0.00000  Uiso   1.00
H251   H     0.34899   0.43172   0.37420   0.00000  Uiso   1.00
H252   H     0.65415   0.39818   0.44849   0.00000  Uiso   1.00
H253   H     0.36299   0.54832   0.03922   0.00000  Uiso   1.00
H254   H     0.56875   0.34648   0.25562   0.00000  Uiso   1.00
H255   H     0.43120   0.65352   0.24448   0.00000  Uiso   1.00
H256   H     0.33465   0.53860   0.28459   0.00000  Uiso   1.00
N257   N     0.64839   0.51401   0.26212   0.00000  Uiso   1.00
N258   N     0.35161   0.48599   0.23788   0.00000  Uiso   1.00
O259   O     0.46148   0.57142   0.24686   0.00000  Uiso   1.00
O260   O     0.35364   0.54757   0.46297   0.00000  Uiso   1.00
O261   O     0.43262   0.40246   0.07127   0.00000  Uiso   1.00
O262   O     0.60763   0.50409   0.40824   0.00000  Uiso   1.00
O263   O     0.53852   0.42858   0.25314   0.00000  Uiso   1.00
O264   O     0.56163   0.58086   0.25502   0.00000  Uiso   1.00
O265   O     0.43837   0.41914   0.24497   0.00000  Uiso   1.00
O266   O     0.42185   0.49263   0.30854   0.00000  Uiso   1.00
O267   O     0.57815   0.50737   0.19145   0.00000  Uiso   1.00
O268   O     0.52199   0.50207   0.31671   0.00000  Uiso   1.00
O269   O     0.47801   0.49793   0.18329   0.00000  Uiso   1.00
O270   O     0.34572   0.37291   0.01968   0.00000  Uiso   1.00
C271   C     0.84835   0.60005   0.25132   0.00000  Uiso   1.00
C272   C     0.87189   0.50369   0.16660   0.00000  Uiso   1.00
C273   C     0.77144   0.48148   0.38019   0.00000  Uiso   1.00
C274   C     0.89564   0.50567   0.11823   0.00000  Uiso   1.00
C275   C     0.70006   0.42419   0.43739   0.00000  Uiso   1.00
C276   C     0.98024   0.53067   0.05306   0.00000  Uiso   1.00
C277   C     0.71467   0.44505   0.39529   0.00000  Uiso   1.00
C278   C     0.95971   0.52538   0.09870   0.00000  Uiso   1.00
C279   C     0.81246   0.49758   0.40796   0.00000  Uiso   1.00
C280   C     0.85321   0.48849   0.09136   0.00000  Uiso   1.00
C281   C     0.80323   0.47161   0.44776   0.00000  Uiso   1.00
C282   C     0.81829   0.39995   0.24872   0.00000  Uiso   1.00
C283   C     0.87404   0.48833   0.04494   0.00000  Uiso   1.00
C284   C     0.74465   0.43585   0.46363   0.00000  Uiso   1.00
C285   C     0.93759   0.51383   0.02591   0.00000  Uiso   1.00
C286   C     0.85036   0.48152   0.47237   0.00000  Uiso   1.00
C287   C     0.83219   0.46680   0.01733   0.00000  Uiso   1.00
C288   C     0.77490   0.42858   0.03241   0.00000  Uiso   1.00
C289   C     0.91551   0.50433   0.45326   0.00000  Uiso   1.00
C290   C     0.73225   0.41217   0.00502   0.00000  Uiso   1.00
C291   C     0.95802   0.52220   0.48032   0.00000  Uiso   1.00
C292   C     0.85680   0.65602   0.25198   0.00000  Uiso   1.00
C293   C     0.80981   0.34398   0.24812   0.00000  Uiso   1.00
C294   C     0.79472   0.49497   0.33327   0.00000  Uiso   1.00
Cu295  Cu    0.77404   0.49441   0.24516   0.00000  Uiso   1.00
Cu296  Cu    0.89263   0.50559   0.25483   0.00000  Uiso   1.00
H297   H     0.80336   0.47750   0.10723   0.00000  Uiso   1.00
H298   H     0.99868   0.46138   0.21543   0.00000  Uiso   1.00
H299   H     0.67232   0.34909   0.49441   0.00000  Uiso   1.00
H300   H     0.69292   0.55670   0.43181   0.00000  Uiso   1.00
H301   H     0.72308   0.37947   0.07933   0.00000  Uiso   1.00
H302   H     0.91933   0.47110   0.39575   0.00000  Uiso   1.00
H303   H     0.85275   0.52965   0.39719   0.00000  Uiso   1.00
H304   H     0.99346   0.53882   0.11877   0.00000  Uiso   1.00
H305   H     0.68233   0.43172   0.37420   0.00000  Uiso   1.00
H306   H     0.98749   0.39818   0.44849   0.00000  Uiso   1.00
H307   H     0.69632   0.54832   0.03922   0.00000  Uiso   1.00
H308   H     0.90208   0.34648   0.25562   0.00000  Uiso   1.00
H309   H     0.76453   0.65352   0.24448   0.00000  Uiso   1.00
H310   H     0.66798   0.53860   0.28459   0.00000  Uiso   1.00
N311   N     0.98173   0.51401   0.26212   0.00000  Uiso   1.00
N312   N     0.68494   0.48599   0.23788   0.00000  Uiso   1.00
O313   O     0.79482   0.57142   0.24686   0.00000  Uiso   1.00
O314   O     0.68698   0.54757   0.46297   0.00000  Uiso   1.00
O315   O     0.76596   0.40246   0.07127   0.00000  Uiso   1.00
O316   O     0.94096   0.50409   0.40824   0.00000  Uiso   1.00
O317   O     0.87185   0.42858   0.25314   0.00000  Uiso   1.00
O318   O     0.89496   0.58086   0.25502   0.00000  Uiso   1.00
O319   O     0.77171   0.41914   0.24497   0.00000  Uiso   1.00
O320   O     0.75518   0.49263   0.30854   0.00000  Uiso   1.00
O321   O     0.91149   0.50737   0.19145   0.00000  Uiso   1.00
O322   O     0.85532   0.50207   0.31671   0.00000  Uiso   1.00
O323   O     0.81134   0.49793   0.18329   0.00000  Uiso   1.00
O324   O     0.67905   0.37291   0.01968   0.00000  Uiso   1.00
C325   C     0.18168   0.93338   0.25132   0.00000  Uiso   1.00
C326   C     0.20522   0.83702   0.16660   0.00000  Uiso   1.00
C327   C     0.10477   0.81482   0.38019   0.00000  Uiso   1.00
C328   C     0.22897   0.83901   0.11823   0.00000  Uiso   1.00
C329   C     0.03339   0.75753   0.43739   0.00000  Uiso   1.00
C330   C     0.31357   0.86401   0.05306   0.00000  Uiso   1.00
C331   C     0.04801   0.77838   0.39529   0.00000  Uiso   1.00
C332   C     0.29304   0.85872   0.09870   0.00000  Uiso   1.00
C333   C     0.14579   0.83091   0.40796   0.00000  Uiso   1.00
C334   C     0.18655   0.82182   0.09136   0.00000  Uiso   1.00
C335   C     0.13656   0.80495   0.44776   0.00000  Uiso   1.00
C336   C     0.15163   0.73328   0.24872   0.00000  Uiso   1.00
C337   C     0.20737   0.82166   0.04494   0.00000  Uiso   1.00
C338   C     0.07798   0.76919   0.46363   0.00000  Uiso   1.00
C339   C     0.27092   0.84716   0.02591   0.00000  Uiso   1.00
C340   C     0.18369   0.81485   0.47237   0.00000  Uiso   1.00
C341   C     0.16552   0.80013   0.01733   0.00000  Uiso   1.00
C342   C     0.10824   0.76191   0.03241   0.00000  Uiso   1.00
C343   C     0.24884   0.83766   0.45326   0.00000  Uiso   1.00
C344   C     0.06558   0.74551   0.00502   0.00000  Uiso   1.00
C345   C     0.29136   0.85553   0.48032   0.00000  Uiso   1.00
C346   C     0.19013   0.98935   0.25198   0.00000  Uiso   1.00
C347   C     0.14315   0.67732   0.24812   0.00000  Uiso   1.00
C348   C     0.12805   0.82831   0.33327   0.00000  Uiso   1.00
Cu349  Cu    0.10737   0.82775   0.24516   0.00000  Uiso   1.00
Cu350  Cu    0.22596   0.83892   0.25483   0.00000  Uiso   1.00
H351   H     0.13669   0.81083   0.10723   0.00000  Uiso   1.00
H352   H     0.33201   0.79472   0.21543   0.00000  Uiso   1.00
H353   H     0.00565   0.68242   0.49441   0.00000  Uiso   1.00
H354   H     0.02625   0.89003   0.43181   0.00000  Uiso   1.00
H355   H     0.05641   0.71280   0.07933   0.00000  Uiso   1.00
H356   H     0.25267   0.80443   0.39575   0.00000  Uiso   1.00
H357   H     0.18609   0.86298   0.39719   0.00000  Uiso   1.00
H358   H     0.32679   0.87215   0.11877   0.00000  Uiso   1.00
H359   H     0.01566   0.76505   0.37420   0.00000  Uiso   1.00
H360   H     0.32082   0.73152   0.44849   0.00000  Uiso   1.00
H361   H     0.02966   0.88166   0.03922   0.00000  Uiso   1.00
H362   H     0.23542   0.67981   0.25562   0.00000  Uiso   1.00
H363   H     0.09786   0.98686   0.24448   0.00000  Uiso   1.00
H364   H     0.00131   0.87193   0.28459   0.00000  Uiso   1.00
N365   N     0.31506   0.84735   0.26212   0.00000  Uiso   1.00
N366   N     0.01827   0.81932   0.23788   0.00000  Uiso   1.00
O367   O     0.12815   0.90476   0.24686   0.00000  Uiso   1.00
O368   O     0.02031   0.88090   0.46297   0.00000  Uiso   1.00
O369   O     0.09929   0.73580   0.07127   0.00000  Uiso   1.00
O370   O     0.27429   0.83742   0.40824   0.00000  Uiso   1.00
O371   O     0.20518   0.76191   0.25314   0.00000  Uiso   1.00
O372   O     0.22829   0.91420   0.25502   0.00000  Uiso   1.00
O373   O     0.10504   0.75247   0.24497   0.00000  Uiso   1.00
O374   O     0.08851   0.82597   0.30854   0.00000  Uiso   1.00
O375   O     0.24482   0.84070   0.19145   0.00000  Uiso   1.00
O376   O     0.18866   0.83540   0.31671   0.00000  Uiso   1.00
O377   O     0.14468   0.83126   0.18329   0.00000  Uiso   1.00
O378   O     0.01239   0.70625   0.01968   0.00000  Uiso   1.00
C379   C     0.51502   0.93338   0.25132   0.00000  Uiso   1.00
C380   C     0.53855   0.83702   0.16660   0.00000  Uiso   1.00
C381   C     0.43810   0.81482   0.38019   0.00000  Uiso   1.00
C382   C     0.56231   0.83901   0.11823   0.00000  Uiso   1.00
C383   C     0.36672   0.75753   0.43739   0.00000  Uiso   1.00
C384   C     0.64690   0.86401   0.05306   0.00000  Uiso   1.00
C385   C     0.38134   0.77838   0.39529   0.00000  Uiso   1.00
C386   C     0.62638   0.85872   0.09870   0.00000  Uiso   1.00
C387   C     0.47912   0.83091   0.40796   0.00000  Uiso   1.00
C388   C     0.51988   0.82182   0.09136   0.00000  Uiso   1.00
C389   C     0.46989   0.80495   0.44776   0.00000  Uiso   1.00
C390   C     0.48496   0.73328   0.24872   0.00000  Uiso   1.00
C391   C     0.54070   0.82166   0.04494   0.00000  Uiso   1.00
C392   C     0.41132   0.76919   0.46363   0.00000  Uiso   1.00
C393   C     0.60425   0.84716   0.02591   0.00000  Uiso   1.00
C394   C     0.51702   0.81485   0.47237   0.00000  Uiso   1.00
C395   C     0.49885   0.80013   0.01733   0.00000  Uiso   1.00
C396   C     0.44157   0.76191   0.03241   0.00000  Uiso   1.00
C397   C     0.58218   0.83766   0.45326   0.00000  Uiso   1.00
C398   C     0.39892   0.74551   0.00502   0.00000  Uiso   1.00
C399   C     0.62469   0.85553   0.48032   0.00000  Uiso   1.00
C400   C     0.52347   0.98935   0.25198   0.00000  Uiso   1.00
C401   C     0.47648   0.67732   0.24812   0.00000  Uiso   1.00
C402   C     0.46139   0.82831   0.33327   0.00000  Uiso   1.00
Cu403  Cu    0.44071   0.82775   0.24516   0.00000  Uiso   1.00
Cu404  Cu    0.55929   0.83892   0.25483   0.00000  Uiso   1.00
H405   H     0.47002   0.81083   0.10723   0.00000  Uiso   1.00
H406   H     0.66534   0.79472   0.21543   0.00000  Uiso   1.00
H407   H     0.33899   0.68242   0.49441   0.00000  Uiso   1.00
H408   H     0.35958   0.89003   0.43181   0.00000  Uiso   1.00
H409   H     0.38974   0.71280   0.07933   0.00000  Uiso   1.00
H410   H     0.58600   0.80443   0.39575   0.00000  Uiso   1.00
H411   H     0.51942   0.86298   0.39719   0.00000  Uiso   1.00
H412   H     0.66013   0.87215   0.11877   0.00000  Uiso   1.00
H413   H     0.34899   0.76505   0.37420   0.00000  Uiso   1.00
H414   H     0.65415   0.73152   0.44849   0.00000  Uiso   1.00
H415   H     0.36299   0.88166   0.03922   0.00000  Uiso   1.00
H416   H     0.56875   0.67981   0.25562   0.00000  Uiso   1.00
H417   H     0.43120   0.98686   0.24448   0.00000  Uiso   1.00
H418   H     0.33465   0.87193   0.28459   0.00000  Uiso   1.00
N419   N     0.64839   0.84735   0.26212   0.00000  Uiso   1.00
N420   N     0.35161   0.81932   0.23788   0.00000  Uiso   1.00
O421   O     0.46148   0.90476   0.24686   0.00000  Uiso   1.00
O422   O     0.35364   0.88090   0.46297   0.00000  Uiso   1.00
O423   O     0.43262   0.73580   0.07127   0.00000  Uiso   1.00
O424   O     0.60763   0.83742   0.40824   0.00000  Uiso   1.00
O425   O     0.53852   0.76191   0.25314   0.00000  Uiso   1.00
O426   O     0.56163   0.91420   0.25502   0.00000  Uiso   1.00
O427   O     0.43837   0.75247   0.24497   0.00000  Uiso   1.00
O428   O     0.42185   0.82597   0.30854   0.00000  Uiso   1.00
O429   O     0.57815   0.84070   0.19145   0.00000  Uiso   1.00
O430   O     0.52199   0.83540   0.31671   0.00000  Uiso   1.00
O431   O     0.47801   0.83126   0.18329   0.00000  Uiso   1.00
O432   O     0.34572   0.70625   0.01968   0.00000  Uiso   1.00
C433   C     0.84835   0.93338   0.25132   0.00000  Uiso   1.00
C434   C     0.87189   0.83702   0.16660   0.00000  Uiso   1.00
C435   C     0.77144   0.81482   0.38019   0.00000  Uiso   1.00
C436   C     0.89564   0.83901   0.11823   0.00000  Uiso   1.00
C437   C     0.70006   0.75753   0.43739   0.00000  Uiso   1.00
C438   C     0.98024   0.86401   0.05306   0.00000  Uiso   1.00
C439   C     0.71467   0.77838   0.39529   0.00000  Uiso   1.00
C440   C     0.95971   0.85872   0.09870   0.00000  Uiso   1.00
C441   C     0.81246   0.83091   0.40796   0.00000  Uiso   1.00
C442   C     0.85321   0.82182   0.09136   0.00000  Uiso   1.00
C443   C     0.80323   0.80495   0.44776   0.00000  Uiso   1.00
C444   C     0.81829   0.73328   0.24872   0.00000  Uiso   1.00
C445   C     0.87404   0.82166   0.04494   0.00000  Uiso   1.00
C446   C     0.74465   0.76919   0.46363   0.00000  Uiso   1.00
C447   C     0.93759   0.84716   0.02591   0.00000  Uiso   1.00
C448   C     0.85036   0.81485   0.47237   0.00000  Uiso   1.00
C449   C     0.83219   0.80013   0.01733   0.00000  Uiso   1.00
C450   C     0.77490   0.76191   0.03241   0.00000  Uiso   1.00
C451   C     0.91551   0.83766   0.45326   0.00000  Uiso   1.00
C452   C     0.73225   0.74551   0.00502   0.00000  Uiso   1.00
C453   C     0.95802   0.85553   0.48032   0.00000  Uiso   1.00
C454   C     0.85680   0.98935   0.25198   0.00000  Uiso   1.00
C455   C     0.80981   0.67732   0.24812   0.00000  Uiso   1.00
C456   C     0.79472   0.82831   0.33327   0.00000  Uiso   1.00
Cu457  Cu    0.77404   0.82775   0.24516   0.00000  Uiso   1.00
Cu458  Cu    0.89263   0.83892   0.25483   0.00000  Uiso   1.00
H459   H     0.80336   0.81083   0.10723   0.00000  Uiso   1.00
H460   H     0.99868   0.79472   0.21543   0.00000  Uiso   1.00
H461   H     0.67232   0.68242   0.49441   0.00000  Uiso   1.00
H462   H     0.69292   0.89003   0.43181   0.00000  Uiso   1.00
H463   H     0.72308   0.71280   0.07933   0.00000  Uiso   1.00
H464   H     0.91933   0.80443   0.39575   0.00000  Uiso   1.00
H465   H     0.85275   0.86298   0.39719   0.00000  Uiso   1.00
H466   H     0.99346   0.87215   0.11877   0.00000  Uiso   1.00
H467   H     0.68233   0.76505   0.37420   0.00000  Uiso   1.00
H468   H     0.98749   0.73152   0.44849   0.00000  Uiso   1.00
H469   H     0.69632   0.88166   0.03922   0.00000  Uiso   1.00
H470   H     0.90208   0.67981   0.25562   0.00000  Uiso   1.00
H471   H     0.76453   0.98686   0.24448   0.00000  Uiso   1.00
H472   H     0.66798   0.87193   0.28459   0.00000  Uiso   1.00
N473   N     0.98173   0.84735   0.26212   0.00000  Uiso   1.00
N474   N     0.68494   0.81932   0.23788   0.00000  Uiso   1.00
O475   O     0.79482   0.90476   0.24686   0.00000  Uiso   1.00
O476   O     0.68698   0.88090   0.46297   0.00000  Uiso   1.00
O477   O     0.76596   0.73580   0.07127   0.00000  Uiso   1.00
O478   O     0.94096   0.83742   0.40824   0.00000  Uiso   1.00
O479   O     0.87185   0.76191   0.25314   0.00000  Uiso   1.00
O480   O     0.89496   0.91420   0.25502   0.00000  Uiso   1.00
O481   O     0.77171   0.75247   0.24497   0.00000  Uiso   1.00
O482   O     0.75518   0.82597   0.30854   0.00000  Uiso   1.00
O483   O     0.91149   0.84070   0.19145   0.00000  Uiso   1.00
O484   O     0.85532   0.83540   0.31671   0.00000  Uiso   1.00
O485   O     0.81134   0.83126   0.18329   0.00000  Uiso   1.00
O486   O     0.67905   0.70625   0.01968   0.00000  Uiso   1.00
C487   C     0.18168   0.26672   0.75132   0.00000  Uiso   1.00
C488   C     0.20522   0.17035   0.66660   0.00000  Uiso   1.00
C489   C     0.10477   0.14815   0.88019   0.00000  Uiso   1.00
C490   C     0.22897   0.17234   0.61823   0.00000  Uiso   1.00
C491   C     0.03339   0.09086   0.93739   0.00000  Uiso   1.00
C492   C     0.31357   0.19734   0.55306   0.00000  Uiso   1.00
C493   C     0.04801   0.11171   0.89529   0.00000  Uiso   1.00
C494   C     0.29304   0.19205   0.59870   0.00000  Uiso   1.00
C495   C     0.14579   0.16425   0.90796   0.00000  Uiso   1.00
C496   C     0.18655   0.15516   0.59136   0.00000  Uiso   1.00
C497   C     0.13656   0.13828   0.94776   0.00000  Uiso   1.00
C498   C     0.15163   0.06662   0.74872   0.00000  Uiso   1.00
C499   C     0.20737   0.15499   0.54494   0.00000  Uiso   1.00
C500   C     0.07798   0.10252   0.96363   0.00000  Uiso   1.00
C501   C     0.27092   0.18049   0.52591   0.00000  Uiso   1.00
C502   C     0.18369   0.14818   0.97237   0.00000  Uiso   1.00
C503   C     0.16552   0.13347   0.51733   0.00000  Uiso   1.00
C504   C     0.10824   0.09524   0.53241   0.00000  Uiso   1.00
C505   C     0.24884   0.17100   0.95326   0.00000  Uiso   1.00
C506   C     0.06558   0.07884   0.50502   0.00000  Uiso   1.00
C507   C     0.29136   0.18887   0.98032   0.00000  Uiso   1.00
C508   C     0.19013   0.32269   0.75198   0.00000  Uiso   1.00
C509   C     0.14315   0.01065   0.74812   0.00000  Uiso   1.00
C510   C     0.12805   0.16164   0.83327   0.00000  Uiso   1.00
Cu511  Cu    0.10737   0.16108   0.74516   0.00000  Uiso   1.00
Cu512  Cu    0.22596   0.17225   0.75483   0.00000  Uiso   1.00
H513   H     0.13669   0.14417   0.60723   0.00000  Uiso   1.00
H514   H     0.33201   0.12805   0.71543   0.00000  Uiso   1.00
H515   H     0.00565   0.01575   0.99441   0.00000  Uiso   1.00
H516   H     0.02625   0.22336   0.93181   0.00000  Uiso   1.00
H517   H     0.05641   0.04613   0.57933   0.00000  Uiso   1.00
H518   H     0.25267   0.13777   0.89575   0.00000  Uiso   1.00
H519   H     0.18609   0.19632   0.89719   0.00000  Uiso   1.00
H520   H     0.32679   0.20549   0.61877   0.00000  Uiso   1.00
H521   H     0.01566   0.09838   0.87420   0.00000  Uiso   1.00
H522   H     0.32082   0.06485   0.94849   0.00000  Uiso   1.00
H523   H     0.02966   0.21499   0.53922   0.00000  Uiso   1.00
H524   H     0.23542   0.01315   0.75562   0.00000  Uiso   1.00
H525   H     0.09786   0.32019   0.74448   0.00000  Uiso   1.00
H526   H     0.00131   0.20527   0.78459   0.00000  Uiso   1.00
N527   N     0.31506   0.18068   0.76212   0.00000  Uiso   1.00
N528   N     0.01827   0.15265   0.73788   0.00000  Uiso   1.00
O529   O     0.12815   0.23809   0.74686   0.00000  Uiso   1.00
O530   O     0.02031   0.21424   0.96297   0.00000  Uiso   1.00
O531   O     0.09929   0.06913   0.57127   0.00000  Uiso   1.00
O532   O     0.27429   0.17075   0.90824   0.00000  Uiso   1.00
O533   O     0.20518   0.09524   0.75314   0.00000  Uiso   1.00
O534   O     0.22829   0.24753   0.75502   0.00000  Uiso   1.00
O535   O     0.10504   0.08580   0.74497   0.00000  Uiso   1.00
O536   O     0.08851   0.15930   0.80854   0.00000  Uiso   1.00
O537   O     0.24482   0.17403   0.69145   0.00000  Uiso   1.00
O538   O     0.18866   0.16874   0.81671   0.00000  Uiso   1.00
O539   O     0.14468   0.16460   0.68329   0.00000  Uiso   1.00
O540   O     0.01239   0.03958   0.51968   0.00000  Uiso   1.00
C541   C     0.51502   0.26672   0.75132   0.00000  Uiso   1.00
C542   C     0.53855   0.17035   0.66660   0.00000  Uiso   1.00
C543   C     0.43810   0.14815   0.88019   0.00000  Uiso   1.00
C544   C     0.56231   0.17234   0.61823   0.00000  Uiso   1.00
C545   C     0.36672   0.09086   0.93739   0.00000  Uiso   1.00
C546   C     0.64690   0.19734   0.55306   0.00000  Uiso   1.00
C547   C     0.38134   0.11171   0.89529   0.00000  Uiso   1.00
C548   C     0.62638   0.19205   0.59870   0.00000  Uiso   1.00
C549   C     0.47912   0.16425   0.90796   0.00000  Uiso   1.00
C550   C     0.51988   0.15516   0.59136   0.00000  Uiso   1.00
C551   C     0.46989   0.13828   0.94776   0.00000  Uiso   1.00
C552   C     0.48496   0.06662   0.74872   0.00000  Uiso   1.00
C553   C     0.54070   0.15499   0.54494   0.00000  Uiso   1.00
C554   C     0.41132   0.10252   0.96363   0.00000  Uiso   1.00
C555   C     0.60425   0.18049   0.52591   0.00000  Uiso   1.00
C556   C     0.51702   0.14818   0.97237   0.00000  Uiso   1.00
C557   C     0.49885   0.13347   0.51733   0.00000  Uiso   1.00
C558   C     0.44157   0.09524   0.53241   0.00000  Uiso   1.00
C559   C     0.58218   0.17100   0.95326   0.00000  Uiso   1.00
C560   C     0.39892   0.07884   0.50502   0.00000  Uiso   1.00
C561   C     0.62469   0.18887   0.98032   0.00000  Uiso   1.00
C562   C     0.52347   0.32269   0.75198   0.00000  Uiso   1.00
C563   C     0.47648   0.01065   0.74812   0.00000  Uiso   1.00
C564   C     0.46139   0.16164   0.83327   0.00000  Uiso   1.00
Cu565  Cu    0.44071   0.16108   0.74516   0.00000  Uiso   1.00
Cu566  Cu    0.55929   0.17225   0.75483   0.00000  Uiso   1.00
H567   H     0.47002   0.14417   0.60723   0.00000  Uiso   1.00
H568   H     0.66534   0.12805   0.71543   0.00000  Uiso   1.00
H569   H     0.33899   0.01575   0.99441   0.00000  Uiso   1.00
H570   H     0.35958   0.22336   0.93181   0.00000  Uiso   1.00
H571   H     0.38974   0.04613   0.57933   0.00000  Uiso   1.00
H572   H     0.58600   0.13777   0.89575   0.00000  Uiso   1.00
H573   H     0.51942   0.19632   0.89719   0.00000  Uiso   1.00
H574   H     0.66013   0.20549   0.61877   0.00000  Uiso   1.00
H575   H     0.34899   0.09838   0.87420   0.00000  Uiso   1.00
H576   H     0.65415   0.06485   0.94849   0.00000  Uiso   1.00
H577   H     0.36299   0.21499   0.53922   0.00000  Uiso   1.00
H578   H     0.56875   0.01315   0.75562   0.00000  Uiso   1.00
H579   H     0.43120   0.32019   0.74448   0.00000  Uiso   1.00
H580   H     0.33465   0.20527   0.78459   0.00000  Uiso   1.00
N581   N     0.64839   0.18068   0.76212   0.00000  Uiso   1.00
N582   N     0.35161   0.15265   0.73788   0.00000  Uiso   1.00
O583   O     0.46148   0.23809   0.74686   0.00000  Uiso   1.00
O584   O     0.35364   0.21424   0.96297   0.00000  Uiso   1.00
O585   O     0.43262   0.06913   0.57127   0.00000  Uiso   1.00
O586   O     0.60763   0.17075   0.90824   0.00000  Uiso   1.00
O587   O     0.53852   0.09524   0.75314   0.00000  Uiso   1.00
O588   O     0.56163   0.24753   0.75502   0.00000  Uiso   1.00
O589   O     0.43837   0.08580   0.74497   0.00000  Uiso   1.00
O590   O     0.42185   0.15930   0.80854   0.00000  Uiso   1.00
O591   O     0.57815   0.17403   0.69145   0.00000  Uiso   1.00
O592   O     0.52199   0.16874   0.81671   0.00000  Uiso   1.00
O593   O     0.47801   0.16460   0.68329   0.00000  Uiso   1.00
O594   O     0.34572   0.03958   0.51968   0.00000  Uiso   1.00
C595   C     0.84835   0.26672   0.75132   0.00000  Uiso   1.00
C596   C     0.87189   0.17035   0.66660   0.00000  Uiso   1.00
C597   C     0.77144   0.14815   0.88019   0.00000  Uiso   1.00
C598   C     0.89564   0.17234   0.61823   0.00000  Uiso   1.00
C599   C     0.70006   0.09086   0.93739   0.00000  Uiso   1.00
C600   C     0.98024   0.19734   0.55306   0.00000  Uiso   1.00
C601   C     0.71467   0.11171   0.89529   0.00000  Uiso   1.00
C602   C     0.95971   0.19205   0.59870   0.00000  Uiso   1.00
C603   C     0.81246   0.16425   0.90796   0.00000  Uiso   1.00
C604   C     0.85321   0.15516   0.59136   0.00000  Uiso   1.00
C605   C     0.80323   0.13828   0.94776   0.00000  Uiso   1.00
C606   C     0.81829   0.06662   0.74872   0.00000  Uiso   1.00
C607   C     0.87404   0.15499   0.54494   0.00000  Uiso   1.00
C608   C     0.74465   0.10252   0.96363   0.00000  Uiso   1.00
C609   C     0.93759   0.18049   0.52591   0.00000  Uiso   1.00
C610   C     0.85036   0.14818   0.97237   0.00000  Uiso   1.00
C611   C     0.83219   0.13347   0.51733   0.00000  Uiso   1.00
C612   C     0.77490   0.09524   0.53241   0.00000  Uiso   1.00
C613   C     0.91551   0.17100   0.95326   0.00000  Uiso   1.00
C614   C     0.73225   0.07884   0.50502   0.00000  Uiso   1.00
C615   C     0.95802   0.18887   0.98032   0.00000  Uiso   1.00
C616   C     0.85680   0.32269   0.75198   0.00000  Uiso   1.00
C617   C     0.80981   0.01065   0.74812   0.00000  Uiso   1.00
C618   C     0.79472   0.16164   0.83327   0.00000  Uiso   1.00
Cu619  Cu    0.77404   0.16108   0.74516   0.00000  Uiso   1.00
Cu620  Cu    0.89263   0.17225   0.75483   0.00000  Uiso   1.00
H621   H     0.80336   0.14417   0.60723   0.00000  Uiso   1.00
H622   H     0.99868   0.12805   0.71543   0.00000  Uiso   1.00
H623   H     0.67232   0.01575   0.99441   0.00000  Uiso   1.00
H624   H     0.69292   0.22336   0.93181   0.00000  Uiso   1.00
H625   H     0.72308   0.04613   0.57933   0.00000  Uiso   1.00
H626   H     0.91933   0.13777   0.89575   0.00000  Uiso   1.00
H627   H     0.85275   0.19632   0.89719   0.00000  Uiso   1.00
H628   H     0.99346   0.20549   0.61877   0.00000  Uiso   1.00
H629   H     0.68233   0.09838   0.87420   0.00000  Uiso   1.00
H630   H     0.98749   0.06485   0.94849   0.00000  Uiso   1.00
H631   H     0.69632   0.21499   0.53922   0.00000  Uiso   1.00
H632   H     0.90208   0.01315   0.75562   0.00000  Uiso   1.00
H633   H     0.76453   0.32019   0.74448   0.00000  Uiso   1.00
H634   H     0.66798   0.20527   0.78459   0.00000  Uiso   1.00
N635   N     0.98173   0.18068   0.76212   0.00000  Uiso   1.00
N636   N     0.68494   0.15265   0.73788   0.00000  Uiso   1.00
O637   O     0.79482   0.23809   0.74686   0.00000  Uiso   1.00
O638   O     0.68698   0.21424   0.96297   0.00000  Uiso   1.00
O639   O     0.76596   0.06913   0.57127   0.00000  Uiso   1.00
O640   O     0.94096   0.17075   0.90824   0.00000  Uiso   1.00
O641   O     0.87185   0.09524   0.75314   0.00000  Uiso   1.00
O642   O     0.89496   0.24753   0.75502   0.00000  Uiso   1.00
O643   O     0.77171   0.08580   0.74497   0.00000  Uiso   1.00
O644   O     0.75518   0.15930   0.80854   0.00000  Uiso   1.00
O645   O     0.91149   0.17403   0.69145   0.00000  Uiso   1.00
O646   O     0.85532   0.16874   0.81671   0.00000  Uiso   1.00
O647   O     0.81134   0.16460   0.68329   0.00000  Uiso   1.00
O648   O     0.67905   0.03958   0.51968   0.00000  Uiso   1.00
C649   C     0.18168   0.60005   0.75132   0.00000  Uiso   1.00
C650   C     0.20522   0.50369   0.66660   0.00000  Uiso   1.00
C651   C     0.10477   0.48148   0.88019   0.00000  Uiso   1.00
C652   C     0.22897   0.50567   0.61823   0.00000  Uiso   1.00
C653   C     0.03339   0.42419   0.93739   0.00000  Uiso   1.00
C654   C     0.31357   0.53067   0.55306   0.00000  Uiso   1.00
C655   C     0.04801   0.44505   0.89529   0.00000  Uiso   1.00
C656   C     0.29304   0.52538   0.59870   0.00000  Uiso   1.00
C657   C     0.14579   0.49758   0.90796   0.00000  Uiso   1.00
C658   C     0.18655   0.48849   0.59136   0.00000  Uiso   1.00
C659   C     0.13656   0.47161   0.94776   0.00000  Uiso   1.00
C660   C     0.15163   0.39995   0.74872   0.00000  Uiso   1.00
C661   C     0.20737   0.48833   0.54494   0.00000  Uiso   1.00
C662   C     0.07798   0.43585   0.96363   0.00000  Uiso   1.00
C663   C     0.27092   0.51383   0.52591   0.00000  Uiso   1.00
C664   C     0.18369   0.48152   0.97237   0.00000  Uiso   1.00
C665   C     0.16552   0.46680   0.51733   0.00000  Uiso   1.00
C666   C     0.10824   0.42858   0.53241   0.00000  Uiso   1.00
C667   C     0.24884   0.50433   0.95326   0.00000  Uiso   1.00
C668   C     0.06558   0.41217   0.50502   0.00000  Uiso   1.00
C669   C     0.29136   0.52220   0.98032   0.00000  Uiso   1.00
C670   C     0.19013   0.65602   0.75198   0.00000  Uiso   1.00
C671   C     0.14315   0.34398   0.74812   0.00000  Uiso   1.00
C672   C     0.12805   0.49497   0.83327   0.00000  Uiso   1.00
Cu673  Cu    0.10737   0.49441   0.74516   0.00000  Uiso   1.00
Cu674  Cu    0.22596   0.50559   0.75483   0.00000  Uiso   1.00
H675   H     0.13669   0.47750   0.60723   0.00000  Uiso   1.00
H676   H     0.33201   0.46138   0.71543   0.00000  Uiso   1.00
H677   H     0.00565   0.34909   0.99441   0.00000  Uiso   1.00
H678   H     0.02625   0.55670   0.93181   0.00000  Uiso   1.00
H679   H     0.05641   0.37947   0.57933   0.00000  Uiso   1.00
H680   H     0.25267   0.47110   0.89575   0.00000  Uiso   1.00
H681   H     0.18609   0.52965   0.89719   0.00000  Uiso   1.00
H682   H     0.32679   0.53882   0.61877   0.00000  Uiso   1.00
H683   H     0.01566   0.43172   0.87420   0.00000  Uiso   1.00
H684   H     0.32082   0.39818   0.94849   0.00000  Uiso   1.00
H685   H     0.02966   0.54832   0.53922   0.00000  Uiso   1.00
H686   H     0.23542   0.34648   0.75562   0.00000  Uiso   1.00
H687   H     0.09786   0.65352   0.74448   0.00000  Uiso   1.00
H688   H     0.00131   0.53860   0.78459   0.00000  Uiso   1.00
N689   N     0.31506   0.51401   0.76212   0.00000  Uiso   1.00
N690   N     0.01827   0.48599   0.73788   0.00000  Uiso   1.00
O691   O     0.12815   0.57142   0.74686   0.00000  Uiso   1.00
O692   O     0.02031   0.54757   0.96297   0.00000  Uiso   1.00
O693   O     0.09929   0.40246   0.57127   0.00000  Uiso   1.00
O694   O     0.27429   0.50409   0.90824   0.00000  Uiso   1.00
O695   O     0.20518   0.42858   0.75314   0.00000  Uiso   1.00
O696   O     0.22829   0.58086   0.75502   0.00000  Uiso   1.00
O697   O     0.10504   0.41914   0.74497   0.00000  Uiso   1.00
O698   O     0.08851   0.49263   0.80854   0.00000  Uiso   1.00
O699   O     0.24482   0.50737   0.69145   0.00000  Uiso   1.00
O700   O     0.18866   0.50207   0.81671   0.00000  Uiso   1.00
O701   O     0.14468   0.49793   0.68329   0.00000  Uiso   1.00
O702   O     0.01239   0.37291   0.51968   0.00000  Uiso   1.00
C703   C     0.51502   0.60005   0.75132   0.00000  Uiso   1.00
C704   C     0.53855   0.50369   0.66660   0.00000  Uiso   1.00
C705   C     0.43810   0.48148   0.88019   0.00000  Uiso   1.00
C706   C     0.56231   0.50567   0.61823   0.00000  Uiso   1.00
C707   C     0.36672   0.42419   0.93739   0.00000  Uiso   1.00
C708   C     0.64690   0.53067   0.55306   0.00000  Uiso   1.00
C709   C     0.38134   0.44505   0.89529   0.00000  Uiso   1.00
C710   C     0.62638   0.52538   0.59870   0.00000  Uiso   1.00
C711   C     0.47912   0.49758   0.90796   0.00000  Uiso   1.00
C712   C     0.51988   0.48849   0.59136   0.00000  Uiso   1.00
C713   C     0.46989   0.47161   0.94776   0.00000  Uiso   1.00
C714   C     0.48496   0.39995   0.74872   0.00000  Uiso   1.00
C715   C     0.54070   0.48833   0.54494   0.00000  Uiso   1.00
C716   C     0.41132   0.43585   0.96363   0.00000  Uiso   1.00
C717   C     0.60425   0.51383   0.52591   0.00000  Uiso   1.00
C718   C     0.51702   0.48152   0.97237   0.00000  Uiso   1.00
C719   C     0.49885   0.46680   0.51733   0.00000  Uiso   1.00
C720   C     0.44157   0.42858   0.53241   0.00000  Uiso   1.00
C721   C     0.58218   0.50433   0.95326   0.00000  Uiso   1.00
C722   C     0.39892   0.41217   0.50502   0.00000  Uiso   1.00
C723   C     0.62469   0.52220   0.98032   0.00000  Uiso   1.00
C724   C     0.52347   0.65602   0.75198   0.00000  Uiso   1.00
C725   C     0.47648   0.34398   0.74812   0.00000  Uiso   1.00
C726   C     0.46139   0.49497   0.83327   0.00000  Uiso   1.00
Cu727  Cu    0.44071   0.49441   0.74516   0.00000  Uiso   1.00
Cu728  Cu    0.55929   0.50559   0.75483   0.00000  Uiso   1.00
H729   H     0.47002   0.47750   0.60723   0.00000  Uiso   1.00
H730   H     0.66534   0.46138   0.71543   0.00000  Uiso   1.00
H731   H     0.33899   0.34909   0.99441   0.00000  Uiso   1.00
H732   H     0.35958   0.55670   0.93181   0.00000  Uiso   1.00
H733   H     0.38974   0.37947   0.57933   0.00000  Uiso   1.00
H734   H     0.58600   0.47110   0.89575   0.00000  Uiso   1.00
H735   H     0.51942   0.52965   0.89719   0.00000  Uiso   1.00
H736   H     0.66013   0.53882   0.61877   0.00000  Uiso   1.00
H737   H     0.34899   0.43172   0.87420   0.00000  Uiso   1.00
H738   H     0.65415   0.39818   0.94849   0.00000  Uiso   1.00
H739   H     0.36299   0.54832   0.53922   0.00000  Uiso   1.00
H740   H     0.56875   0.34648   0.75562   0.00000  Uiso   1.00
H741   H     0.43120   0.65352   0.74448   0.00000  Uiso   1.00
H742   H     0.33465   0.53860   0.78459   0.00000  Uiso   1.00
N743   N     0.64839   0.51401   0.76212   0.00000  Uiso   1.00
N744   N     0.35161   0.48599   0.73788   0.00000  Uiso   1.00
O745   O     0.46148   0.57142   0.74686   0.00000  Uiso   1.00
O746   O     0.35364   0.54757   0.96297   0.00000  Uiso   1.00
O747   O     0.43262   0.40246   0.57127   0.00000  Uiso   1.00
O748   O     0.60763   0.50409   0.90824   0.00000  Uiso   1.00
O749   O     0.53852   0.42858   0.75314   0.00000  Uiso   1.00
O750   O     0.56163   0.58086   0.75502   0.00000  Uiso   1.00
O751   O     0.43837   0.41914   0.74497   0.00000  Uiso   1.00
O752   O     0.42185   0.49263   0.80854   0.00000  Uiso   1.00
O753   O     0.57815   0.50737   0.69145   0.00000  Uiso   1.00
O754   O     0.52199   0.50207   0.81671   0.00000  Uiso   1.00
O755   O     0.47801   0.49793   0.68329   0.00000  Uiso   1.00
O756   O     0.34572   0.37291   0.51968   0.00000  Uiso   1.00
C757   C     0.84835   0.60005   0.75132   0.00000  Uiso   1.00
C758   C     0.87189   0.50369   0.66660   0.00000  Uiso   1.00
C759   C     0.77144   0.48148   0.88019   0.00000  Uiso   1.00
C760   C     0.89564   0.50567   0.61823   0.00000  Uiso   1.00
C761   C     0.70006   0.42419   0.93739   0.00000  Uiso   1.00
C762   C     0.98024   0.53067   0.55306   0.00000  Uiso   1.00
C763   C     0.71467   0.44505   0.89529   0.00000  Uiso   1.00
C764   C     0.95971   0.52538   0.59870   0.00000  Uiso   1.00
C765   C     0.81246   0.49758   0.90796   0.00000  Uiso   1.00
C766   C     0.85321   0.48849   0.59136   0.00000  Uiso   1.00
C767   C     0.80323   0.47161   0.94776   0.00000  Uiso   1.00
C768   C     0.81829   0.39995   0.74872   0.00000  Uiso   1.00
C769   C     0.87404   0.48833   0.54494   0.00000  Uiso   1.00
C770   C     0.74465   0.43585   0.96363   0.00000  Uiso   1.00
C771   C     0.93759   0.51383   0.52591   0.00000  Uiso   1.00
C772   C     0.85036   0.48152   0.97237   0.00000  Uiso   1.00
C773   C     0.83219   0.46680   0.51733   0.00000  Uiso   1.00
C774   C     0.77490   0.42858   0.53241   0.00000  Uiso   1.00
C775   C     0.91551   0.50433   0.95326   0.00000  Uiso   1.00
C776   C     0.73225   0.41217   0.50502   0.00000  Uiso   1.00
C777   C     0.95802   0.52220   0.98032   0.00000  Uiso   1.00
C778   C     0.85680   0.65602   0.75198   0.00000  Uiso   1.00
C779   C     0.80981   0.34398   0.74812   0.00000  Uiso   1.00
C780   C     0.79472   0.49497   0.83327   0.00000  Uiso   1.00
Cu781  Cu    0.77404   0.49441   0.74516   0.00000  Uiso   1.00
Cu782  Cu    0.89263   0.50559   0.75483   0.00000  Uiso   1.00
H783   H     0.80336   0.47750   0.60723   0.00000  Uiso   1.00
H784   H     0.99868   0.46138   0.71543   0.00000  Uiso   1.00
H785   H     0.67232   0.34909   0.99441   0.00000  Uiso   1.00
H786   H     0.69292   0.55670   0.93181   0.00000  Uiso   1.00
H787   H     0.72308   0.37947   0.57933   0.00000  Uiso   1.00
H788   H     0.91933   0.47110   0.89575   0.00000  Uiso   1.00
H789   H     0.85275   0.52965   0.89719   0.00000  Uiso   1.00
H790   H     0.99346   0.53882   0.61877   0.00000  Uiso   1.00
H791   H     0.68233   0.43172   0.87420   0.00000  Uiso   1.00
H792   H     0.98749   0.39818   0.94849   0.00000  Uiso   1.00
H793   H     0.69632   0.54832   0.53922   0.00000  Uiso   1.00
H794   H     0.90208   0.34648   0.75562   0.00000  Uiso   1.00
H795   H     0.76453   0.65352   0.74448   0.00000  Uiso   1.00
H796   H     0.66798   0.53860   0.78459   0.00000  Uiso   1.00
N797   N     0.98173   0.51401   0.76212   0.00000  Uiso   1.00
N798   N     0.68494   0.48599   0.73788   0.00000  Uiso   1.00
O799   O     0.79482   0.57142   0.74686   0.00000  Uiso   1.00
O800   O     0.68698   0.54757   0.96297   0.00000  Uiso   1.00
O801   O     0.76596   0.40246   0.57127   0.00000  Uiso   1.00
O802   O     0.94096   0.50409   0.90824   0.00000  Uiso   1.00
O803   O     0.87185   0.42858   0.75314   0.00000  Uiso   1.00
O804   O     0.89496   0.58086   0.75502   0.00000  Uiso   1.00
O805   O     0.77171   0.41914   0.74497   0.00000  Uiso   1.00
O806   O     0.75518   0.49263   0.80854   0.00000  Uiso   1.00
O807   O     0.91149   0.50737   0.69145   0.00000  Uiso   1.00
O808   O     0.85532   0.50207   0.81671   0.00000  Uiso   1.00
O809   O     0.81134   0.49793   0.68329   0.00000  Uiso   1.00
O810   O     0.67905   0.37291   0.51968   0.00000  Uiso   1.00
C811   C     0.18168   0.93338   0.75132   0.00000  Uiso   1.00
C812   C     0.20522   0.83702   0.66660   0.00000  Uiso   1.00
C813   C     0.10477   0.81482   0.88019   0.00000  Uiso   1.00
C814   C     0.22897   0.83901   0.61823   0.00000  Uiso   1.00
C815   C     0.03339   0.75753   0.93739   0.00000  Uiso   1.00
C816   C     0.31357   0.86401   0.55306   0.00000  Uiso   1.00
C817   C     0.04801   0.77838   0.89529   0.00000  Uiso   1.00
C818   C     0.29304   0.85872   0.59870   0.00000  Uiso   1.00
C819   C     0.14579   0.83091   0.90796   0.00000  Uiso   1.00
C820   C     0.18655   0.82182   0.59136   0.00000  Uiso   1.00
C821   C     0.13656   0.80495   0.94776   0.00000  Uiso   1.00
C822   C     0.15163   0.73328   0.74872   0.00000  Uiso   1.00
C823   C     0.20737   0.82166   0.54494   0.00000  Uiso   1.00
C824   C     0.07798   0.76919   0.96363   0.00000  Uiso   1.00
C825   C     0.27092   0.84716   0.52591   0.00000  Uiso   1.00
C826   C     0.18369   0.81485   0.97237   0.00000  Uiso   1.00
C827   C     0.16552   0.80013   0.51733   0.00000  Uiso   1.00
C828   C     0.10824   0.76191   0.53241   0.00000  Uiso   1.00
C829   C     0.24884   0.83766   0.95326   0.00000  Uiso   1.00
C830   C     0.06558   0.74551   0.50502   0.00000  Uiso   1.00
C831   C     0.29136   0.85553   0.98032   0.00000  Uiso   1.00
C832   C     0.19013   0.98935   0.75198   0.00000  Uiso   1.00
C833   C     0.14315   0.67732   0.74812   0.00000  Uiso   1.00
C834   C     0.12805   0.82831   0.83327   0.00000  Uiso   1.00
Cu835  Cu    0.10737   0.82775   0.74516   0.00000  Uiso   1.00
Cu836  Cu    0.22596   0.83892   0.75483   0.00000  Uiso   1.00
H837   H     0.13669   0.81083   0.60723   0.00000  Uiso   1.00
H838   H     0.33201   0.79472   0.71543   0.00000  Uiso   1.00
H839   H     0.00565   0.68242   0.99441   0.00000  Uiso   1.00
H840   H     0.02625   0.89003   0.93181   0.00000  Uiso   1.00
H841   H     0.05641   0.71280   0.57933   0.00000  Uiso   1.00
H842   H     0.25267   0.80443   0.89575   0.00000  Uiso   1.00
H843   H     0.18609   0.86298   0.89719   0.00000  Uiso   1.00
H844   H     0.32679   0.87215   0.61877   0.00000  Uiso   1.00
H845   H     0.01566   0.76505   0.87420   0.00000  Uiso   1.00
H846   H     0.32082   0.73152   0.94849   0.00000  Uiso   1.00
H847   H     0.02966   0.88166   0.53922   0.00000  Uiso   1.00
H848   H     0.23542   0.67981   0.75562   0.00000  Uiso   1.00
H849   H     0.09786   0.98686   0.74448   0.00000  Uiso   1.00
H850   H     0.00131   0.87193   0.78459   0.00000  Uiso   1.00
N851   N     0.31506   0.84735   0.76212   0.00000  Uiso   1.00
N852   N     0.01827   0.81932   0.73788   0.00000  Uiso   1.00
O853   O     0.12815   0.90476   0.74686   0.00000  Uiso   1.00
O854   O     0.02031   0.88090   0.96297   0.00000  Uiso   1.00
O855   O     0.09929   0.73580   0.57127   0.00000  Uiso   1.00
O856   O     0.27429   0.83742   0.90824   0.00000  Uiso   1.00
O857   O     0.20518   0.76191   0.75314   0.00000  Uiso   1.00
O858   O     0.22829   0.91420   0.75502   0.00000  Uiso   1.00
O859   O     0.10504   0.75247   0.74497   0.00000  Uiso   1.00
O860   O     0.08851   0.82597   0.80854   0.00000  Uiso   1.00
O861   O     0.24482   0.84070   0.69145   0.00000  Uiso   1.00
O862   O     0.18866   0.83540   0.81671   0.00000  Uiso   1.00
O863   O     0.14468   0.83126   0.68329   0.00000  Uiso   1.00
O864   O     0.01239   0.70625   0.51968   0.00000  Uiso   1.00
C865   C     0.51502   0.93338   0.75132   0.00000  Uiso   1.00
C866   C     0.53855   0.83702   0.66660   0.00000  Uiso   1.00
C867   C     0.43810   0.81482   0.88019   0.00000  Uiso   1.00
C868   C     0.56231   0.83901   0.61823   0.00000  Uiso   1.00
C869   C     0.36672   0.75753   0.93739   0.00000  Uiso   1.00
C870   C     0.64690   0.86401   0.55306   0.00000  Uiso   1.00
C871   C     0.38134   0.77838   0.89529   0.00000  Uiso   1.00
C872   C     0.62638   0.85872   0.59870   0.00000  Uiso   1.00
C873   C     0.47912   0.83091   0.90796   0.00000  Uiso   1.00
C874   C     0.51988   0.82182   0.59136   0.00000  Uiso   1.00
C875   C     0.46989   0.80495   0.94776   0.00000  Uiso   1.00
C876   C     0.48496   0.73328   0.74872   0.00000  Uiso   1.00
C877   C     0.54070   0.82166   0.54494   0.00000  Uiso   1.00
C878   C     0.41132   0.76919   0.96363   0.00000  Uiso   1.00
C879   C     0.60425   0.84716   0.52591   0.00000  Uiso   1.00
C880   C     0.51702   0.81485   0.97237   0.00000  Uiso   1.00
C881   C     0.49885   0.80013   0.51733   0.00000  Uiso   1.00
C882   C     0.44157   0.76191   0.53241   0.00000  Uiso   1.00
C883   C     0.58218   0.83766   0.95326   0.00000  Uiso   1.00
C884   C     0.39892   0.74551   0.50502   0.00000  Uiso   1.00
C885   C     0.62469   0.85553   0.98032   0.00000  Uiso   1.00
C886   C     0.52347   0.98935   0.75198   0.00000  Uiso   1.00
C887   C     0.47648   0.67732   0.74812   0.00000  Uiso   1.00
C888   C     0.46139   0.82831   0.83327   0.00000  Uiso   1.00
Cu889  Cu    0.44071   0.82775   0.74516   0.00000  Uiso   1.00
Cu890  Cu    0.55929   0.83892   0.75483   0.00000  Uiso   1.00
H891   H     0.47002   0.81083   0.60723   0.00000  Uiso   1.00
H892   H     0.66534   0.79472   0.71543   0.00000  Uiso   1.00
H893   H     0.33899   0.68242   0.99441   0.00000  Uiso   1.00
H894   H     0.35958   0.89003   0.93181   0.00000  Uiso   1.00
H895   H     0.38974   0.71280   0.57933   0.00000  Uiso   1.00
H896   H     0.58600   0.80443   0.89575   0.00000  Uiso   1.00
H897   H     0.51942   0.86298   0.89719   0.00000  Uiso   1.00
H898   H     0.66013   0.87215   0.61877   0.00000  Uiso   1.00
H899   H     0.34899   0.76505   0.87420   0.00000  Uiso   1.00
H900   H     0.65415   0.73152   0.94849   0.00000  Uiso   1.00
H901   H     0.36299   0.88166   0.53922   0.00000  Uiso   1.00
H902   H     0.56875   0.67981   0.75562   0.00000  Uiso   1.00
H903   H     0.43120   0.98686   0.74448   0.00000  Uiso   1.00
H904   H     0.33465   0.87193   0.78459   0.00000  Uiso   1.00
N905   N     0.64839   0.84735   0.76212   0.00000  Uiso   1.00
N906   N     0.35161   0.81932   0.73788   0.00000  Uiso   1.00
O907   O     0.46148   0.90476   0.74686   0.00000  Uiso   1.00
O908   O     0.35364   0.88090   0.96297   0.00000  Uiso   1.00
O909   O     0.43262   0.73580   0.57127   0.00000  Uiso   1.00
O910   O     0.60763   0.83742   0.90824   0.00000  Uiso   1.00
O911   O     0.53852   0.76191   0.75314   0.00000  Uiso   1.00
O912   O     0.56163   0.91420   0.75502   0.00000  Uiso   1.00
O913   O     0.43837   0.75247   0.74497   0.00000  Uiso   1.00
O914   O     0.42185   0.82597   0.80854   0.00000  Uiso   1.00
O915   O     0.57815   0.84070   0.69145   0.00000  Uiso   1.00
O916   O     0.52199   0.83540   0.81671   0.00000  Uiso   1.00
O917   O     0.47801   0.83126   0.68329   0.00000  Uiso   1.00
O918   O     0.34572   0.70625   0.51968   0.00000  Uiso   1.00
C919   C     0.84835   0.93338   0.75132   0.00000  Uiso   1.00
C920   C     0.87189   0.83702   0.66660   0.00000  Uiso   1.00
C921   C     0.77144   0.81482   0.88019   0.00000  Uiso   1.00
C922   C     0.89564   0.83901   0.61823   0.00000  Uiso   1.00
C923   C     0.70006   0.75753   0.93739   0.00000  Uiso   1.00
C924   C     0.98024   0.86401   0.55306   0.00000  Uiso   1.00
C925   C     0.71467   0.77838   0.89529   0.00000  Uiso   1.00
C926   C     0.95971   0.85872   0.59870   0.00000  Uiso   1.00
C927   C     0.81246   0.83091   0.90796   0.00000  Uiso   1.00
C928   C     0.85321   0.82182   0.59136   0.00000  Uiso   1.00
C929   C     0.80323   0.80495   0.94776   0.00000  Uiso   1.00
C930   C     0.81829   0.73328   0.74872   0.00000  Uiso   1.00
C931   C     0.87404   0.82166   0.54494   0.00000  Uiso   1.00
C932   C     0.74465   0.76919   0.96363   0.00000  Uiso   1.00
C933   C     0.93759   0.84716   0.52591   0.00000  Uiso   1.00
C934   C     0.85036   0.81485   0.97237   0.00000  Uiso   1.00
C935   C     0.83219   0.80013   0.51733   0.00000  Uiso   1.00
C936   C     0.77490   0.76191   0.53241   0.00000  Uiso   1.00
C937   C     0.91551   0.83766   0.95326   0.00000  Uiso   1.00
C938   C     0.73225   0.74551   0.50502   0.00000  Uiso   1.00
C939   C     0.95802   0.85553   0.98032   0.00000  Uiso   1.00
C940   C     0.85680   0.98935   0.75198   0.00000  Uiso   1.00
C941   C     0.80981   0.67732   0.74812   0.00000  Uiso   1.00
C942   C     0.79472   0.82831   0.83327   0.00000  Uiso   1.00
Cu943  Cu    0.77404   0.82775   0.74516   0.00000  Uiso   1.00
Cu944  Cu    0.89263   0.83892   0.75483   0.00000  Uiso   1.00
H945   H     0.80336   0.81083   0.60723   0.00000  Uiso   1.00
H946   H     0.99868   0.79472   0.71543   0.00000  Uiso   1.00
H947   H     0.67232   0.68242   0.99441   0.00000  Uiso   1.00
H948   H     0.69292   0.89003   0.93181   0.00000  Uiso   1.00
H949   H     0.72308   0.71280   0.57933   0.00000  Uiso   1.00
H950   H     0.91933   0.80443   0.89575   0.00000  Uiso   1.00
H951   H     0.85275   0.86298   0.89719   0.00000  Uiso   1.00
H952   H     0.99346   0.87215   0.61877   0.00000  Uiso   1.00
H953   H     0.68233   0.76505   0.87420   0.00000  Uiso   1.00
H954   H     0.98749   0.73152   0.94849   0.00000  Uiso   1.00
H955   H     0.69632   0.88166   0.53922   0.00000  Uiso   1.00
H956   H     0.90208   0.67981   0.75562   0.00000  Uiso   1.00
H957   H     0.76453   0.98686   0.74448   0.00000  Uiso   1.00
H958   H     0.66798   0.87193   0.78459   0.00000  Uiso   1.00
N959   N     0.98173   0.84735   0.76212   0.00000  Uiso   1.00
N960   N     0.68494   0.81932   0.73788   0.00000  Uiso   1.00
O961   O     0.79482   0.90476   0.74686   0.00000  Uiso   1.00
O962   O     0.68698   0.88090   0.96297   0.00000  Uiso   1.00
O963   O     0.76596   0.73580   0.57127   0.00000  Uiso   1.00
O964   O     0.94096   0.83742   0.90824   0.00000  Uiso   1.00
O965   O     0.87185   0.76191   0.75314   0.00000  Uiso   1.00
O966   O     0.89496   0.91420   0.75502   0.00000  Uiso   1.00
O967   O     0.77171   0.75247   0.74497   0.00000  Uiso   1.00
O968   O     0.75518   0.82597   0.80854   0.00000  Uiso   1.00
O969   O     0.91149   0.84070   0.69145   0.00000  Uiso   1.00
O970   O     0.85532   0.83540   0.81671   0.00000  Uiso   1.00
O971   O     0.81134   0.83126   0.68329   0.00000  Uiso   1.00
O972   O     0.67905   0.70625   0.51968   0.00000  Uiso   1.00
loop_
_geom_bond_atom_site_label_1
_geom_bond_atom_site_label_2
_geom_bond_distance
_geom_bond_site_symmetry_2
_ccdc_geom_bond_type
C1     O48     1.286   .     A
C1     C22     1.427   .     S
C1     O43     1.292   .     A
C2     C4      1.472   .     S
C2     O53     1.298   .     A
C2     O51     1.302   .     A
C3     C9      1.395   .     A
C3     C24     1.468   .     S
C3     C7      1.395   .     A
C4     C8      1.398   .     A
C4     C10     1.401   .     A
C5     C14     1.414   .     A
C5     C7      1.394   .     A
C5     H144    1.081   1_455 S
C6     C8      1.392   .     A
C6     C15     1.410   .     A
C6     H91     1.083   .     S
C7     H35     1.083   .     S
C8     H34     1.083   .     S
C9     H33     1.081   .     S
C9     C11     1.408   .     A
C10    H27     1.079   .     S
C10    C13     1.409   .     A
C11    C14     1.418   .     A
C11    C16     1.424   .     A
C12    O49     1.286   .     A
C12    C23     1.427   .     S
C12    O47     1.292   .     A
C13    C17     1.427   .     A
C13    C15     1.418   .     A
C14    C506    1.412   .     S
C15    C507    1.401   1_554 S
C16    C19     1.430   .     A
C16    C503    1.418   .     S
C17    C18     1.427   .     A
C17    C502    1.418   1_554 S
C18    O45     1.385   .     S
C18    C20     1.414   .     A
C19    C21     1.409   .     A
C19    O46     1.380   .     S
C20    O54     1.382   .     S
C20    C500    1.412   1_554 S
C21    C501    1.401   .     S
C21    O98     1.385   .     S
C22    C185    1.328   .     S
C22    H200    1.088   .     S
C23    C346    1.328   1_545 S
C23    H363    1.088   1_545 S
C24    O52     1.296   .     A
C24    O50     1.303   .     A
Cu25   N42     2.021   .     S
Cu25   O43     1.955   .     S
Cu25   Cu26    2.689   .     S
Cu25   O53     1.904   .     S
Cu25   O49     1.951   .     S
Cu25   O50     1.923   .     S
Cu26   O52     1.904   .     S
Cu26   O48     1.951   .     S
Cu26   O51     1.923   .     S
Cu26   O47     1.955   .     S
Cu26   N41     2.021   .     S
H28    N96     1.029   .     S
H29    O540    0.990   .     S
H30    O44     0.990   .     S
H31    O45     0.989   .     S
H32    O46     0.992   .     S
H36    C59     1.081   .     S
H37    C114    1.083   1_455 S
H38    C346    1.088   1_545 S
H39    C185    1.088   .     S
H40    N149    1.029   1_455 S
N41    H94     1.029   .     S
N41    N96     1.286   .     S
N42    H136    1.029   1_455 S
N42    N149    1.286   1_455 S
O44    C129    1.385   1_455 S
O54    H515    0.990   1_554 S
C55    O102    1.286   .     A
C55    C76     1.427   .     S
C55    O97     1.292   .     A
C56    C58     1.472   .     S
C56    O107    1.298   .     A
C56    O105    1.302   .     A
C57    C63     1.395   .     A
C57    C78     1.468   .     S
C57    C61     1.395   .     A
C58    C62     1.398   .     A
C58    C64     1.401   .     A
C59    C68     1.414   .     A
C59    C61     1.394   .     A
C60    C62     1.392   .     A
C60    C69     1.410   .     A
C60    H145    1.083   .     S
C61    H89     1.083   .     S
C62    H88     1.083   .     S
C63    H87     1.081   .     S
C63    C65     1.408   .     A
C64    H81     1.079   .     S
C64    C67     1.409   .     A
C65    C68     1.418   .     A
C65    C70     1.424   .     A
C66    O103    1.286   .     A
C66    C77     1.427   .     S
C66    O101    1.292   .     A
C67    C71     1.427   .     A
C67    C69     1.418   .     A
C68    C560    1.412   .     S
C69    C561    1.401   1_554 S
C70    C73     1.430   .     A
C70    C557    1.418   .     S
C71    C72     1.427   .     A
C71    C556    1.418   1_554 S
C72    O99     1.385   .     S
C72    C74     1.414   .     A
C73    C75     1.409   .     A
C73    O100    1.380   .     S
C74    O108    1.382   .     S
C74    C554    1.412   1_554 S
C75    C555    1.401   .     S
C75    O152    1.385   .     S
C76    C239    1.328   .     S
C76    H254    1.088   .     S
C77    C400    1.328   1_545 S
C77    H417    1.088   1_545 S
C78    O106    1.296   .     A
C78    O104    1.303   .     A
Cu79   N96     2.021   .     S
Cu79   O97     1.955   .     S
Cu79   Cu80    2.689   .     S
Cu79   O107    1.904   .     S
Cu79   O103    1.951   .     S
Cu79   O104    1.923   .     S
Cu80   O106    1.904   .     S
Cu80   O102    1.951   .     S
Cu80   O105    1.923   .     S
Cu80   O101    1.955   .     S
Cu80   N95     2.021   .     S
H82    N150    1.029   .     S
H83    O594    0.990   .     S
H84    O98     0.990   .     S
H85    O99     0.989   .     S
H86    O100    0.992   .     S
H90    C113    1.081   .     S
H92    C400    1.088   1_545 S
H93    C239    1.088   .     S
N95    H148    1.029   .     S
N95    N150    1.286   .     S
O108   H569    0.990   1_554 S
C109   O156    1.286   .     A
C109   C130    1.427   .     S
C109   O151    1.292   .     A
C110   C112    1.472   .     S
C110   O161    1.298   .     A
C110   O159    1.302   .     A
C111   C117    1.395   .     A
C111   C132    1.468   .     S
C111   C115    1.395   .     A
C112   C116    1.398   .     A
C112   C118    1.401   .     A
C113   C122    1.414   .     A
C113   C115    1.394   .     A
C114   C116    1.392   .     A
C114   C123    1.410   .     A
C114   H37     1.083   1_655 S
C115   H143    1.083   .     S
C116   H142    1.083   .     S
C117   H141    1.081   .     S
C117   C119    1.408   .     A
C118   H135    1.079   .     S
C118   C121    1.409   .     A
C119   C122    1.418   .     A
C119   C124    1.424   .     A
C120   O157    1.286   .     A
C120   C131    1.427   .     S
C120   O155    1.292   .     A
C121   C125    1.427   .     A
C121   C123    1.418   .     A
C122   C614    1.412   .     S
C123   C615    1.401   1_554 S
C124   C127    1.430   .     A
C124   C611    1.418   .     S
C125   C126    1.427   .     A
C125   C610    1.418   1_554 S
C126   O153    1.385   .     S
C126   C128    1.414   .     A
C127   C129    1.409   .     A
C127   O154    1.380   .     S
C128   O162    1.382   .     S
C128   C608    1.412   1_554 S
C129   C609    1.401   .     S
C129   O44     1.385   1_655 S
C130   C293    1.328   .     S
C130   H308    1.088   .     S
C131   C454    1.328   1_545 S
C131   H471    1.088   1_545 S
C132   O160    1.296   .     A
C132   O158    1.303   .     A
Cu133  N150    2.021   .     S
Cu133  O151    1.955   .     S
Cu133  Cu134   2.689   .     S
Cu133  O161    1.904   .     S
Cu133  O157    1.951   .     S
Cu133  O158    1.923   .     S
Cu134  O160    1.904   .     S
Cu134  O156    1.951   .     S
Cu134  O159    1.923   .     S
Cu134  O155    1.955   .     S
Cu134  N149    2.021   .     S
H136   N42     1.029   1_655 S
H137   O648    0.990   .     S
H138   O152    0.990   .     S
H139   O153    0.989   .     S
H140   O154    0.992   .     S
H144   C5      1.081   1_655 S
H146   C454    1.088   1_545 S
H147   C293    1.088   .     S
N149   H40     1.029   1_655 S
N149   N42     1.286   1_655 S
O162   H623    0.990   1_554 S
C163   O210    1.286   .     A
C163   C184    1.427   .     S
C163   O205    1.292   .     A
C164   C166    1.472   .     S
C164   O215    1.298   .     A
C164   O213    1.302   .     A
C165   C171    1.395   .     A
C165   C186    1.468   .     S
C165   C169    1.395   .     A
C166   C170    1.398   .     A
C166   C172    1.401   .     A
C167   C176    1.414   .     A
C167   C169    1.394   .     A
C167   H306    1.081   1_455 S
C168   C170    1.392   .     A
C168   C177    1.410   .     A
C168   H253    1.083   .     S
C169   H197    1.083   .     S
C170   H196    1.083   .     S
C171   H195    1.081   .     S
C171   C173    1.408   .     A
C172   H189    1.079   .     S
C172   C175    1.409   .     A
C173   C176    1.418   .     A
C173   C178    1.424   .     A
C174   O211    1.286   .     A
C174   C185    1.427   .     S
C174   O209    1.292   .     A
C175   C179    1.427   .     A
C175   C177    1.418   .     A
C176   C668    1.412   .     S
C177   C669    1.401   1_554 S
C178   C181    1.430   .     A
C178   C665    1.418   .     S
C179   C180    1.427   .     A
C179   C664    1.418   1_554 S
C180   O207    1.385   .     S
C180   C182    1.414   .     A
C181   C183    1.409   .     A
C181   O208    1.380   .     S
C182   O216    1.382   .     S
C182   C662    1.412   1_554 S
C183   C663    1.401   .     S
C183   O260    1.385   .     S
C184   C347    1.328   .     S
C184   H362    1.088   .     S
C186   O214    1.296   .     A
C186   O212    1.303   .     A
Cu187  N204    2.021   .     S
Cu187  O205    1.955   .     S
Cu187  Cu188   2.689   .     S
Cu187  O215    1.904   .     S
Cu187  O211    1.951   .     S
Cu187  O212    1.923   .     S
Cu188  O214    1.904   .     S
Cu188  O210    1.951   .     S
Cu188  O213    1.923   .     S
Cu188  O209    1.955   .     S
Cu188  N203    2.021   .     S
H190   N258    1.029   .     S
H191   O702    0.990   .     S
H192   O206    0.990   .     S
H193   O207    0.989   .     S
H194   O208    0.992   .     S
H198   C221    1.081   .     S
H199   C276    1.083   1_455 S
H201   C347    1.088   .     S
H202   N311    1.029   1_455 S
N203   H256    1.029   .     S
N203   N258    1.286   .     S
N204   H298    1.029   1_455 S
N204   N311    1.286   1_455 S
O206   C291    1.385   1_455 S
O216   H677    0.990   1_554 S
C217   O264    1.286   .     A
C217   C238    1.427   .     S
C217   O259    1.292   .     A
C218   C220    1.472   .     S
C218   O269    1.298   .     A
C218   O267    1.302   .     A
C219   C225    1.395   .     A
C219   C240    1.468   .     S
C219   C223    1.395   .     A
C220   C224    1.398   .     A
C220   C226    1.401   .     A
C221   C230    1.414   .     A
C221   C223    1.394   .     A
C222   C224    1.392   .     A
C222   C231    1.410   .     A
C222   H307    1.083   .     S
C223   H251    1.083   .     S
C224   H250    1.083   .     S
C225   H249    1.081   .     S
C225   C227    1.408   .     A
C226   H243    1.079   .     S
C226   C229    1.409   .     A
C227   C230    1.418   .     A
C227   C232    1.424   .     A
C228   O265    1.286   .     A
C228   C239    1.427   .     S
C228   O263    1.292   .     A
C229   C233    1.427   .     A
C229   C231    1.418   .     A
C230   C722    1.412   .     S
C231   C723    1.401   1_554 S
C232   C235    1.430   .     A
C232   C719    1.418   .     S
C233   C234    1.427   .     A
C233   C718    1.418   1_554 S
C234   O261    1.385   .     S
C234   C236    1.414   .     A
C235   C237    1.409   .     A
C235   O262    1.380   .     S
C236   O270    1.382   .     S
C236   C716    1.412   1_554 S
C237   C717    1.401   .     S
C237   O314    1.385   .     S
C238   C401    1.328   .     S
C238   H416    1.088   .     S
C240   O268    1.296   .     A
C240   O266    1.303   .     A
Cu241  N258    2.021   .     S
Cu241  O259    1.955   .     S
Cu241  Cu242   2.689   .     S
Cu241  O269    1.904   .     S
Cu241  O265    1.951   .     S
Cu241  O266    1.923   .     S
Cu242  O268    1.904   .     S
Cu242  O264    1.951   .     S
Cu242  O267    1.923   .     S
Cu242  O263    1.955   .     S
Cu242  N257    2.021   .     S
H244   N312    1.029   .     S
H245   O756    0.990   .     S
H246   O260    0.990   .     S
H247   O261    0.989   .     S
H248   O262    0.992   .     S
H252   C275    1.081   .     S
H255   C401    1.088   .     S
N257   H310    1.029   .     S
N257   N312    1.286   .     S
O270   H731    0.990   1_554 S
C271   O318    1.286   .     A
C271   C292    1.427   .     S
C271   O313    1.292   .     A
C272   C274    1.472   .     S
C272   O323    1.298   .     A
C272   O321    1.302   .     A
C273   C279    1.395   .     A
C273   C294    1.468   .     S
C273   C277    1.395   .     A
C274   C278    1.398   .     A
C274   C280    1.401   .     A
C275   C284    1.414   .     A
C275   C277    1.394   .     A
C276   C278    1.392   .     A
C276   C285    1.410   .     A
C276   H199    1.083   1_655 S
C277   H305    1.083   .     S
C278   H304    1.083   .     S
C279   H303    1.081   .     S
C279   C281    1.408   .     A
C280   H297    1.079   .     S
C280   C283    1.409   .     A
C281   C284    1.418   .     A
C281   C286    1.424   .     A
C282   O319    1.286   .     A
C282   C293    1.427   .     S
C282   O317    1.292   .     A
C283   C287    1.427   .     A
C283   C285    1.418   .     A
C284   C776    1.412   .     S
C285   C777    1.401   1_554 S
C286   C289    1.430   .     A
C286   C773    1.418   .     S
C287   C288    1.427   .     A
C287   C772    1.418   1_554 S
C288   O315    1.385   .     S
C288   C290    1.414   .     A
C289   C291    1.409   .     A
C289   O316    1.380   .     S
C290   O324    1.382   .     S
C290   C770    1.412   1_554 S
C291   C771    1.401   .     S
C291   O206    1.385   1_655 S
C292   C455    1.328   .     S
C292   H470    1.088   .     S
C294   O322    1.296   .     A
C294   O320    1.303   .     A
Cu295  N312    2.021   .     S
Cu295  O313    1.955   .     S
Cu295  Cu296   2.689   .     S
Cu295  O323    1.904   .     S
Cu295  O319    1.951   .     S
Cu295  O320    1.923   .     S
Cu296  O322    1.904   .     S
Cu296  O318    1.951   .     S
Cu296  O321    1.923   .     S
Cu296  O317    1.955   .     S
Cu296  N311    2.021   .     S
H298   N204    1.029   1_655 S
H299   O810    0.990   .     S
H300   O314    0.990   .     S
H301   O315    0.989   .     S
H302   O316    0.992   .     S
H306   C167    1.081   1_655 S
H309   C455    1.088   .     S
N311   H202    1.029   1_655 S
N311   N204    1.286   1_655 S
O324   H785    0.990   1_554 S
C325   O372    1.286   .     A
C325   C346    1.427   .     S
C325   O367    1.292   .     A
C326   C328    1.472   .     S
C326   O377    1.298   .     A
C326   O375    1.302   .     A
C327   C333    1.395   .     A
C327   C348    1.468   .     S
C327   C331    1.395   .     A
C328   C332    1.398   .     A
C328   C334    1.401   .     A
C329   C338    1.414   .     A
C329   C331    1.394   .     A
C329   H468    1.081   1_455 S
C330   C332    1.392   .     A
C330   C339    1.410   .     A
C330   H415    1.083   .     S
C331   H359    1.083   .     S
C332   H358    1.083   .     S
C333   H357    1.081   .     S
C333   C335    1.408   .     A
C334   H351    1.079   .     S
C334   C337    1.409   .     A
C335   C338    1.418   .     A
C335   C340    1.424   .     A
C336   O373    1.286   .     A
C336   C347    1.427   .     S
C336   O371    1.292   .     A
C337   C341    1.427   .     A
C337   C339    1.418   .     A
C338   C830    1.412   .     S
C339   C831    1.401   1_554 S
C340   C343    1.430   .     A
C340   C827    1.418   .     S
C341   C342    1.427   .     A
C341   C826    1.418   1_554 S
C342   O369    1.385   .     S
C342   C344    1.414   .     A
C343   C345    1.409   .     A
C343   O370    1.380   .     S
C344   O378    1.382   .     S
C344   C824    1.412   1_554 S
C345   C825    1.401   .     S
C345   O422    1.385   .     S
C346   C23     1.328   1_565 S
C346   H38     1.088   1_565 S
C348   O376    1.296   .     A
C348   O374    1.303   .     A
Cu349  N366    2.021   .     S
Cu349  O367    1.955   .     S
Cu349  Cu350   2.689   .     S
Cu349  O377    1.904   .     S
Cu349  O373    1.951   .     S
Cu349  O374    1.923   .     S
Cu350  O376    1.904   .     S
Cu350  O372    1.951   .     S
Cu350  O375    1.923   .     S
Cu350  O371    1.955   .     S
Cu350  N365    2.021   .     S
H352   N420    1.029   .     S
H353   O864    0.990   .     S
H354   O368    0.990   .     S
H355   O369    0.989   .     S
H356   O370    0.992   .     S
H360   C383    1.081   .     S
H361   C438    1.083   1_455 S
H363   C23     1.088   1_565 S
H364   N473    1.029   1_455 S
N365   H418    1.029   .     S
N365   N420    1.286   .     S
N366   H460    1.029   1_455 S
N366   N473    1.286   1_455 S
O368   C453    1.385   1_455 S
O378   H839    0.990   1_554 S
C379   O426    1.286   .     A
C379   C400    1.427   .     S
C379   O421    1.292   .     A
C380   C382    1.472   .     S
C380   O431    1.298   .     A
C380   O429    1.302   .     A
C381   C387    1.395   .     A
C381   C402    1.468   .     S
C381   C385    1.395   .     A
C382   C386    1.398   .     A
C382   C388    1.401   .     A
C383   C392    1.414   .     A
C383   C385    1.394   .     A
C384   C386    1.392   .     A
C384   C393    1.410   .     A
C384   H469    1.083   .     S
C385   H413    1.083   .     S
C386   H412    1.083   .     S
C387   H411    1.081   .     S
C387   C389    1.408   .     A
C388   H405    1.079   .     S
C388   C391    1.409   .     A
C389   C392    1.418   .     A
C389   C394    1.424   .     A
C390   O427    1.286   .     A
C390   C401    1.427   .     S
C390   O425    1.292   .     A
C391   C395    1.427   .     A
C391   C393    1.418   .     A
C392   C884    1.412   .     S
C393   C885    1.401   1_554 S
C394   C397    1.430   .     A
C394   C881    1.418   .     S
C395   C396    1.427   .     A
C395   C880    1.418   1_554 S
C396   O423    1.385   .     S
C396   C398    1.414   .     A
C397   C399    1.409   .     A
C397   O424    1.380   .     S
C398   O432    1.382   .     S
C398   C878    1.412   1_554 S
C399   C879    1.401   .     S
C399   O476    1.385   .     S
C400   C77     1.328   1_565 S
C400   H92     1.088   1_565 S
C402   O430    1.296   .     A
C402   O428    1.303   .     A
Cu403  N420    2.021   .     S
Cu403  O421    1.955   .     S
Cu403  Cu404   2.689   .     S
Cu403  O431    1.904   .     S
Cu403  O427    1.951   .     S
Cu403  O428    1.923   .     S
Cu404  O430    1.904   .     S
Cu404  O426    1.951   .     S
Cu404  O429    1.923   .     S
Cu404  O425    1.955   .     S
Cu404  N419    2.021   .     S
H406   N474    1.029   .     S
H407   O918    0.990   .     S
H408   O422    0.990   .     S
H409   O423    0.989   .     S
H410   O424    0.992   .     S
H414   C437    1.081   .     S
H417   C77     1.088   1_565 S
N419   H472    1.029   .     S
N419   N474    1.286   .     S
O432   H893    0.990   1_554 S
C433   O480    1.286   .     A
C433   C454    1.427   .     S
C433   O475    1.292   .     A
C434   C436    1.472   .     S
C434   O485    1.298   .     A
C434   O483    1.302   .     A
C435   C441    1.395   .     A
C435   C456    1.468   .     S
C435   C439    1.395   .     A
C436   C440    1.398   .     A
C436   C442    1.401   .     A
C437   C446    1.414   .     A
C437   C439    1.394   .     A
C438   C440    1.392   .     A
C438   C447    1.410   .     A
C438   H361    1.083   1_655 S
C439   H467    1.083   .     S
C440   H466    1.083   .     S
C441   H465    1.081   .     S
C441   C443    1.408   .     A
C442   H459    1.079   .     S
C442   C445    1.409   .     A
C443   C446    1.418   .     A
C443   C448    1.424   .     A
C444   O481    1.286   .     A
C444   C455    1.427   .     S
C444   O479    1.292   .     A
C445   C449    1.427   .     A
C445   C447    1.418   .     A
C446   C938    1.412   .     S
C447   C939    1.401   1_554 S
C448   C451    1.430   .     A
C448   C935    1.418   .     S
C449   C450    1.427   .     A
C449   C934    1.418   1_554 S
C450   O477    1.385   .     S
C450   C452    1.414   .     A
C451   C453    1.409   .     A
C451   O478    1.380   .     S
C452   O486    1.382   .     S
C452   C932    1.412   1_554 S
C453   C933    1.401   .     S
C453   O368    1.385   1_655 S
C454   C131    1.328   1_565 S
C454   H146    1.088   1_565 S
C456   O484    1.296   .     A
C456   O482    1.303   .     A
Cu457  N474    2.021   .     S
Cu457  O475    1.955   .     S
Cu457  Cu458   2.689   .     S
Cu457  O485    1.904   .     S
Cu457  O481    1.951   .     S
Cu457  O482    1.923   .     S
Cu458  O484    1.904   .     S
Cu458  O480    1.951   .     S
Cu458  O483    1.923   .     S
Cu458  O479    1.955   .     S
Cu458  N473    2.021   .     S
H460   N366    1.029   1_655 S
H461   O972    0.990   .     S
H462   O476    0.990   .     S
H463   O477    0.989   .     S
H464   O478    0.992   .     S
H468   C329    1.081   1_655 S
H471   C131    1.088   1_565 S
N473   H364    1.029   1_655 S
N473   N366    1.286   1_655 S
O486   H947    0.990   1_554 S
C487   O534    1.286   .     A
C487   C508    1.427   .     S
C487   O529    1.292   .     A
C488   C490    1.472   .     S
C488   O539    1.298   .     A
C488   O537    1.302   .     A
C489   C495    1.395   .     A
C489   C510    1.468   .     S
C489   C493    1.395   .     A
C490   C494    1.398   .     A
C490   C496    1.401   .     A
C491   C500    1.414   .     A
C491   C493    1.394   .     A
C491   H630    1.081   1_455 S
C492   C494    1.392   .     A
C492   C501    1.410   .     A
C492   H577    1.083   .     S
C493   H521    1.083   .     S
C494   H520    1.083   .     S
C495   H519    1.081   .     S
C495   C497    1.408   .     A
C496   H513    1.079   .     S
C496   C499    1.409   .     A
C497   C500    1.418   .     A
C497   C502    1.424   .     A
C498   O535    1.286   .     A
C498   C509    1.427   .     S
C498   O533    1.292   .     A
C499   C503    1.427   .     A
C499   C501    1.418   .     A
C500   C20     1.412   1_556 S
C502   C505    1.430   .     A
C502   C17     1.418   1_556 S
C503   C504    1.427   .     A
C504   O531    1.385   .     S
C504   C506    1.414   .     A
C505   C507    1.409   .     A
C505   O532    1.380   .     S
C506   O540    1.382   .     S
C507   C15     1.401   1_556 S
C507   O584    1.385   .     S
C508   C671    1.328   .     S
C508   H686    1.088   .     S
C509   C832    1.328   1_545 S
C509   H849    1.088   1_545 S
C510   O538    1.296   .     A
C510   O536    1.303   .     A
Cu511  N528    2.021   .     S
Cu511  O529    1.955   .     S
Cu511  Cu512   2.689   .     S
Cu511  O539    1.904   .     S
Cu511  O535    1.951   .     S
Cu511  O536    1.923   .     S
Cu512  O538    1.904   .     S
Cu512  O534    1.951   .     S
Cu512  O537    1.923   .     S
Cu512  O533    1.955   .     S
Cu512  N527    2.021   .     S
H514   N582    1.029   .     S
H515   O54     0.990   1_556 S
H516   O530    0.990   .     S
H517   O531    0.989   .     S
H518   O532    0.992   .     S
H522   C545    1.081   .     S
H523   C600    1.083   1_455 S
H524   C832    1.088   1_545 S
H525   C671    1.088   .     S
H526   N635    1.029   1_455 S
N527   H580    1.029   .     S
N527   N582    1.286   .     S
N528   H622    1.029   1_455 S
N528   N635    1.286   1_455 S
O530   C615    1.385   1_455 S
C541   O588    1.286   .     A
C541   C562    1.427   .     S
C541   O583    1.292   .     A
C542   C544    1.472   .     S
C542   O593    1.298   .     A
C542   O591    1.302   .     A
C543   C549    1.395   .     A
C543   C564    1.468   .     S
C543   C547    1.395   .     A
C544   C548    1.398   .     A
C544   C550    1.401   .     A
C545   C554    1.414   .     A
C545   C547    1.394   .     A
C546   C548    1.392   .     A
C546   C555    1.410   .     A
C546   H631    1.083   .     S
C547   H575    1.083   .     S
C548   H574    1.083   .     S
C549   H573    1.081   .     S
C549   C551    1.408   .     A
C550   H567    1.079   .     S
C550   C553    1.409   .     A
C551   C554    1.418   .     A
C551   C556    1.424   .     A
C552   O589    1.286   .     A
C552   C563    1.427   .     S
C552   O587    1.292   .     A
C553   C557    1.427   .     A
C553   C555    1.418   .     A
C554   C74     1.412   1_556 S
C556   C559    1.430   .     A
C556   C71     1.418   1_556 S
C557   C558    1.427   .     A
C558   O585    1.385   .     S
C558   C560    1.414   .     A
C559   C561    1.409   .     A
C559   O586    1.380   .     S
C560   O594    1.382   .     S
C561   C69     1.401   1_556 S
C561   O638    1.385   .     S
C562   C725    1.328   .     S
C562   H740    1.088   .     S
C563   C886    1.328   1_545 S
C563   H903    1.088   1_545 S
C564   O592    1.296   .     A
C564   O590    1.303   .     A
Cu565  N582    2.021   .     S
Cu565  O583    1.955   .     S
Cu565  Cu566   2.689   .     S
Cu565  O593    1.904   .     S
Cu565  O589    1.951   .     S
Cu565  O590    1.923   .     S
Cu566  O592    1.904   .     S
Cu566  O588    1.951   .     S
Cu566  O591    1.923   .     S
Cu566  O587    1.955   .     S
Cu566  N581    2.021   .     S
H568   N636    1.029   .     S
H569   O108    0.990   1_556 S
H570   O584    0.990   .     S
H571   O585    0.989   .     S
H572   O586    0.992   .     S
H576   C599    1.081   .     S
H578   C886    1.088   1_545 S
H579   C725    1.088   .     S
N581   H634    1.029   .     S
N581   N636    1.286   .     S
C595   O642    1.286   .     A
C595   C616    1.427   .     S
C595   O637    1.292   .     A
C596   C598    1.472   .     S
C596   O647    1.298   .     A
C596   O645    1.302   .     A
C597   C603    1.395   .     A
C597   C618    1.468   .     S
C597   C601    1.395   .     A
C598   C602    1.398   .     A
C598   C604    1.401   .     A
C599   C608    1.414   .     A
C599   C601    1.394   .     A
C600   C602    1.392   .     A
C600   C609    1.410   .     A
C600   H523    1.083   1_655 S
C601   H629    1.083   .     S
C602   H628    1.083   .     S
C603   H627    1.081   .     S
C603   C605    1.408   .     A
C604   H621    1.079   .     S
C604   C607    1.409   .     A
C605   C608    1.418   .     A
C605   C610    1.424   .     A
C606   O643    1.286   .     A
C606   C617    1.427   .     S
C606   O641    1.292   .     A
C607   C611    1.427   .     A
C607   C609    1.418   .     A
C608   C128    1.412   1_556 S
C610   C613    1.430   .     A
C610   C125    1.418   1_556 S
C611   C612    1.427   .     A
C612   O639    1.385   .     S
C612   C614    1.414   .     A
C613   C615    1.409   .     A
C613   O640    1.380   .     S
C614   O648    1.382   .     S
C615   C123    1.401   1_556 S
C615   O530    1.385   1_655 S
C616   C779    1.328   .     S
C616   H794    1.088   .     S
C617   C940    1.328   1_545 S
C617   H957    1.088   1_545 S
C618   O646    1.296   .     A
C618   O644    1.303   .     A
Cu619  N636    2.021   .     S
Cu619  O637    1.955   .     S
Cu619  Cu620   2.689   .     S
Cu619  O647    1.904   .     S
Cu619  O643    1.951   .     S
Cu619  O644    1.923   .     S
Cu620  O646    1.904   .     S
Cu620  O642    1.951   .     S
Cu620  O645    1.923   .     S
Cu620  O641    1.955   .     S
Cu620  N635    2.021   .     S
H622   N528    1.029   1_655 S
H623   O162    0.990   1_556 S
H624   O638    0.990   .     S
H625   O639    0.989   .     S
H626   O640    0.992   .     S
H630   C491    1.081   1_655 S
H632   C940    1.088   1_545 S
H633   C779    1.088   .     S
N635   H526    1.029   1_655 S
N635   N528    1.286   1_655 S
C649   O696    1.286   .     A
C649   C670    1.427   .     S
C649   O691    1.292   .     A
C650   C652    1.472   .     S
C650   O701    1.298   .     A
C650   O699    1.302   .     A
C651   C657    1.395   .     A
C651   C672    1.468   .     S
C651   C655    1.395   .     A
C652   C656    1.398   .     A
C652   C658    1.401   .     A
C653   C662    1.414   .     A
C653   C655    1.394   .     A
C653   H792    1.081   1_455 S
C654   C656    1.392   .     A
C654   C663    1.410   .     A
C654   H739    1.083   .     S
C655   H683    1.083   .     S
C656   H682    1.083   .     S
C657   H681    1.081   .     S
C657   C659    1.408   .     A
C658   H675    1.079   .     S
C658   C661    1.409   .     A
C659   C662    1.418   .     A
C659   C664    1.424   .     A
C660   O697    1.286   .     A
C660   C671    1.427   .     S
C660   O695    1.292   .     A
C661   C665    1.427   .     A
C661   C663    1.418   .     A
C662   C182    1.412   1_556 S
C664   C667    1.430   .     A
C664   C179    1.418   1_556 S
C665   C666    1.427   .     A
C666   O693    1.385   .     S
C666   C668    1.414   .     A
C667   C669    1.409   .     A
C667   O694    1.380   .     S
C668   O702    1.382   .     S
C669   C177    1.401   1_556 S
C669   O746    1.385   .     S
C670   C833    1.328   .     S
C670   H848    1.088   .     S
C672   O700    1.296   .     A
C672   O698    1.303   .     A
Cu673  N690    2.021   .     S
Cu673  O691    1.955   .     S
Cu673  Cu674   2.689   .     S
Cu673  O701    1.904   .     S
Cu673  O697    1.951   .     S
Cu673  O698    1.923   .     S
Cu674  O700    1.904   .     S
Cu674  O696    1.951   .     S
Cu674  O699    1.923   .     S
Cu674  O695    1.955   .     S
Cu674  N689    2.021   .     S
H676   N744    1.029   .     S
H677   O216    0.990   1_556 S
H678   O692    0.990   .     S
H679   O693    0.989   .     S
H680   O694    0.992   .     S
H684   C707    1.081   .     S
H685   C762    1.083   1_455 S
H687   C833    1.088   .     S
H688   N797    1.029   1_455 S
N689   H742    1.029   .     S
N689   N744    1.286   .     S
N690   H784    1.029   1_455 S
N690   N797    1.286   1_455 S
O692   C777    1.385   1_455 S
C703   O750    1.286   .     A
C703   C724    1.427   .     S
C703   O745    1.292   .     A
C704   C706    1.472   .     S
C704   O755    1.298   .     A
C704   O753    1.302   .     A
C705   C711    1.395   .     A
C705   C726    1.468   .     S
C705   C709    1.395   .     A
C706   C710    1.398   .     A
C706   C712    1.401   .     A
C707   C716    1.414   .     A
C707   C709    1.394   .     A
C708   C710    1.392   .     A
C708   C717    1.410   .     A
C708   H793    1.083   .     S
C709   H737    1.083   .     S
C710   H736    1.083   .     S
C711   H735    1.081   .     S
C711   C713    1.408   .     A
C712   H729    1.079   .     S
C712   C715    1.409   .     A
C713   C716    1.418   .     A
C713   C718    1.424   .     A
C714   O751    1.286   .     A
C714   C725    1.427   .     S
C714   O749    1.292   .     A
C715   C719    1.427   .     A
C715   C717    1.418   .     A
C716   C236    1.412   1_556 S
C718   C721    1.430   .     A
C718   C233    1.418   1_556 S
C719   C720    1.427   .     A
C720   O747    1.385   .     S
C720   C722    1.414   .     A
C721   C723    1.409   .     A
C721   O748    1.380   .     S
C722   O756    1.382   .     S
C723   C231    1.401   1_556 S
C723   O800    1.385   .     S
C724   C887    1.328   .     S
C724   H902    1.088   .     S
C726   O754    1.296   .     A
C726   O752    1.303   .     A
Cu727  N744    2.021   .     S
Cu727  O745    1.955   .     S
Cu727  Cu728   2.689   .     S
Cu727  O755    1.904   .     S
Cu727  O751    1.951   .     S
Cu727  O752    1.923   .     S
Cu728  O754    1.904   .     S
Cu728  O750    1.951   .     S
Cu728  O753    1.923   .     S
Cu728  O749    1.955   .     S
Cu728  N743    2.021   .     S
H730   N798    1.029   .     S
H731   O270    0.990   1_556 S
H732   O746    0.990   .     S
H733   O747    0.989   .     S
H734   O748    0.992   .     S
H738   C761    1.081   .     S
H741   C887    1.088   .     S
N743   H796    1.029   .     S
N743   N798    1.286   .     S
C757   O804    1.286   .     A
C757   C778    1.427   .     S
C757   O799    1.292   .     A
C758   C760    1.472   .     S
C758   O809    1.298   .     A
C758   O807    1.302   .     A
C759   C765    1.395   .     A
C759   C780    1.468   .     S
C759   C763    1.395   .     A
C760   C764    1.398   .     A
C760   C766    1.401   .     A
C761   C770    1.414   .     A
C761   C763    1.394   .     A
C762   C764    1.392   .     A
C762   C771    1.410   .     A
C762   H685    1.083   1_655 S
C763   H791    1.083   .     S
C764   H790    1.083   .     S
C765   H789    1.081   .     S
C765   C767    1.408   .     A
C766   H783    1.079   .     S
C766   C769    1.409   .     A
C767   C770    1.418   .     A
C767   C772    1.424   .     A
C768   O805    1.286   .     A
C768   C779    1.427   .     S
C768   O803    1.292   .     A
C769   C773    1.427   .     A
C769   C771    1.418   .     A
C770   C290    1.412   1_556 S
C772   C775    1.430   .     A
C772   C287    1.418   1_556 S
C773   C774    1.427   .     A
C774   O801    1.385   .     S
C774   C776    1.414   .     A
C775   C777    1.409   .     A
C775   O802    1.380   .     S
C776   O810    1.382   .     S
C777   C285    1.401   1_556 S
C777   O692    1.385   1_655 S
C778   C941    1.328   .     S
C778   H956    1.088   .     S
C780   O808    1.296   .     A
C780   O806    1.303   .     A
Cu781  N798    2.021   .     S
Cu781  O799    1.955   .     S
Cu781  Cu782   2.689   .     S
Cu781  O809    1.904   .     S
Cu781  O805    1.951   .     S
Cu781  O806    1.923   .     S
Cu782  O808    1.904   .     S
Cu782  O804    1.951   .     S
Cu782  O807    1.923   .     S
Cu782  O803    1.955   .     S
Cu782  N797    2.021   .     S
H784   N690    1.029   1_655 S
H785   O324    0.990   1_556 S
H786   O800    0.990   .     S
H787   O801    0.989   .     S
H788   O802    0.992   .     S
H792   C653    1.081   1_655 S
H795   C941    1.088   .     S
N797   H688    1.029   1_655 S
N797   N690    1.286   1_655 S
C811   O858    1.286   .     A
C811   C832    1.427   .     S
C811   O853    1.292   .     A
C812   C814    1.472   .     S
C812   O863    1.298   .     A
C812   O861    1.302   .     A
C813   C819    1.395   .     A
C813   C834    1.468   .     S
C813   C817    1.395   .     A
C814   C818    1.398   .     A
C814   C820    1.401   .     A
C815   C824    1.414   .     A
C815   C817    1.394   .     A
C815   H954    1.081   1_455 S
C816   C818    1.392   .     A
C816   C825    1.410   .     A
C816   H901    1.083   .     S
C817   H845    1.083   .     S
C818   H844    1.083   .     S
C819   H843    1.081   .     S
C819   C821    1.408   .     A
C820   H837    1.079   .     S
C820   C823    1.409   .     A
C821   C824    1.418   .     A
C821   C826    1.424   .     A
C822   O859    1.286   .     A
C822   C833    1.427   .     S
C822   O857    1.292   .     A
C823   C827    1.427   .     A
C823   C825    1.418   .     A
C824   C344    1.412   1_556 S
C826   C829    1.430   .     A
C826   C341    1.418   1_556 S
C827   C828    1.427   .     A
C828   O855    1.385   .     S
C828   C830    1.414   .     A
C829   C831    1.409   .     A
C829   O856    1.380   .     S
C830   O864    1.382   .     S
C831   C339    1.401   1_556 S
C831   O908    1.385   .     S
C832   C509    1.328   1_565 S
C832   H524    1.088   1_565 S
C834   O862    1.296   .     A
C834   O860    1.303   .     A
Cu835  N852    2.021   .     S
Cu835  O853    1.955   .     S
Cu835  Cu836   2.689   .     S
Cu835  O863    1.904   .     S
Cu835  O859    1.951   .     S
Cu835  O860    1.923   .     S
Cu836  O862    1.904   .     S
Cu836  O858    1.951   .     S
Cu836  O861    1.923   .     S
Cu836  O857    1.955   .     S
Cu836  N851    2.021   .     S
H838   N906    1.029   .     S
H839   O378    0.990   1_556 S
H840   O854    0.990   .     S
H841   O855    0.989   .     S
H842   O856    0.992   .     S
H846   C869    1.081   .     S
H847   C924    1.083   1_455 S
H849   C509    1.088   1_565 S
H850   N959    1.029   1_455 S
N851   H904    1.029   .     S
N851   N906    1.286   .     S
N852   H946    1.029   1_455 S
N852   N959    1.286   1_455 S
O854   C939    1.385   1_455 S
C865   O912    1.286   .     A
C865   C886    1.427   .     S
C865   O907    1.292   .     A
C866   C868    1.472   .     S
C866   O917    1.298   .     A
C866   O915    1.302   .     A
C867   C873    1.395   .     A
C867   C888    1.468   .     S
C867   C871    1.395   .     A
C868   C872    1.398   .     A
C868   C874    1.401   .     A
C869   C878    1.414   .     A
C869   C871    1.394   .     A
C870   C872    1.392   .     A
C870   C879    1.410   .     A
C870   H955    1.083   .     S
C871   H899    1.083   .     S
C872   H898    1.083   .     S
C873   H897    1.081   .     S
C873   C875    1.408   .     A
C874   H891    1.079   .     S
C874   C877    1.409   .     A
C875   C878    1.418   .     A
C875   C880    1.424   .     A
C876   O913    1.286   .     A
C876   C887    1.427   .     S
C876   O911    1.292   .     A
C877   C881    1.427   .     A
C877   C879    1.418   .     A
C878   C398    1.412   1_556 S
C880   C883    1.430   .     A
C880   C395    1.418   1_556 S
C881   C882    1.427   .     A
C882   O909    1.385   .     S
C882   C884    1.414   .     A
C883   C885    1.409   .     A
C883   O910    1.380   .     S
C884   O918    1.382   .     S
C885   C393    1.401   1_556 S
C885   O962    1.385   .     S
C886   C563    1.328   1_565 S
C886   H578    1.088   1_565 S
C888   O916    1.296   .     A
C888   O914    1.303   .     A
Cu889  N906    2.021   .     S
Cu889  O907    1.955   .     S
Cu889  Cu890   2.689   .     S
Cu889  O917    1.904   .     S
Cu889  O913    1.951   .     S
Cu889  O914    1.923   .     S
Cu890  O916    1.904   .     S
Cu890  O912    1.951   .     S
Cu890  O915    1.923   .     S
Cu890  O911    1.955   .     S
Cu890  N905    2.021   .     S
H892   N960    1.029   .     S
H893   O432    0.990   1_556 S
H894   O908    0.990   .     S
H895   O909    0.989   .     S
H896   O910    0.992   .     S
H900   C923    1.081   .     S
H903   C563    1.088   1_565 S
N905   H958    1.029   .     S
N905   N960    1.286   .     S
C919   O966    1.286   .     A
C919   C940    1.427   .     S
C919   O961    1.292   .     A
C920   C922    1.472   .     S
C920   O971    1.298   .     A
C920   O969    1.302   .     A
C921   C927    1.395   .     A
C921   C942    1.468   .     S
C921   C925    1.395   .     A
C922   C926    1.398   .     A
C922   C928    1.401   .     A
C923   C932    1.414   .     A
C923   C925    1.394   .     A
C924   C926    1.392   .     A
C924   C933    1.410   .     A
C924   H847    1.083   1_655 S
C925   H953    1.083   .     S
C926   H952    1.083   .     S
C927   H951    1.081   .     S
C927   C929    1.408   .     A
C928   H945    1.079   .     S
C928   C931    1.409   .     A
C929   C932    1.418   .     A
C929   C934    1.424   .     A
C930   O967    1.286   .     A
C930   C941    1.427   .     S
C930   O965    1.292   .     A
C931   C935    1.427   .     A
C931   C933    1.418   .     A
C932   C452    1.412   1_556 S
C934   C937    1.430   .     A
C934   C449    1.418   1_556 S
C935   C936    1.427   .     A
C936   O963    1.385   .     S
C936   C938    1.414   .     A
C937   C939    1.409   .     A
C937   O964    1.380   .     S
C938   O972    1.382   .     S
C939   C447    1.401   1_556 S
C939   O854    1.385   1_655 S
C940   C617    1.328   1_565 S
C940   H632    1.088   1_565 S
C942   O970    1.296   .     A
C942   O968    1.303   .     A
Cu943  N960    2.021   .     S
Cu943  O961    1.955   .     S
Cu943  Cu944   2.689   .     S
Cu943  O971    1.904   .     S
Cu943  O967    1.951   .     S
Cu943  O968    1.923   .     S
Cu944  O970    1.904   .     S
Cu944  O966    1.951   .     S
Cu944  O969    1.923   .     S
Cu944  O965    1.955   .     S
Cu944  N959    2.021   .     S
H946   N852    1.029   1_655 S
H947   O486    0.990   1_556 S
H948   O962    0.990   .     S
H949   O963    0.989   .     S
H950   O964    0.992   .     S
H954   C815    1.081   1_655 S
H957   C617    1.088   1_565 S
N959   H850    1.029   1_655 S
N959   N852    1.286   1_655 S
