data_str_m2_o1_o2_pcu_sym.128
_audit_creation_date              2020-01-03
_audit_creation_method            'Materials Studio'
_symmetry_space_group_name_H-M    'P1'
_symmetry_Int_Tables_number       1
_symmetry_cell_setting            triclinic
loop_
_symmetry_equiv_pos_as_xyz
  x,y,z
_cell_length_a                    32.4689
_cell_length_b                    28.8527
_cell_length_c                    30.3561
_cell_angle_alpha                 91.5446
_cell_angle_beta                  93.2952
_cell_angle_gamma                 91.3702
loop_
_atom_site_label
_atom_site_type_symbol
_atom_site_fract_x
_atom_site_fract_y
_atom_site_fract_z
_atom_site_U_iso_or_equiv
_atom_site_adp_type
_atom_site_occupancy
C1     C     0.08755   0.16623   0.24929   0.00000  Uiso   1.00
C2     C     0.24585   0.16711   0.25031   0.00000  Uiso   1.00
C3     C     0.16714   0.16625   0.16486   0.00000  Uiso   1.00
C4     C     0.16665   0.16718   0.33470   0.00000  Uiso   1.00
C5     C     0.13962   0.02238   0.22207   0.00000  Uiso   1.00
C6     C     0.19127   0.31091   0.28002   0.00000  Uiso   1.00
C7     C     0.19255   0.02683   0.27854   0.00000  Uiso   1.00
C8     C     0.14042   0.30621   0.22178   0.00000  Uiso   1.00
C9     C     0.01897   0.13974   0.21733   0.00000  Uiso   1.00
C10    C     0.31467   0.19429   0.28132   0.00000  Uiso   1.00
C11    C     0.30910   0.14054   0.21744   0.00000  Uiso   1.00
C12    C     0.02445   0.19332   0.28133   0.00000  Uiso   1.00
C13    C     0.17889   0.20699   0.04842   0.00000  Uiso   1.00
C14    C     0.13341   0.14618   0.44901   0.00000  Uiso   1.00
C15    C     0.19828   0.18986   0.45428   0.00000  Uiso   1.00
C16    C     0.15567   0.12680   0.04429   0.00000  Uiso   1.00
C17    C     0.18033   0.20661   0.09443   0.00000  Uiso   1.00
C18    C     0.13342   0.14593   0.40297   0.00000  Uiso   1.00
C19    C     0.19851   0.19016   0.40839   0.00000  Uiso   1.00
C20    C     0.15624   0.12572   0.09026   0.00000  Uiso   1.00
C21    C     0.16809   0.16595   0.11609   0.00000  Uiso   1.00
C22    C     0.16601   0.16820   0.38263   0.00000  Uiso   1.00
C23    C     0.16648   0.16736   0.02321   0.00000  Uiso   1.00
C24    C     0.16587   0.16800   0.47481   0.00000  Uiso   1.00
C25    C     0.29057   0.16771   0.24955   0.00000  Uiso   1.00
C26    C     0.04293   0.16579   0.24958   0.00000  Uiso   1.00
Cu27   Cu    0.16667   0.21355   0.25000   0.00000  Uiso   1.00
Cu28   Cu    0.16667   0.11978   0.25000   0.00000  Uiso   1.00
H29    H     0.18745   0.23864   0.03242   0.00000  Uiso   1.00
H30    H     0.10792   0.12959   0.46451   0.00000  Uiso   1.00
H31    H     0.22408   0.20579   0.47381   0.00000  Uiso   1.00
H32    H     0.14694   0.09555   0.02505   0.00000  Uiso   1.00
N33    N     0.16667   0.28402   0.25000   0.00000  Uiso   1.00
N34    N     0.16667   0.04931   0.25000   0.00000  Uiso   1.00
O35    O     0.10655   0.20625   0.25000   0.00000  Uiso   1.00
O36    O     0.22679   0.12709   0.25001   0.00000  Uiso   1.00
O37    O     0.22679   0.20625   0.25001   0.00000  Uiso   1.00
O38    O     0.10655   0.12709   0.25000   0.00000  Uiso   1.00
O39    O     0.16666   0.20626   0.18573   0.00000  Uiso   1.00
O40    O     0.16667   0.12707   0.31427   0.00000  Uiso   1.00
O41    O     0.16667   0.20626   0.31427   0.00000  Uiso   1.00
O42    O     0.16666   0.12707   0.18573   0.00000  Uiso   1.00
N43    N     0.10760   0.04263   0.19494   0.00000  Uiso   1.00
H44    H     0.11299   0.07755   0.19172   0.00000  Uiso   1.00
H45    H     0.10864   0.02898   0.16288   0.00000  Uiso   1.00
N46    N     0.21316   0.29083   0.31656   0.00000  Uiso   1.00
H47    H     0.22799   0.26159   0.30611   0.00000  Uiso   1.00
H48    H     0.19179   0.28195   0.33951   0.00000  Uiso   1.00
N49    N     0.21995   0.05349   0.30855   0.00000  Uiso   1.00
H50    H     0.21273   0.04618   0.34080   0.00000  Uiso   1.00
H51    H     0.25008   0.04303   0.30411   0.00000  Uiso   1.00
N52    N     0.11227   0.27887   0.19311   0.00000  Uiso   1.00
H53    H     0.11825   0.28535   0.16037   0.00000  Uiso   1.00
H54    H     0.08211   0.28840   0.19877   0.00000  Uiso   1.00
N55    N     0.19517   0.24750   0.11880   0.00000  Uiso   1.00
H56    H     0.22523   0.25501   0.11002   0.00000  Uiso   1.00
H57    H     0.17673   0.27511   0.10920   0.00000  Uiso   1.00
N58    N     0.10015   0.12353   0.37686   0.00000  Uiso   1.00
H59    H     0.07261   0.13849   0.38546   0.00000  Uiso   1.00
H60    H     0.09886   0.08864   0.38527   0.00000  Uiso   1.00
N61    N     0.23288   0.21076   0.38811   0.00000  Uiso   1.00
H62    H     0.23588   0.24540   0.39910   0.00000  Uiso   1.00
H63    H     0.25934   0.19391   0.39969   0.00000  Uiso   1.00
N64    N     0.14409   0.08363   0.11022   0.00000  Uiso   1.00
H65    H     0.16380   0.05757   0.10055   0.00000  Uiso   1.00
H66    H     0.11422   0.07447   0.09773   0.00000  Uiso   1.00
N67    N     0.03876   0.11415   0.18372   0.00000  Uiso   1.00
H68    H     0.02910   0.07939   0.18442   0.00000  Uiso   1.00
H69    H     0.02967   0.12717   0.15297   0.00000  Uiso   1.00
N70    N     0.29521   0.22095   0.31432   0.00000  Uiso   1.00
H71    H     0.30405   0.25578   0.31166   0.00000  Uiso   1.00
H72    H     0.30577   0.20987   0.34532   0.00000  Uiso   1.00
N73    N     0.28368   0.11487   0.18453   0.00000  Uiso   1.00
H74    H     0.29056   0.12623   0.15332   0.00000  Uiso   1.00
H75    H     0.29033   0.07971   0.18656   0.00000  Uiso   1.00
N76    N     0.04988   0.21945   0.31394   0.00000  Uiso   1.00
H77    H     0.04327   0.20841   0.34532   0.00000  Uiso   1.00
H78    H     0.04314   0.25456   0.31160   0.00000  Uiso   1.00
C79    C     0.42088   0.16623   0.24929   0.00000  Uiso   1.00
C80    C     0.57918   0.16711   0.25031   0.00000  Uiso   1.00
C81    C     0.50047   0.16625   0.16486   0.00000  Uiso   1.00
C82    C     0.49999   0.16718   0.33470   0.00000  Uiso   1.00
C83    C     0.47295   0.02238   0.22207   0.00000  Uiso   1.00
C84    C     0.52461   0.31091   0.28002   0.00000  Uiso   1.00
C85    C     0.52589   0.02683   0.27854   0.00000  Uiso   1.00
C86    C     0.47376   0.30621   0.22178   0.00000  Uiso   1.00
C87    C     0.35230   0.13974   0.21733   0.00000  Uiso   1.00
C88    C     0.64800   0.19429   0.28132   0.00000  Uiso   1.00
C89    C     0.64244   0.14054   0.21744   0.00000  Uiso   1.00
C90    C     0.35778   0.19332   0.28133   0.00000  Uiso   1.00
C91    C     0.51223   0.20699   0.04842   0.00000  Uiso   1.00
C92    C     0.46675   0.14618   0.44901   0.00000  Uiso   1.00
C93    C     0.53161   0.18986   0.45428   0.00000  Uiso   1.00
C94    C     0.48900   0.12680   0.04429   0.00000  Uiso   1.00
C95    C     0.51367   0.20661   0.09443   0.00000  Uiso   1.00
C96    C     0.46675   0.14593   0.40297   0.00000  Uiso   1.00
C97    C     0.53185   0.19016   0.40839   0.00000  Uiso   1.00
C98    C     0.48957   0.12572   0.09026   0.00000  Uiso   1.00
C99    C     0.50143   0.16595   0.11609   0.00000  Uiso   1.00
C100   C     0.49934   0.16820   0.38263   0.00000  Uiso   1.00
C101   C     0.49981   0.16736   0.02321   0.00000  Uiso   1.00
C102   C     0.49920   0.16800   0.47481   0.00000  Uiso   1.00
C103   C     0.62390   0.16771   0.24955   0.00000  Uiso   1.00
C104   C     0.37626   0.16579   0.24958   0.00000  Uiso   1.00
Cu105  Cu    0.50000   0.21355   0.25000   0.00000  Uiso   1.00
Cu106  Cu    0.50000   0.11978   0.25000   0.00000  Uiso   1.00
H107   H     0.52078   0.23864   0.03242   0.00000  Uiso   1.00
H108   H     0.44125   0.12959   0.46451   0.00000  Uiso   1.00
H109   H     0.55741   0.20579   0.47381   0.00000  Uiso   1.00
H110   H     0.48027   0.09555   0.02505   0.00000  Uiso   1.00
N111   N     0.50000   0.28402   0.25000   0.00000  Uiso   1.00
N112   N     0.50000   0.04931   0.25000   0.00000  Uiso   1.00
O113   O     0.43988   0.20625   0.25000   0.00000  Uiso   1.00
O114   O     0.56012   0.12709   0.25001   0.00000  Uiso   1.00
O115   O     0.56012   0.20625   0.25001   0.00000  Uiso   1.00
O116   O     0.43988   0.12709   0.25000   0.00000  Uiso   1.00
O117   O     0.50000   0.20626   0.18573   0.00000  Uiso   1.00
O118   O     0.50000   0.12707   0.31427   0.00000  Uiso   1.00
O119   O     0.50000   0.20626   0.31427   0.00000  Uiso   1.00
O120   O     0.50000   0.12707   0.18573   0.00000  Uiso   1.00
N121   N     0.44093   0.04263   0.19494   0.00000  Uiso   1.00
H122   H     0.44633   0.07755   0.19172   0.00000  Uiso   1.00
H123   H     0.44197   0.02898   0.16288   0.00000  Uiso   1.00
N124   N     0.54649   0.29083   0.31656   0.00000  Uiso   1.00
H125   H     0.56132   0.26159   0.30611   0.00000  Uiso   1.00
H126   H     0.52513   0.28195   0.33951   0.00000  Uiso   1.00
N127   N     0.55329   0.05349   0.30855   0.00000  Uiso   1.00
H128   H     0.54606   0.04618   0.34080   0.00000  Uiso   1.00
H129   H     0.58342   0.04303   0.30411   0.00000  Uiso   1.00
N130   N     0.44560   0.27887   0.19311   0.00000  Uiso   1.00
H131   H     0.45159   0.28535   0.16037   0.00000  Uiso   1.00
H132   H     0.41545   0.28840   0.19877   0.00000  Uiso   1.00
N133   N     0.52851   0.24750   0.11880   0.00000  Uiso   1.00
H134   H     0.55857   0.25501   0.11002   0.00000  Uiso   1.00
H135   H     0.51006   0.27511   0.10920   0.00000  Uiso   1.00
N136   N     0.43348   0.12353   0.37686   0.00000  Uiso   1.00
H137   H     0.40594   0.13849   0.38546   0.00000  Uiso   1.00
H138   H     0.43219   0.08864   0.38527   0.00000  Uiso   1.00
N139   N     0.56621   0.21076   0.38811   0.00000  Uiso   1.00
H140   H     0.56921   0.24540   0.39910   0.00000  Uiso   1.00
H141   H     0.59267   0.19391   0.39969   0.00000  Uiso   1.00
N142   N     0.47742   0.08363   0.11022   0.00000  Uiso   1.00
H143   H     0.49713   0.05757   0.10055   0.00000  Uiso   1.00
H144   H     0.44755   0.07447   0.09773   0.00000  Uiso   1.00
N145   N     0.37210   0.11415   0.18372   0.00000  Uiso   1.00
H146   H     0.36244   0.07939   0.18442   0.00000  Uiso   1.00
H147   H     0.36300   0.12717   0.15297   0.00000  Uiso   1.00
N148   N     0.62854   0.22095   0.31432   0.00000  Uiso   1.00
H149   H     0.63738   0.25578   0.31166   0.00000  Uiso   1.00
H150   H     0.63911   0.20987   0.34532   0.00000  Uiso   1.00
N151   N     0.61702   0.11487   0.18453   0.00000  Uiso   1.00
H152   H     0.62390   0.12623   0.15332   0.00000  Uiso   1.00
H153   H     0.62367   0.07971   0.18656   0.00000  Uiso   1.00
N154   N     0.38321   0.21945   0.31394   0.00000  Uiso   1.00
H155   H     0.37661   0.20841   0.34532   0.00000  Uiso   1.00
H156   H     0.37647   0.25456   0.31160   0.00000  Uiso   1.00
C157   C     0.75421   0.16623   0.24929   0.00000  Uiso   1.00
C158   C     0.91251   0.16711   0.25031   0.00000  Uiso   1.00
C159   C     0.83381   0.16625   0.16486   0.00000  Uiso   1.00
C160   C     0.83332   0.16718   0.33470   0.00000  Uiso   1.00
C161   C     0.80629   0.02238   0.22207   0.00000  Uiso   1.00
C162   C     0.85794   0.31091   0.28002   0.00000  Uiso   1.00
C163   C     0.85922   0.02683   0.27854   0.00000  Uiso   1.00
C164   C     0.80709   0.30621   0.22178   0.00000  Uiso   1.00
C165   C     0.68564   0.13974   0.21733   0.00000  Uiso   1.00
C166   C     0.98134   0.19429   0.28132   0.00000  Uiso   1.00
C167   C     0.97577   0.14054   0.21744   0.00000  Uiso   1.00
C168   C     0.69112   0.19332   0.28133   0.00000  Uiso   1.00
C169   C     0.84556   0.20699   0.04842   0.00000  Uiso   1.00
C170   C     0.80008   0.14618   0.44901   0.00000  Uiso   1.00
C171   C     0.86495   0.18986   0.45428   0.00000  Uiso   1.00
C172   C     0.82233   0.12680   0.04429   0.00000  Uiso   1.00
C173   C     0.84700   0.20661   0.09443   0.00000  Uiso   1.00
C174   C     0.80008   0.14593   0.40297   0.00000  Uiso   1.00
C175   C     0.86518   0.19016   0.40839   0.00000  Uiso   1.00
C176   C     0.82290   0.12572   0.09026   0.00000  Uiso   1.00
C177   C     0.83476   0.16595   0.11609   0.00000  Uiso   1.00
C178   C     0.83267   0.16820   0.38263   0.00000  Uiso   1.00
C179   C     0.83315   0.16736   0.02321   0.00000  Uiso   1.00
C180   C     0.83253   0.16800   0.47481   0.00000  Uiso   1.00
C181   C     0.95723   0.16771   0.24955   0.00000  Uiso   1.00
C182   C     0.70960   0.16579   0.24958   0.00000  Uiso   1.00
Cu183  Cu    0.83333   0.21355   0.25000   0.00000  Uiso   1.00
Cu184  Cu    0.83333   0.11978   0.25000   0.00000  Uiso   1.00
H185   H     0.85411   0.23864   0.03242   0.00000  Uiso   1.00
H186   H     0.77458   0.12959   0.46451   0.00000  Uiso   1.00
H187   H     0.89074   0.20579   0.47381   0.00000  Uiso   1.00
H188   H     0.81360   0.09555   0.02505   0.00000  Uiso   1.00
N189   N     0.83333   0.28402   0.25000   0.00000  Uiso   1.00
N190   N     0.83333   0.04931   0.25000   0.00000  Uiso   1.00
O191   O     0.77321   0.20625   0.25000   0.00000  Uiso   1.00
O192   O     0.89345   0.12709   0.25001   0.00000  Uiso   1.00
O193   O     0.89345   0.20625   0.25001   0.00000  Uiso   1.00
O194   O     0.77321   0.12709   0.25000   0.00000  Uiso   1.00
O195   O     0.83333   0.20626   0.18573   0.00000  Uiso   1.00
O196   O     0.83334   0.12707   0.31427   0.00000  Uiso   1.00
O197   O     0.83334   0.20626   0.31427   0.00000  Uiso   1.00
O198   O     0.83333   0.12707   0.18573   0.00000  Uiso   1.00
N199   N     0.77426   0.04263   0.19494   0.00000  Uiso   1.00
H200   H     0.77966   0.07755   0.19172   0.00000  Uiso   1.00
H201   H     0.77531   0.02898   0.16288   0.00000  Uiso   1.00
N202   N     0.87982   0.29083   0.31656   0.00000  Uiso   1.00
H203   H     0.89466   0.26159   0.30611   0.00000  Uiso   1.00
H204   H     0.85846   0.28195   0.33951   0.00000  Uiso   1.00
N205   N     0.88662   0.05349   0.30855   0.00000  Uiso   1.00
H206   H     0.87940   0.04618   0.34080   0.00000  Uiso   1.00
H207   H     0.91675   0.04303   0.30411   0.00000  Uiso   1.00
N208   N     0.77893   0.27887   0.19311   0.00000  Uiso   1.00
H209   H     0.78492   0.28535   0.16037   0.00000  Uiso   1.00
H210   H     0.74878   0.28840   0.19877   0.00000  Uiso   1.00
N211   N     0.86184   0.24750   0.11880   0.00000  Uiso   1.00
H212   H     0.89190   0.25501   0.11002   0.00000  Uiso   1.00
H213   H     0.84340   0.27511   0.10920   0.00000  Uiso   1.00
N214   N     0.76681   0.12353   0.37686   0.00000  Uiso   1.00
H215   H     0.73928   0.13849   0.38546   0.00000  Uiso   1.00
H216   H     0.76552   0.08864   0.38527   0.00000  Uiso   1.00
N217   N     0.89954   0.21076   0.38811   0.00000  Uiso   1.00
H218   H     0.90255   0.24540   0.39910   0.00000  Uiso   1.00
H219   H     0.92601   0.19391   0.39969   0.00000  Uiso   1.00
N220   N     0.81075   0.08363   0.11022   0.00000  Uiso   1.00
H221   H     0.83046   0.05757   0.10055   0.00000  Uiso   1.00
H222   H     0.78089   0.07447   0.09773   0.00000  Uiso   1.00
N223   N     0.70543   0.11415   0.18372   0.00000  Uiso   1.00
H224   H     0.69577   0.07939   0.18442   0.00000  Uiso   1.00
H225   H     0.69633   0.12717   0.15297   0.00000  Uiso   1.00
N226   N     0.96188   0.22095   0.31432   0.00000  Uiso   1.00
H227   H     0.97072   0.25578   0.31166   0.00000  Uiso   1.00
H228   H     0.97244   0.20987   0.34532   0.00000  Uiso   1.00
N229   N     0.95035   0.11487   0.18453   0.00000  Uiso   1.00
H230   H     0.95723   0.12623   0.15332   0.00000  Uiso   1.00
H231   H     0.95700   0.07971   0.18656   0.00000  Uiso   1.00
N232   N     0.71655   0.21945   0.31394   0.00000  Uiso   1.00
H233   H     0.70994   0.20841   0.34532   0.00000  Uiso   1.00
H234   H     0.70980   0.25456   0.31160   0.00000  Uiso   1.00
C235   C     0.08755   0.49956   0.24929   0.00000  Uiso   1.00
C236   C     0.24585   0.50045   0.25031   0.00000  Uiso   1.00
C237   C     0.16714   0.49958   0.16486   0.00000  Uiso   1.00
C238   C     0.16665   0.50051   0.33470   0.00000  Uiso   1.00
C239   C     0.13962   0.35571   0.22207   0.00000  Uiso   1.00
C240   C     0.19127   0.64424   0.28002   0.00000  Uiso   1.00
C241   C     0.19255   0.36017   0.27854   0.00000  Uiso   1.00
C242   C     0.14042   0.63954   0.22178   0.00000  Uiso   1.00
C243   C     0.01897   0.47308   0.21733   0.00000  Uiso   1.00
C244   C     0.31467   0.52762   0.28132   0.00000  Uiso   1.00
C245   C     0.30910   0.47387   0.21744   0.00000  Uiso   1.00
C246   C     0.02445   0.52665   0.28133   0.00000  Uiso   1.00
C247   C     0.17889   0.54033   0.04842   0.00000  Uiso   1.00
C248   C     0.13341   0.47951   0.44901   0.00000  Uiso   1.00
C249   C     0.19828   0.52319   0.45428   0.00000  Uiso   1.00
C250   C     0.15567   0.46014   0.04429   0.00000  Uiso   1.00
C251   C     0.18033   0.53994   0.09443   0.00000  Uiso   1.00
C252   C     0.13342   0.47927   0.40297   0.00000  Uiso   1.00
C253   C     0.19851   0.52349   0.40839   0.00000  Uiso   1.00
C254   C     0.15624   0.45905   0.09026   0.00000  Uiso   1.00
C255   C     0.16809   0.49929   0.11609   0.00000  Uiso   1.00
C256   C     0.16601   0.50153   0.38263   0.00000  Uiso   1.00
C257   C     0.16648   0.50069   0.02321   0.00000  Uiso   1.00
C258   C     0.16587   0.50133   0.47481   0.00000  Uiso   1.00
C259   C     0.29057   0.50105   0.24955   0.00000  Uiso   1.00
C260   C     0.04293   0.49912   0.24958   0.00000  Uiso   1.00
Cu261  Cu    0.16667   0.54689   0.25000   0.00000  Uiso   1.00
Cu262  Cu    0.16667   0.45311   0.25000   0.00000  Uiso   1.00
H263   H     0.18745   0.57198   0.03242   0.00000  Uiso   1.00
H264   H     0.10792   0.46292   0.46451   0.00000  Uiso   1.00
H265   H     0.22408   0.53912   0.47381   0.00000  Uiso   1.00
H266   H     0.14694   0.42889   0.02505   0.00000  Uiso   1.00
N267   N     0.16667   0.61736   0.25000   0.00000  Uiso   1.00
N268   N     0.16667   0.38264   0.25000   0.00000  Uiso   1.00
O269   O     0.10655   0.53958   0.25000   0.00000  Uiso   1.00
O270   O     0.22679   0.46042   0.25001   0.00000  Uiso   1.00
O271   O     0.22679   0.53958   0.25001   0.00000  Uiso   1.00
O272   O     0.10655   0.46042   0.25000   0.00000  Uiso   1.00
O273   O     0.16666   0.53959   0.18573   0.00000  Uiso   1.00
O274   O     0.16667   0.46041   0.31427   0.00000  Uiso   1.00
O275   O     0.16667   0.53959   0.31427   0.00000  Uiso   1.00
O276   O     0.16666   0.46041   0.18573   0.00000  Uiso   1.00
N277   N     0.10760   0.37596   0.19494   0.00000  Uiso   1.00
H278   H     0.11299   0.41089   0.19172   0.00000  Uiso   1.00
H279   H     0.10864   0.36232   0.16288   0.00000  Uiso   1.00
N280   N     0.21316   0.62416   0.31656   0.00000  Uiso   1.00
H281   H     0.22799   0.59492   0.30611   0.00000  Uiso   1.00
H282   H     0.19179   0.61528   0.33951   0.00000  Uiso   1.00
N283   N     0.21995   0.38682   0.30855   0.00000  Uiso   1.00
H284   H     0.21273   0.37951   0.34080   0.00000  Uiso   1.00
H285   H     0.25008   0.37637   0.30411   0.00000  Uiso   1.00
N286   N     0.11227   0.61221   0.19311   0.00000  Uiso   1.00
H287   H     0.11825   0.61868   0.16037   0.00000  Uiso   1.00
H288   H     0.08211   0.62173   0.19877   0.00000  Uiso   1.00
N289   N     0.19517   0.58083   0.11880   0.00000  Uiso   1.00
H290   H     0.22523   0.58834   0.11002   0.00000  Uiso   1.00
H291   H     0.17673   0.60845   0.10920   0.00000  Uiso   1.00
N292   N     0.10015   0.45686   0.37686   0.00000  Uiso   1.00
H293   H     0.07261   0.47182   0.38546   0.00000  Uiso   1.00
H294   H     0.09886   0.42197   0.38527   0.00000  Uiso   1.00
N295   N     0.23288   0.54410   0.38811   0.00000  Uiso   1.00
H296   H     0.23588   0.57873   0.39910   0.00000  Uiso   1.00
H297   H     0.25934   0.52725   0.39969   0.00000  Uiso   1.00
N298   N     0.14409   0.41696   0.11022   0.00000  Uiso   1.00
H299   H     0.16380   0.39090   0.10055   0.00000  Uiso   1.00
H300   H     0.11422   0.40781   0.09773   0.00000  Uiso   1.00
N301   N     0.03876   0.44749   0.18372   0.00000  Uiso   1.00
H302   H     0.02910   0.41272   0.18442   0.00000  Uiso   1.00
H303   H     0.02967   0.46051   0.15297   0.00000  Uiso   1.00
N304   N     0.29521   0.55428   0.31432   0.00000  Uiso   1.00
H305   H     0.30405   0.58912   0.31166   0.00000  Uiso   1.00
H306   H     0.30577   0.54321   0.34532   0.00000  Uiso   1.00
N307   N     0.28368   0.44820   0.18453   0.00000  Uiso   1.00
H308   H     0.29056   0.45956   0.15332   0.00000  Uiso   1.00
H309   H     0.29033   0.41304   0.18656   0.00000  Uiso   1.00
N310   N     0.04988   0.55278   0.31394   0.00000  Uiso   1.00
H311   H     0.04327   0.54174   0.34532   0.00000  Uiso   1.00
H312   H     0.04314   0.58790   0.31160   0.00000  Uiso   1.00
C313   C     0.42088   0.49956   0.24929   0.00000  Uiso   1.00
C314   C     0.57918   0.50045   0.25031   0.00000  Uiso   1.00
C315   C     0.50047   0.49958   0.16486   0.00000  Uiso   1.00
C316   C     0.49999   0.50051   0.33470   0.00000  Uiso   1.00
C317   C     0.47295   0.35571   0.22207   0.00000  Uiso   1.00
C318   C     0.52461   0.64424   0.28002   0.00000  Uiso   1.00
C319   C     0.52589   0.36017   0.27854   0.00000  Uiso   1.00
C320   C     0.47376   0.63954   0.22178   0.00000  Uiso   1.00
C321   C     0.35230   0.47308   0.21733   0.00000  Uiso   1.00
C322   C     0.64800   0.52762   0.28132   0.00000  Uiso   1.00
C323   C     0.64244   0.47387   0.21744   0.00000  Uiso   1.00
C324   C     0.35778   0.52665   0.28133   0.00000  Uiso   1.00
C325   C     0.51223   0.54033   0.04842   0.00000  Uiso   1.00
C326   C     0.46675   0.47951   0.44901   0.00000  Uiso   1.00
C327   C     0.53161   0.52319   0.45428   0.00000  Uiso   1.00
C328   C     0.48900   0.46014   0.04429   0.00000  Uiso   1.00
C329   C     0.51367   0.53994   0.09443   0.00000  Uiso   1.00
C330   C     0.46675   0.47927   0.40297   0.00000  Uiso   1.00
C331   C     0.53185   0.52349   0.40839   0.00000  Uiso   1.00
C332   C     0.48957   0.45905   0.09026   0.00000  Uiso   1.00
C333   C     0.50143   0.49929   0.11609   0.00000  Uiso   1.00
C334   C     0.49934   0.50153   0.38263   0.00000  Uiso   1.00
C335   C     0.49981   0.50069   0.02321   0.00000  Uiso   1.00
C336   C     0.49920   0.50133   0.47481   0.00000  Uiso   1.00
C337   C     0.62390   0.50105   0.24955   0.00000  Uiso   1.00
C338   C     0.37626   0.49912   0.24958   0.00000  Uiso   1.00
Cu339  Cu    0.50000   0.54689   0.25000   0.00000  Uiso   1.00
Cu340  Cu    0.50000   0.45311   0.25000   0.00000  Uiso   1.00
H341   H     0.52078   0.57198   0.03242   0.00000  Uiso   1.00
H342   H     0.44125   0.46292   0.46451   0.00000  Uiso   1.00
H343   H     0.55741   0.53912   0.47381   0.00000  Uiso   1.00
H344   H     0.48027   0.42889   0.02505   0.00000  Uiso   1.00
N345   N     0.50000   0.61736   0.25000   0.00000  Uiso   1.00
N346   N     0.50000   0.38264   0.25000   0.00000  Uiso   1.00
O347   O     0.43988   0.53958   0.25000   0.00000  Uiso   1.00
O348   O     0.56012   0.46042   0.25001   0.00000  Uiso   1.00
O349   O     0.56012   0.53958   0.25001   0.00000  Uiso   1.00
O350   O     0.43988   0.46042   0.25000   0.00000  Uiso   1.00
O351   O     0.50000   0.53959   0.18573   0.00000  Uiso   1.00
O352   O     0.50000   0.46041   0.31427   0.00000  Uiso   1.00
O353   O     0.50000   0.53959   0.31427   0.00000  Uiso   1.00
O354   O     0.50000   0.46041   0.18573   0.00000  Uiso   1.00
N355   N     0.44093   0.37596   0.19494   0.00000  Uiso   1.00
H356   H     0.44633   0.41089   0.19172   0.00000  Uiso   1.00
H357   H     0.44197   0.36232   0.16288   0.00000  Uiso   1.00
N358   N     0.54649   0.62416   0.31656   0.00000  Uiso   1.00
H359   H     0.56132   0.59492   0.30611   0.00000  Uiso   1.00
H360   H     0.52513   0.61528   0.33951   0.00000  Uiso   1.00
N361   N     0.55329   0.38682   0.30855   0.00000  Uiso   1.00
H362   H     0.54606   0.37951   0.34080   0.00000  Uiso   1.00
H363   H     0.58342   0.37637   0.30411   0.00000  Uiso   1.00
N364   N     0.44560   0.61221   0.19311   0.00000  Uiso   1.00
H365   H     0.45159   0.61868   0.16037   0.00000  Uiso   1.00
H366   H     0.41545   0.62173   0.19877   0.00000  Uiso   1.00
N367   N     0.52851   0.58083   0.11880   0.00000  Uiso   1.00
H368   H     0.55857   0.58834   0.11002   0.00000  Uiso   1.00
H369   H     0.51006   0.60845   0.10920   0.00000  Uiso   1.00
N370   N     0.43348   0.45686   0.37686   0.00000  Uiso   1.00
H371   H     0.40594   0.47182   0.38546   0.00000  Uiso   1.00
H372   H     0.43219   0.42197   0.38527   0.00000  Uiso   1.00
N373   N     0.56621   0.54410   0.38811   0.00000  Uiso   1.00
H374   H     0.56921   0.57873   0.39910   0.00000  Uiso   1.00
H375   H     0.59267   0.52725   0.39969   0.00000  Uiso   1.00
N376   N     0.47742   0.41696   0.11022   0.00000  Uiso   1.00
H377   H     0.49713   0.39090   0.10055   0.00000  Uiso   1.00
H378   H     0.44755   0.40781   0.09773   0.00000  Uiso   1.00
N379   N     0.37210   0.44749   0.18372   0.00000  Uiso   1.00
H380   H     0.36244   0.41272   0.18442   0.00000  Uiso   1.00
H381   H     0.36300   0.46051   0.15297   0.00000  Uiso   1.00
N382   N     0.62854   0.55428   0.31432   0.00000  Uiso   1.00
H383   H     0.63738   0.58912   0.31166   0.00000  Uiso   1.00
H384   H     0.63911   0.54321   0.34532   0.00000  Uiso   1.00
N385   N     0.61702   0.44820   0.18453   0.00000  Uiso   1.00
H386   H     0.62390   0.45956   0.15332   0.00000  Uiso   1.00
H387   H     0.62367   0.41304   0.18656   0.00000  Uiso   1.00
N388   N     0.38321   0.55278   0.31394   0.00000  Uiso   1.00
H389   H     0.37661   0.54174   0.34532   0.00000  Uiso   1.00
H390   H     0.37647   0.58790   0.31160   0.00000  Uiso   1.00
C391   C     0.75421   0.49956   0.24929   0.00000  Uiso   1.00
C392   C     0.91251   0.50045   0.25031   0.00000  Uiso   1.00
C393   C     0.83381   0.49958   0.16486   0.00000  Uiso   1.00
C394   C     0.83332   0.50051   0.33470   0.00000  Uiso   1.00
C395   C     0.80629   0.35571   0.22207   0.00000  Uiso   1.00
C396   C     0.85794   0.64424   0.28002   0.00000  Uiso   1.00
C397   C     0.85922   0.36017   0.27854   0.00000  Uiso   1.00
C398   C     0.80709   0.63954   0.22178   0.00000  Uiso   1.00
C399   C     0.68564   0.47308   0.21733   0.00000  Uiso   1.00
C400   C     0.98134   0.52762   0.28132   0.00000  Uiso   1.00
C401   C     0.97577   0.47387   0.21744   0.00000  Uiso   1.00
C402   C     0.69112   0.52665   0.28133   0.00000  Uiso   1.00
C403   C     0.84556   0.54033   0.04842   0.00000  Uiso   1.00
C404   C     0.80008   0.47951   0.44901   0.00000  Uiso   1.00
C405   C     0.86495   0.52319   0.45428   0.00000  Uiso   1.00
C406   C     0.82233   0.46014   0.04429   0.00000  Uiso   1.00
C407   C     0.84700   0.53994   0.09443   0.00000  Uiso   1.00
C408   C     0.80008   0.47927   0.40297   0.00000  Uiso   1.00
C409   C     0.86518   0.52349   0.40839   0.00000  Uiso   1.00
C410   C     0.82290   0.45905   0.09026   0.00000  Uiso   1.00
C411   C     0.83476   0.49929   0.11609   0.00000  Uiso   1.00
C412   C     0.83267   0.50153   0.38263   0.00000  Uiso   1.00
C413   C     0.83315   0.50069   0.02321   0.00000  Uiso   1.00
C414   C     0.83253   0.50133   0.47481   0.00000  Uiso   1.00
C415   C     0.95723   0.50105   0.24955   0.00000  Uiso   1.00
C416   C     0.70960   0.49912   0.24958   0.00000  Uiso   1.00
Cu417  Cu    0.83333   0.54689   0.25000   0.00000  Uiso   1.00
Cu418  Cu    0.83333   0.45311   0.25000   0.00000  Uiso   1.00
H419   H     0.85411   0.57198   0.03242   0.00000  Uiso   1.00
H420   H     0.77458   0.46292   0.46451   0.00000  Uiso   1.00
H421   H     0.89074   0.53912   0.47381   0.00000  Uiso   1.00
H422   H     0.81360   0.42889   0.02505   0.00000  Uiso   1.00
N423   N     0.83333   0.61736   0.25000   0.00000  Uiso   1.00
N424   N     0.83333   0.38264   0.25000   0.00000  Uiso   1.00
O425   O     0.77321   0.53958   0.25000   0.00000  Uiso   1.00
O426   O     0.89345   0.46042   0.25001   0.00000  Uiso   1.00
O427   O     0.89345   0.53958   0.25001   0.00000  Uiso   1.00
O428   O     0.77321   0.46042   0.25000   0.00000  Uiso   1.00
O429   O     0.83333   0.53959   0.18573   0.00000  Uiso   1.00
O430   O     0.83334   0.46041   0.31427   0.00000  Uiso   1.00
O431   O     0.83334   0.53959   0.31427   0.00000  Uiso   1.00
O432   O     0.83333   0.46041   0.18573   0.00000  Uiso   1.00
N433   N     0.77426   0.37596   0.19494   0.00000  Uiso   1.00
H434   H     0.77966   0.41089   0.19172   0.00000  Uiso   1.00
H435   H     0.77531   0.36232   0.16288   0.00000  Uiso   1.00
N436   N     0.87982   0.62416   0.31656   0.00000  Uiso   1.00
H437   H     0.89466   0.59492   0.30611   0.00000  Uiso   1.00
H438   H     0.85846   0.61528   0.33951   0.00000  Uiso   1.00
N439   N     0.88662   0.38682   0.30855   0.00000  Uiso   1.00
H440   H     0.87940   0.37951   0.34080   0.00000  Uiso   1.00
H441   H     0.91675   0.37637   0.30411   0.00000  Uiso   1.00
N442   N     0.77893   0.61221   0.19311   0.00000  Uiso   1.00
H443   H     0.78492   0.61868   0.16037   0.00000  Uiso   1.00
H444   H     0.74878   0.62173   0.19877   0.00000  Uiso   1.00
N445   N     0.86184   0.58083   0.11880   0.00000  Uiso   1.00
H446   H     0.89190   0.58834   0.11002   0.00000  Uiso   1.00
H447   H     0.84340   0.60845   0.10920   0.00000  Uiso   1.00
N448   N     0.76681   0.45686   0.37686   0.00000  Uiso   1.00
H449   H     0.73928   0.47182   0.38546   0.00000  Uiso   1.00
H450   H     0.76552   0.42197   0.38527   0.00000  Uiso   1.00
N451   N     0.89954   0.54410   0.38811   0.00000  Uiso   1.00
H452   H     0.90255   0.57873   0.39910   0.00000  Uiso   1.00
H453   H     0.92601   0.52725   0.39969   0.00000  Uiso   1.00
N454   N     0.81075   0.41696   0.11022   0.00000  Uiso   1.00
H455   H     0.83046   0.39090   0.10055   0.00000  Uiso   1.00
H456   H     0.78089   0.40781   0.09773   0.00000  Uiso   1.00
N457   N     0.70543   0.44749   0.18372   0.00000  Uiso   1.00
H458   H     0.69577   0.41272   0.18442   0.00000  Uiso   1.00
H459   H     0.69633   0.46051   0.15297   0.00000  Uiso   1.00
N460   N     0.96188   0.55428   0.31432   0.00000  Uiso   1.00
H461   H     0.97072   0.58912   0.31166   0.00000  Uiso   1.00
H462   H     0.97244   0.54321   0.34532   0.00000  Uiso   1.00
N463   N     0.95035   0.44820   0.18453   0.00000  Uiso   1.00
H464   H     0.95723   0.45956   0.15332   0.00000  Uiso   1.00
H465   H     0.95700   0.41304   0.18656   0.00000  Uiso   1.00
N466   N     0.71655   0.55278   0.31394   0.00000  Uiso   1.00
H467   H     0.70994   0.54174   0.34532   0.00000  Uiso   1.00
H468   H     0.70980   0.58790   0.31160   0.00000  Uiso   1.00
C469   C     0.08755   0.83289   0.24929   0.00000  Uiso   1.00
C470   C     0.24585   0.83378   0.25031   0.00000  Uiso   1.00
C471   C     0.16714   0.83292   0.16486   0.00000  Uiso   1.00
C472   C     0.16665   0.83385   0.33470   0.00000  Uiso   1.00
C473   C     0.13962   0.68904   0.22207   0.00000  Uiso   1.00
C474   C     0.19127   0.97758   0.28002   0.00000  Uiso   1.00
C475   C     0.19255   0.69350   0.27854   0.00000  Uiso   1.00
C476   C     0.14042   0.97288   0.22178   0.00000  Uiso   1.00
C477   C     0.01897   0.80641   0.21733   0.00000  Uiso   1.00
C478   C     0.31467   0.86095   0.28132   0.00000  Uiso   1.00
C479   C     0.30910   0.80721   0.21744   0.00000  Uiso   1.00
C480   C     0.02445   0.85998   0.28133   0.00000  Uiso   1.00
C481   C     0.17889   0.87366   0.04842   0.00000  Uiso   1.00
C482   C     0.13341   0.81285   0.44901   0.00000  Uiso   1.00
C483   C     0.19828   0.85653   0.45428   0.00000  Uiso   1.00
C484   C     0.15567   0.79347   0.04429   0.00000  Uiso   1.00
C485   C     0.18033   0.87327   0.09443   0.00000  Uiso   1.00
C486   C     0.13342   0.81260   0.40297   0.00000  Uiso   1.00
C487   C     0.19851   0.85683   0.40839   0.00000  Uiso   1.00
C488   C     0.15624   0.79239   0.09026   0.00000  Uiso   1.00
C489   C     0.16809   0.83262   0.11609   0.00000  Uiso   1.00
C490   C     0.16601   0.83486   0.38263   0.00000  Uiso   1.00
C491   C     0.16648   0.83402   0.02321   0.00000  Uiso   1.00
C492   C     0.16587   0.83466   0.47481   0.00000  Uiso   1.00
C493   C     0.29057   0.83438   0.24955   0.00000  Uiso   1.00
C494   C     0.04293   0.83246   0.24958   0.00000  Uiso   1.00
Cu495  Cu    0.16667   0.88022   0.25000   0.00000  Uiso   1.00
Cu496  Cu    0.16667   0.78645   0.25000   0.00000  Uiso   1.00
H497   H     0.18745   0.90531   0.03242   0.00000  Uiso   1.00
H498   H     0.10792   0.79625   0.46451   0.00000  Uiso   1.00
H499   H     0.22408   0.87245   0.47381   0.00000  Uiso   1.00
H500   H     0.14694   0.76222   0.02505   0.00000  Uiso   1.00
N501   N     0.16667   0.95069   0.25000   0.00000  Uiso   1.00
N502   N     0.16667   0.71598   0.25000   0.00000  Uiso   1.00
O503   O     0.10655   0.87291   0.25000   0.00000  Uiso   1.00
O504   O     0.22679   0.79375   0.25001   0.00000  Uiso   1.00
O505   O     0.22679   0.87291   0.25001   0.00000  Uiso   1.00
O506   O     0.10655   0.79375   0.25000   0.00000  Uiso   1.00
O507   O     0.16666   0.87293   0.18573   0.00000  Uiso   1.00
O508   O     0.16667   0.79374   0.31427   0.00000  Uiso   1.00
O509   O     0.16667   0.87293   0.31427   0.00000  Uiso   1.00
O510   O     0.16666   0.79374   0.18573   0.00000  Uiso   1.00
N511   N     0.10760   0.70930   0.19494   0.00000  Uiso   1.00
H512   H     0.11299   0.74422   0.19172   0.00000  Uiso   1.00
H513   H     0.10864   0.69565   0.16288   0.00000  Uiso   1.00
N514   N     0.21316   0.95749   0.31656   0.00000  Uiso   1.00
H515   H     0.22799   0.92826   0.30611   0.00000  Uiso   1.00
H516   H     0.19179   0.94861   0.33951   0.00000  Uiso   1.00
N517   N     0.21995   0.72016   0.30855   0.00000  Uiso   1.00
H518   H     0.21273   0.71285   0.34080   0.00000  Uiso   1.00
H519   H     0.25008   0.70970   0.30411   0.00000  Uiso   1.00
N520   N     0.11227   0.94554   0.19311   0.00000  Uiso   1.00
H521   H     0.11825   0.95201   0.16037   0.00000  Uiso   1.00
H522   H     0.08211   0.95507   0.19877   0.00000  Uiso   1.00
N523   N     0.19517   0.91417   0.11880   0.00000  Uiso   1.00
H524   H     0.22523   0.92167   0.11002   0.00000  Uiso   1.00
H525   H     0.17673   0.94178   0.10920   0.00000  Uiso   1.00
N526   N     0.10015   0.79019   0.37686   0.00000  Uiso   1.00
H527   H     0.07261   0.80515   0.38546   0.00000  Uiso   1.00
H528   H     0.09886   0.75531   0.38527   0.00000  Uiso   1.00
N529   N     0.23288   0.87743   0.38811   0.00000  Uiso   1.00
H530   H     0.23588   0.91206   0.39910   0.00000  Uiso   1.00
H531   H     0.25934   0.86058   0.39969   0.00000  Uiso   1.00
N532   N     0.14409   0.75030   0.11022   0.00000  Uiso   1.00
H533   H     0.16380   0.72424   0.10055   0.00000  Uiso   1.00
H534   H     0.11422   0.74114   0.09773   0.00000  Uiso   1.00
N535   N     0.03876   0.78082   0.18372   0.00000  Uiso   1.00
H536   H     0.02910   0.74605   0.18442   0.00000  Uiso   1.00
H537   H     0.02967   0.79384   0.15297   0.00000  Uiso   1.00
N538   N     0.29521   0.88761   0.31432   0.00000  Uiso   1.00
H539   H     0.30405   0.92245   0.31166   0.00000  Uiso   1.00
H540   H     0.30577   0.87654   0.34532   0.00000  Uiso   1.00
N541   N     0.28368   0.78154   0.18453   0.00000  Uiso   1.00
H542   H     0.29056   0.79289   0.15332   0.00000  Uiso   1.00
H543   H     0.29033   0.74637   0.18656   0.00000  Uiso   1.00
N544   N     0.04988   0.88612   0.31394   0.00000  Uiso   1.00
H545   H     0.04327   0.87508   0.34532   0.00000  Uiso   1.00
H546   H     0.04314   0.92123   0.31160   0.00000  Uiso   1.00
C547   C     0.42088   0.83289   0.24929   0.00000  Uiso   1.00
C548   C     0.57918   0.83378   0.25031   0.00000  Uiso   1.00
C549   C     0.50047   0.83292   0.16486   0.00000  Uiso   1.00
C550   C     0.49999   0.83385   0.33470   0.00000  Uiso   1.00
C551   C     0.47295   0.68904   0.22207   0.00000  Uiso   1.00
C552   C     0.52461   0.97758   0.28002   0.00000  Uiso   1.00
C553   C     0.52589   0.69350   0.27854   0.00000  Uiso   1.00
C554   C     0.47376   0.97288   0.22178   0.00000  Uiso   1.00
C555   C     0.35230   0.80641   0.21733   0.00000  Uiso   1.00
C556   C     0.64800   0.86095   0.28132   0.00000  Uiso   1.00
C557   C     0.64244   0.80721   0.21744   0.00000  Uiso   1.00
C558   C     0.35778   0.85998   0.28133   0.00000  Uiso   1.00
C559   C     0.51223   0.87366   0.04842   0.00000  Uiso   1.00
C560   C     0.46675   0.81285   0.44901   0.00000  Uiso   1.00
C561   C     0.53161   0.85653   0.45428   0.00000  Uiso   1.00
C562   C     0.48900   0.79347   0.04429   0.00000  Uiso   1.00
C563   C     0.51367   0.87327   0.09443   0.00000  Uiso   1.00
C564   C     0.46675   0.81260   0.40297   0.00000  Uiso   1.00
C565   C     0.53185   0.85683   0.40839   0.00000  Uiso   1.00
C566   C     0.48957   0.79239   0.09026   0.00000  Uiso   1.00
C567   C     0.50143   0.83262   0.11609   0.00000  Uiso   1.00
C568   C     0.49934   0.83486   0.38263   0.00000  Uiso   1.00
C569   C     0.49981   0.83402   0.02321   0.00000  Uiso   1.00
C570   C     0.49920   0.83466   0.47481   0.00000  Uiso   1.00
C571   C     0.62390   0.83438   0.24955   0.00000  Uiso   1.00
C572   C     0.37626   0.83246   0.24958   0.00000  Uiso   1.00
Cu573  Cu    0.50000   0.88022   0.25000   0.00000  Uiso   1.00
Cu574  Cu    0.50000   0.78645   0.25000   0.00000  Uiso   1.00
H575   H     0.52078   0.90531   0.03242   0.00000  Uiso   1.00
H576   H     0.44125   0.79625   0.46451   0.00000  Uiso   1.00
H577   H     0.55741   0.87245   0.47381   0.00000  Uiso   1.00
H578   H     0.48027   0.76222   0.02505   0.00000  Uiso   1.00
N579   N     0.50000   0.95069   0.25000   0.00000  Uiso   1.00
N580   N     0.50000   0.71598   0.25000   0.00000  Uiso   1.00
O581   O     0.43988   0.87291   0.25000   0.00000  Uiso   1.00
O582   O     0.56012   0.79375   0.25001   0.00000  Uiso   1.00
O583   O     0.56012   0.87291   0.25001   0.00000  Uiso   1.00
O584   O     0.43988   0.79375   0.25000   0.00000  Uiso   1.00
O585   O     0.50000   0.87293   0.18573   0.00000  Uiso   1.00
O586   O     0.50000   0.79374   0.31427   0.00000  Uiso   1.00
O587   O     0.50000   0.87293   0.31427   0.00000  Uiso   1.00
O588   O     0.50000   0.79374   0.18573   0.00000  Uiso   1.00
N589   N     0.44093   0.70930   0.19494   0.00000  Uiso   1.00
H590   H     0.44633   0.74422   0.19172   0.00000  Uiso   1.00
H591   H     0.44197   0.69565   0.16288   0.00000  Uiso   1.00
N592   N     0.54649   0.95749   0.31656   0.00000  Uiso   1.00
H593   H     0.56132   0.92826   0.30611   0.00000  Uiso   1.00
H594   H     0.52513   0.94861   0.33951   0.00000  Uiso   1.00
N595   N     0.55329   0.72016   0.30855   0.00000  Uiso   1.00
H596   H     0.54606   0.71285   0.34080   0.00000  Uiso   1.00
H597   H     0.58342   0.70970   0.30411   0.00000  Uiso   1.00
N598   N     0.44560   0.94554   0.19311   0.00000  Uiso   1.00
H599   H     0.45159   0.95201   0.16037   0.00000  Uiso   1.00
H600   H     0.41545   0.95507   0.19877   0.00000  Uiso   1.00
N601   N     0.52851   0.91417   0.11880   0.00000  Uiso   1.00
H602   H     0.55857   0.92167   0.11002   0.00000  Uiso   1.00
H603   H     0.51006   0.94178   0.10920   0.00000  Uiso   1.00
N604   N     0.43348   0.79019   0.37686   0.00000  Uiso   1.00
H605   H     0.40594   0.80515   0.38546   0.00000  Uiso   1.00
H606   H     0.43219   0.75531   0.38527   0.00000  Uiso   1.00
N607   N     0.56621   0.87743   0.38811   0.00000  Uiso   1.00
H608   H     0.56921   0.91206   0.39910   0.00000  Uiso   1.00
H609   H     0.59267   0.86058   0.39969   0.00000  Uiso   1.00
N610   N     0.47742   0.75030   0.11022   0.00000  Uiso   1.00
H611   H     0.49713   0.72424   0.10055   0.00000  Uiso   1.00
H612   H     0.44755   0.74114   0.09773   0.00000  Uiso   1.00
N613   N     0.37210   0.78082   0.18372   0.00000  Uiso   1.00
H614   H     0.36244   0.74605   0.18442   0.00000  Uiso   1.00
H615   H     0.36300   0.79384   0.15297   0.00000  Uiso   1.00
N616   N     0.62854   0.88761   0.31432   0.00000  Uiso   1.00
H617   H     0.63738   0.92245   0.31166   0.00000  Uiso   1.00
H618   H     0.63911   0.87654   0.34532   0.00000  Uiso   1.00
N619   N     0.61702   0.78154   0.18453   0.00000  Uiso   1.00
H620   H     0.62390   0.79289   0.15332   0.00000  Uiso   1.00
H621   H     0.62367   0.74637   0.18656   0.00000  Uiso   1.00
N622   N     0.38321   0.88612   0.31394   0.00000  Uiso   1.00
H623   H     0.37661   0.87508   0.34532   0.00000  Uiso   1.00
H624   H     0.37647   0.92123   0.31160   0.00000  Uiso   1.00
C625   C     0.75421   0.83289   0.24929   0.00000  Uiso   1.00
C626   C     0.91251   0.83378   0.25031   0.00000  Uiso   1.00
C627   C     0.83381   0.83292   0.16486   0.00000  Uiso   1.00
C628   C     0.83332   0.83385   0.33470   0.00000  Uiso   1.00
C629   C     0.80629   0.68904   0.22207   0.00000  Uiso   1.00
C630   C     0.85794   0.97758   0.28002   0.00000  Uiso   1.00
C631   C     0.85922   0.69350   0.27854   0.00000  Uiso   1.00
C632   C     0.80709   0.97288   0.22178   0.00000  Uiso   1.00
C633   C     0.68564   0.80641   0.21733   0.00000  Uiso   1.00
C634   C     0.98134   0.86095   0.28132   0.00000  Uiso   1.00
C635   C     0.97577   0.80721   0.21744   0.00000  Uiso   1.00
C636   C     0.69112   0.85998   0.28133   0.00000  Uiso   1.00
C637   C     0.84556   0.87366   0.04842   0.00000  Uiso   1.00
C638   C     0.80008   0.81285   0.44901   0.00000  Uiso   1.00
C639   C     0.86495   0.85653   0.45428   0.00000  Uiso   1.00
C640   C     0.82233   0.79347   0.04429   0.00000  Uiso   1.00
C641   C     0.84700   0.87327   0.09443   0.00000  Uiso   1.00
C642   C     0.80008   0.81260   0.40297   0.00000  Uiso   1.00
C643   C     0.86518   0.85683   0.40839   0.00000  Uiso   1.00
C644   C     0.82290   0.79239   0.09026   0.00000  Uiso   1.00
C645   C     0.83476   0.83262   0.11609   0.00000  Uiso   1.00
C646   C     0.83267   0.83486   0.38263   0.00000  Uiso   1.00
C647   C     0.83315   0.83402   0.02321   0.00000  Uiso   1.00
C648   C     0.83253   0.83466   0.47481   0.00000  Uiso   1.00
C649   C     0.95723   0.83438   0.24955   0.00000  Uiso   1.00
C650   C     0.70960   0.83246   0.24958   0.00000  Uiso   1.00
Cu651  Cu    0.83333   0.88022   0.25000   0.00000  Uiso   1.00
Cu652  Cu    0.83333   0.78645   0.25000   0.00000  Uiso   1.00
H653   H     0.85411   0.90531   0.03242   0.00000  Uiso   1.00
H654   H     0.77458   0.79625   0.46451   0.00000  Uiso   1.00
H655   H     0.89074   0.87245   0.47381   0.00000  Uiso   1.00
H656   H     0.81360   0.76222   0.02505   0.00000  Uiso   1.00
N657   N     0.83333   0.95069   0.25000   0.00000  Uiso   1.00
N658   N     0.83333   0.71598   0.25000   0.00000  Uiso   1.00
O659   O     0.77321   0.87291   0.25000   0.00000  Uiso   1.00
O660   O     0.89345   0.79375   0.25001   0.00000  Uiso   1.00
O661   O     0.89345   0.87291   0.25001   0.00000  Uiso   1.00
O662   O     0.77321   0.79375   0.25000   0.00000  Uiso   1.00
O663   O     0.83333   0.87293   0.18573   0.00000  Uiso   1.00
O664   O     0.83334   0.79374   0.31427   0.00000  Uiso   1.00
O665   O     0.83334   0.87293   0.31427   0.00000  Uiso   1.00
O666   O     0.83333   0.79374   0.18573   0.00000  Uiso   1.00
N667   N     0.77426   0.70930   0.19494   0.00000  Uiso   1.00
H668   H     0.77966   0.74422   0.19172   0.00000  Uiso   1.00
H669   H     0.77531   0.69565   0.16288   0.00000  Uiso   1.00
N670   N     0.87982   0.95749   0.31656   0.00000  Uiso   1.00
H671   H     0.89466   0.92826   0.30611   0.00000  Uiso   1.00
H672   H     0.85846   0.94861   0.33951   0.00000  Uiso   1.00
N673   N     0.88662   0.72016   0.30855   0.00000  Uiso   1.00
H674   H     0.87940   0.71285   0.34080   0.00000  Uiso   1.00
H675   H     0.91675   0.70970   0.30411   0.00000  Uiso   1.00
N676   N     0.77893   0.94554   0.19311   0.00000  Uiso   1.00
H677   H     0.78492   0.95201   0.16037   0.00000  Uiso   1.00
H678   H     0.74878   0.95507   0.19877   0.00000  Uiso   1.00
N679   N     0.86184   0.91417   0.11880   0.00000  Uiso   1.00
H680   H     0.89190   0.92167   0.11002   0.00000  Uiso   1.00
H681   H     0.84340   0.94178   0.10920   0.00000  Uiso   1.00
N682   N     0.76681   0.79019   0.37686   0.00000  Uiso   1.00
H683   H     0.73928   0.80515   0.38546   0.00000  Uiso   1.00
H684   H     0.76552   0.75531   0.38527   0.00000  Uiso   1.00
N685   N     0.89954   0.87743   0.38811   0.00000  Uiso   1.00
H686   H     0.90255   0.91206   0.39910   0.00000  Uiso   1.00
H687   H     0.92601   0.86058   0.39969   0.00000  Uiso   1.00
N688   N     0.81075   0.75030   0.11022   0.00000  Uiso   1.00
H689   H     0.83046   0.72424   0.10055   0.00000  Uiso   1.00
H690   H     0.78089   0.74114   0.09773   0.00000  Uiso   1.00
N691   N     0.70543   0.78082   0.18372   0.00000  Uiso   1.00
H692   H     0.69577   0.74605   0.18442   0.00000  Uiso   1.00
H693   H     0.69633   0.79384   0.15297   0.00000  Uiso   1.00
N694   N     0.96188   0.88761   0.31432   0.00000  Uiso   1.00
H695   H     0.97072   0.92245   0.31166   0.00000  Uiso   1.00
H696   H     0.97244   0.87654   0.34532   0.00000  Uiso   1.00
N697   N     0.95035   0.78154   0.18453   0.00000  Uiso   1.00
H698   H     0.95723   0.79289   0.15332   0.00000  Uiso   1.00
H699   H     0.95700   0.74637   0.18656   0.00000  Uiso   1.00
N700   N     0.71655   0.88612   0.31394   0.00000  Uiso   1.00
H701   H     0.70994   0.87508   0.34532   0.00000  Uiso   1.00
H702   H     0.70980   0.92123   0.31160   0.00000  Uiso   1.00
C703   C     0.08755   0.16623   0.74929   0.00000  Uiso   1.00
C704   C     0.24585   0.16711   0.75031   0.00000  Uiso   1.00
C705   C     0.16714   0.16625   0.66486   0.00000  Uiso   1.00
C706   C     0.16665   0.16718   0.83470   0.00000  Uiso   1.00
C707   C     0.13962   0.02238   0.72207   0.00000  Uiso   1.00
C708   C     0.19127   0.31091   0.78002   0.00000  Uiso   1.00
C709   C     0.19255   0.02683   0.77854   0.00000  Uiso   1.00
C710   C     0.14042   0.30621   0.72178   0.00000  Uiso   1.00
C711   C     0.01897   0.13974   0.71733   0.00000  Uiso   1.00
C712   C     0.31467   0.19429   0.78132   0.00000  Uiso   1.00
C713   C     0.30910   0.14054   0.71744   0.00000  Uiso   1.00
C714   C     0.02445   0.19332   0.78133   0.00000  Uiso   1.00
C715   C     0.17889   0.20699   0.54842   0.00000  Uiso   1.00
C716   C     0.13341   0.14618   0.94901   0.00000  Uiso   1.00
C717   C     0.19828   0.18986   0.95428   0.00000  Uiso   1.00
C718   C     0.15567   0.12680   0.54429   0.00000  Uiso   1.00
C719   C     0.18033   0.20661   0.59443   0.00000  Uiso   1.00
C720   C     0.13342   0.14593   0.90297   0.00000  Uiso   1.00
C721   C     0.19851   0.19016   0.90839   0.00000  Uiso   1.00
C722   C     0.15624   0.12572   0.59026   0.00000  Uiso   1.00
C723   C     0.16809   0.16595   0.61609   0.00000  Uiso   1.00
C724   C     0.16601   0.16820   0.88263   0.00000  Uiso   1.00
C725   C     0.16648   0.16736   0.52321   0.00000  Uiso   1.00
C726   C     0.16587   0.16800   0.97481   0.00000  Uiso   1.00
C727   C     0.29057   0.16771   0.74955   0.00000  Uiso   1.00
C728   C     0.04293   0.16579   0.74958   0.00000  Uiso   1.00
Cu729  Cu    0.16667   0.21355   0.75000   0.00000  Uiso   1.00
Cu730  Cu    0.16667   0.11978   0.75000   0.00000  Uiso   1.00
H731   H     0.18745   0.23864   0.53242   0.00000  Uiso   1.00
H732   H     0.10792   0.12959   0.96451   0.00000  Uiso   1.00
H733   H     0.22408   0.20579   0.97381   0.00000  Uiso   1.00
H734   H     0.14694   0.09555   0.52505   0.00000  Uiso   1.00
N735   N     0.16667   0.28402   0.75000   0.00000  Uiso   1.00
N736   N     0.16667   0.04931   0.75000   0.00000  Uiso   1.00
O737   O     0.10655   0.20625   0.75000   0.00000  Uiso   1.00
O738   O     0.22679   0.12709   0.75001   0.00000  Uiso   1.00
O739   O     0.22679   0.20625   0.75001   0.00000  Uiso   1.00
O740   O     0.10655   0.12709   0.75000   0.00000  Uiso   1.00
O741   O     0.16666   0.20626   0.68573   0.00000  Uiso   1.00
O742   O     0.16667   0.12707   0.81427   0.00000  Uiso   1.00
O743   O     0.16667   0.20626   0.81427   0.00000  Uiso   1.00
O744   O     0.16666   0.12707   0.68573   0.00000  Uiso   1.00
N745   N     0.10760   0.04263   0.69494   0.00000  Uiso   1.00
H746   H     0.11299   0.07755   0.69172   0.00000  Uiso   1.00
H747   H     0.10864   0.02898   0.66288   0.00000  Uiso   1.00
N748   N     0.21316   0.29083   0.81656   0.00000  Uiso   1.00
H749   H     0.22799   0.26159   0.80611   0.00000  Uiso   1.00
H750   H     0.19179   0.28195   0.83951   0.00000  Uiso   1.00
N751   N     0.21995   0.05349   0.80855   0.00000  Uiso   1.00
H752   H     0.21273   0.04618   0.84080   0.00000  Uiso   1.00
H753   H     0.25008   0.04303   0.80411   0.00000  Uiso   1.00
N754   N     0.11227   0.27887   0.69311   0.00000  Uiso   1.00
H755   H     0.11825   0.28535   0.66037   0.00000  Uiso   1.00
H756   H     0.08211   0.28840   0.69877   0.00000  Uiso   1.00
N757   N     0.19517   0.24750   0.61880   0.00000  Uiso   1.00
H758   H     0.22523   0.25501   0.61002   0.00000  Uiso   1.00
H759   H     0.17673   0.27511   0.60920   0.00000  Uiso   1.00
N760   N     0.10015   0.12353   0.87686   0.00000  Uiso   1.00
H761   H     0.07261   0.13849   0.88546   0.00000  Uiso   1.00
H762   H     0.09886   0.08864   0.88527   0.00000  Uiso   1.00
N763   N     0.23288   0.21076   0.88811   0.00000  Uiso   1.00
H764   H     0.23588   0.24540   0.89910   0.00000  Uiso   1.00
H765   H     0.25934   0.19391   0.89969   0.00000  Uiso   1.00
N766   N     0.14409   0.08363   0.61022   0.00000  Uiso   1.00
H767   H     0.16380   0.05757   0.60055   0.00000  Uiso   1.00
H768   H     0.11422   0.07447   0.59773   0.00000  Uiso   1.00
N769   N     0.03876   0.11415   0.68372   0.00000  Uiso   1.00
H770   H     0.02910   0.07939   0.68442   0.00000  Uiso   1.00
H771   H     0.02967   0.12717   0.65297   0.00000  Uiso   1.00
N772   N     0.29521   0.22095   0.81432   0.00000  Uiso   1.00
H773   H     0.30405   0.25578   0.81166   0.00000  Uiso   1.00
H774   H     0.30577   0.20987   0.84532   0.00000  Uiso   1.00
N775   N     0.28368   0.11487   0.68453   0.00000  Uiso   1.00
H776   H     0.29056   0.12623   0.65332   0.00000  Uiso   1.00
H777   H     0.29033   0.07971   0.68656   0.00000  Uiso   1.00
N778   N     0.04988   0.21945   0.81394   0.00000  Uiso   1.00
H779   H     0.04327   0.20841   0.84532   0.00000  Uiso   1.00
H780   H     0.04314   0.25456   0.81160   0.00000  Uiso   1.00
C781   C     0.42088   0.16623   0.74929   0.00000  Uiso   1.00
C782   C     0.57918   0.16711   0.75031   0.00000  Uiso   1.00
C783   C     0.50047   0.16625   0.66486   0.00000  Uiso   1.00
C784   C     0.49999   0.16718   0.83470   0.00000  Uiso   1.00
C785   C     0.47295   0.02238   0.72207   0.00000  Uiso   1.00
C786   C     0.52461   0.31091   0.78002   0.00000  Uiso   1.00
C787   C     0.52589   0.02683   0.77854   0.00000  Uiso   1.00
C788   C     0.47376   0.30621   0.72178   0.00000  Uiso   1.00
C789   C     0.35230   0.13974   0.71733   0.00000  Uiso   1.00
C790   C     0.64800   0.19429   0.78132   0.00000  Uiso   1.00
C791   C     0.64244   0.14054   0.71744   0.00000  Uiso   1.00
C792   C     0.35778   0.19332   0.78133   0.00000  Uiso   1.00
C793   C     0.51223   0.20699   0.54842   0.00000  Uiso   1.00
C794   C     0.46675   0.14618   0.94901   0.00000  Uiso   1.00
C795   C     0.53161   0.18986   0.95428   0.00000  Uiso   1.00
C796   C     0.48900   0.12680   0.54429   0.00000  Uiso   1.00
C797   C     0.51367   0.20661   0.59443   0.00000  Uiso   1.00
C798   C     0.46675   0.14593   0.90297   0.00000  Uiso   1.00
C799   C     0.53185   0.19016   0.90839   0.00000  Uiso   1.00
C800   C     0.48957   0.12572   0.59026   0.00000  Uiso   1.00
C801   C     0.50143   0.16595   0.61609   0.00000  Uiso   1.00
C802   C     0.49934   0.16820   0.88263   0.00000  Uiso   1.00
C803   C     0.49981   0.16736   0.52321   0.00000  Uiso   1.00
C804   C     0.49920   0.16800   0.97481   0.00000  Uiso   1.00
C805   C     0.62390   0.16771   0.74955   0.00000  Uiso   1.00
C806   C     0.37626   0.16579   0.74958   0.00000  Uiso   1.00
Cu807  Cu    0.50000   0.21355   0.75000   0.00000  Uiso   1.00
Cu808  Cu    0.50000   0.11978   0.75000   0.00000  Uiso   1.00
H809   H     0.52078   0.23864   0.53242   0.00000  Uiso   1.00
H810   H     0.44125   0.12959   0.96451   0.00000  Uiso   1.00
H811   H     0.55741   0.20579   0.97381   0.00000  Uiso   1.00
H812   H     0.48027   0.09555   0.52505   0.00000  Uiso   1.00
N813   N     0.50000   0.28402   0.75000   0.00000  Uiso   1.00
N814   N     0.50000   0.04931   0.75000   0.00000  Uiso   1.00
O815   O     0.43988   0.20625   0.75000   0.00000  Uiso   1.00
O816   O     0.56012   0.12709   0.75001   0.00000  Uiso   1.00
O817   O     0.56012   0.20625   0.75001   0.00000  Uiso   1.00
O818   O     0.43988   0.12709   0.75000   0.00000  Uiso   1.00
O819   O     0.50000   0.20626   0.68573   0.00000  Uiso   1.00
O820   O     0.50000   0.12707   0.81427   0.00000  Uiso   1.00
O821   O     0.50000   0.20626   0.81427   0.00000  Uiso   1.00
O822   O     0.50000   0.12707   0.68573   0.00000  Uiso   1.00
N823   N     0.44093   0.04263   0.69494   0.00000  Uiso   1.00
H824   H     0.44633   0.07755   0.69172   0.00000  Uiso   1.00
H825   H     0.44197   0.02898   0.66288   0.00000  Uiso   1.00
N826   N     0.54649   0.29083   0.81656   0.00000  Uiso   1.00
H827   H     0.56132   0.26159   0.80611   0.00000  Uiso   1.00
H828   H     0.52513   0.28195   0.83951   0.00000  Uiso   1.00
N829   N     0.55329   0.05349   0.80855   0.00000  Uiso   1.00
H830   H     0.54606   0.04618   0.84080   0.00000  Uiso   1.00
H831   H     0.58342   0.04303   0.80411   0.00000  Uiso   1.00
N832   N     0.44560   0.27887   0.69311   0.00000  Uiso   1.00
H833   H     0.45159   0.28535   0.66037   0.00000  Uiso   1.00
H834   H     0.41545   0.28840   0.69877   0.00000  Uiso   1.00
N835   N     0.52851   0.24750   0.61880   0.00000  Uiso   1.00
H836   H     0.55857   0.25501   0.61002   0.00000  Uiso   1.00
H837   H     0.51006   0.27511   0.60920   0.00000  Uiso   1.00
N838   N     0.43348   0.12353   0.87686   0.00000  Uiso   1.00
H839   H     0.40594   0.13849   0.88546   0.00000  Uiso   1.00
H840   H     0.43219   0.08864   0.88527   0.00000  Uiso   1.00
N841   N     0.56621   0.21076   0.88811   0.00000  Uiso   1.00
H842   H     0.56921   0.24540   0.89910   0.00000  Uiso   1.00
H843   H     0.59267   0.19391   0.89969   0.00000  Uiso   1.00
N844   N     0.47742   0.08363   0.61022   0.00000  Uiso   1.00
H845   H     0.49713   0.05757   0.60055   0.00000  Uiso   1.00
H846   H     0.44755   0.07447   0.59773   0.00000  Uiso   1.00
N847   N     0.37210   0.11415   0.68372   0.00000  Uiso   1.00
H848   H     0.36244   0.07939   0.68442   0.00000  Uiso   1.00
H849   H     0.36300   0.12717   0.65297   0.00000  Uiso   1.00
N850   N     0.62854   0.22095   0.81432   0.00000  Uiso   1.00
H851   H     0.63738   0.25578   0.81166   0.00000  Uiso   1.00
H852   H     0.63911   0.20987   0.84532   0.00000  Uiso   1.00
N853   N     0.61702   0.11487   0.68453   0.00000  Uiso   1.00
H854   H     0.62390   0.12623   0.65332   0.00000  Uiso   1.00
H855   H     0.62367   0.07971   0.68656   0.00000  Uiso   1.00
N856   N     0.38321   0.21945   0.81394   0.00000  Uiso   1.00
H857   H     0.37661   0.20841   0.84532   0.00000  Uiso   1.00
H858   H     0.37647   0.25456   0.81160   0.00000  Uiso   1.00
C859   C     0.75421   0.16623   0.74929   0.00000  Uiso   1.00
C860   C     0.91251   0.16711   0.75031   0.00000  Uiso   1.00
C861   C     0.83381   0.16625   0.66486   0.00000  Uiso   1.00
C862   C     0.83332   0.16718   0.83470   0.00000  Uiso   1.00
C863   C     0.80629   0.02238   0.72207   0.00000  Uiso   1.00
C864   C     0.85794   0.31091   0.78002   0.00000  Uiso   1.00
C865   C     0.85922   0.02683   0.77854   0.00000  Uiso   1.00
C866   C     0.80709   0.30621   0.72178   0.00000  Uiso   1.00
C867   C     0.68564   0.13974   0.71733   0.00000  Uiso   1.00
C868   C     0.98134   0.19429   0.78132   0.00000  Uiso   1.00
C869   C     0.97577   0.14054   0.71744   0.00000  Uiso   1.00
C870   C     0.69112   0.19332   0.78133   0.00000  Uiso   1.00
C871   C     0.84556   0.20699   0.54842   0.00000  Uiso   1.00
C872   C     0.80008   0.14618   0.94901   0.00000  Uiso   1.00
C873   C     0.86495   0.18986   0.95428   0.00000  Uiso   1.00
C874   C     0.82233   0.12680   0.54429   0.00000  Uiso   1.00
C875   C     0.84700   0.20661   0.59443   0.00000  Uiso   1.00
C876   C     0.80008   0.14593   0.90297   0.00000  Uiso   1.00
C877   C     0.86518   0.19016   0.90839   0.00000  Uiso   1.00
C878   C     0.82290   0.12572   0.59026   0.00000  Uiso   1.00
C879   C     0.83476   0.16595   0.61609   0.00000  Uiso   1.00
C880   C     0.83267   0.16820   0.88263   0.00000  Uiso   1.00
C881   C     0.83315   0.16736   0.52321   0.00000  Uiso   1.00
C882   C     0.83253   0.16800   0.97481   0.00000  Uiso   1.00
C883   C     0.95723   0.16771   0.74955   0.00000  Uiso   1.00
C884   C     0.70960   0.16579   0.74958   0.00000  Uiso   1.00
Cu885  Cu    0.83333   0.21355   0.75000   0.00000  Uiso   1.00
Cu886  Cu    0.83333   0.11978   0.75000   0.00000  Uiso   1.00
H887   H     0.85411   0.23864   0.53242   0.00000  Uiso   1.00
H888   H     0.77458   0.12959   0.96451   0.00000  Uiso   1.00
H889   H     0.89074   0.20579   0.97381   0.00000  Uiso   1.00
H890   H     0.81360   0.09555   0.52505   0.00000  Uiso   1.00
N891   N     0.83333   0.28402   0.75000   0.00000  Uiso   1.00
N892   N     0.83333   0.04931   0.75000   0.00000  Uiso   1.00
O893   O     0.77321   0.20625   0.75000   0.00000  Uiso   1.00
O894   O     0.89345   0.12709   0.75001   0.00000  Uiso   1.00
O895   O     0.89345   0.20625   0.75001   0.00000  Uiso   1.00
O896   O     0.77321   0.12709   0.75000   0.00000  Uiso   1.00
O897   O     0.83333   0.20626   0.68573   0.00000  Uiso   1.00
O898   O     0.83334   0.12707   0.81427   0.00000  Uiso   1.00
O899   O     0.83334   0.20626   0.81427   0.00000  Uiso   1.00
O900   O     0.83333   0.12707   0.68573   0.00000  Uiso   1.00
N901   N     0.77426   0.04263   0.69494   0.00000  Uiso   1.00
H902   H     0.77966   0.07755   0.69172   0.00000  Uiso   1.00
H903   H     0.77531   0.02898   0.66288   0.00000  Uiso   1.00
N904   N     0.87982   0.29083   0.81656   0.00000  Uiso   1.00
H905   H     0.89466   0.26159   0.80611   0.00000  Uiso   1.00
H906   H     0.85846   0.28195   0.83951   0.00000  Uiso   1.00
N907   N     0.88662   0.05349   0.80855   0.00000  Uiso   1.00
H908   H     0.87940   0.04618   0.84080   0.00000  Uiso   1.00
H909   H     0.91675   0.04303   0.80411   0.00000  Uiso   1.00
N910   N     0.77893   0.27887   0.69311   0.00000  Uiso   1.00
H911   H     0.78492   0.28535   0.66037   0.00000  Uiso   1.00
H912   H     0.74878   0.28840   0.69877   0.00000  Uiso   1.00
N913   N     0.86184   0.24750   0.61880   0.00000  Uiso   1.00
H914   H     0.89190   0.25501   0.61002   0.00000  Uiso   1.00
H915   H     0.84340   0.27511   0.60920   0.00000  Uiso   1.00
N916   N     0.76681   0.12353   0.87686   0.00000  Uiso   1.00
H917   H     0.73928   0.13849   0.88546   0.00000  Uiso   1.00
H918   H     0.76552   0.08864   0.88527   0.00000  Uiso   1.00
N919   N     0.89954   0.21076   0.88811   0.00000  Uiso   1.00
H920   H     0.90255   0.24540   0.89910   0.00000  Uiso   1.00
H921   H     0.92601   0.19391   0.89969   0.00000  Uiso   1.00
N922   N     0.81075   0.08363   0.61022   0.00000  Uiso   1.00
H923   H     0.83046   0.05757   0.60055   0.00000  Uiso   1.00
H924   H     0.78089   0.07447   0.59773   0.00000  Uiso   1.00
N925   N     0.70543   0.11415   0.68372   0.00000  Uiso   1.00
H926   H     0.69577   0.07939   0.68442   0.00000  Uiso   1.00
H927   H     0.69633   0.12717   0.65297   0.00000  Uiso   1.00
N928   N     0.96188   0.22095   0.81432   0.00000  Uiso   1.00
H929   H     0.97072   0.25578   0.81166   0.00000  Uiso   1.00
H930   H     0.97244   0.20987   0.84532   0.00000  Uiso   1.00
N931   N     0.95035   0.11487   0.68453   0.00000  Uiso   1.00
H932   H     0.95723   0.12623   0.65332   0.00000  Uiso   1.00
H933   H     0.95700   0.07971   0.68656   0.00000  Uiso   1.00
N934   N     0.71655   0.21945   0.81394   0.00000  Uiso   1.00
H935   H     0.70994   0.20841   0.84532   0.00000  Uiso   1.00
H936   H     0.70980   0.25456   0.81160   0.00000  Uiso   1.00
C937   C     0.08755   0.49956   0.74929   0.00000  Uiso   1.00
C938   C     0.24585   0.50045   0.75031   0.00000  Uiso   1.00
C939   C     0.16714   0.49958   0.66486   0.00000  Uiso   1.00
C940   C     0.16665   0.50051   0.83470   0.00000  Uiso   1.00
C941   C     0.13962   0.35571   0.72207   0.00000  Uiso   1.00
C942   C     0.19127   0.64424   0.78002   0.00000  Uiso   1.00
C943   C     0.19255   0.36017   0.77854   0.00000  Uiso   1.00
C944   C     0.14042   0.63954   0.72178   0.00000  Uiso   1.00
C945   C     0.01897   0.47308   0.71733   0.00000  Uiso   1.00
C946   C     0.31467   0.52762   0.78132   0.00000  Uiso   1.00
C947   C     0.30910   0.47387   0.71744   0.00000  Uiso   1.00
C948   C     0.02445   0.52665   0.78133   0.00000  Uiso   1.00
C949   C     0.17889   0.54033   0.54842   0.00000  Uiso   1.00
C950   C     0.13341   0.47951   0.94901   0.00000  Uiso   1.00
C951   C     0.19828   0.52319   0.95428   0.00000  Uiso   1.00
C952   C     0.15567   0.46014   0.54429   0.00000  Uiso   1.00
C953   C     0.18033   0.53994   0.59443   0.00000  Uiso   1.00
C954   C     0.13342   0.47927   0.90297   0.00000  Uiso   1.00
C955   C     0.19851   0.52349   0.90839   0.00000  Uiso   1.00
C956   C     0.15624   0.45905   0.59026   0.00000  Uiso   1.00
C957   C     0.16809   0.49929   0.61609   0.00000  Uiso   1.00
C958   C     0.16601   0.50153   0.88263   0.00000  Uiso   1.00
C959   C     0.16648   0.50069   0.52321   0.00000  Uiso   1.00
C960   C     0.16587   0.50133   0.97481   0.00000  Uiso   1.00
C961   C     0.29057   0.50105   0.74955   0.00000  Uiso   1.00
C962   C     0.04293   0.49912   0.74958   0.00000  Uiso   1.00
Cu963  Cu    0.16667   0.54689   0.75000   0.00000  Uiso   1.00
Cu964  Cu    0.16667   0.45311   0.75000   0.00000  Uiso   1.00
H965   H     0.18745   0.57198   0.53242   0.00000  Uiso   1.00
H966   H     0.10792   0.46292   0.96451   0.00000  Uiso   1.00
H967   H     0.22408   0.53912   0.97381   0.00000  Uiso   1.00
H968   H     0.14694   0.42889   0.52505   0.00000  Uiso   1.00
N969   N     0.16667   0.61736   0.75000   0.00000  Uiso   1.00
N970   N     0.16667   0.38264   0.75000   0.00000  Uiso   1.00
O971   O     0.10655   0.53958   0.75000   0.00000  Uiso   1.00
O972   O     0.22679   0.46042   0.75001   0.00000  Uiso   1.00
O973   O     0.22679   0.53958   0.75001   0.00000  Uiso   1.00
O974   O     0.10655   0.46042   0.75000   0.00000  Uiso   1.00
O975   O     0.16666   0.53959   0.68573   0.00000  Uiso   1.00
O976   O     0.16667   0.46041   0.81427   0.00000  Uiso   1.00
O977   O     0.16667   0.53959   0.81427   0.00000  Uiso   1.00
O978   O     0.16666   0.46041   0.68573   0.00000  Uiso   1.00
N979   N     0.10760   0.37596   0.69494   0.00000  Uiso   1.00
H980   H     0.11299   0.41089   0.69172   0.00000  Uiso   1.00
H981   H     0.10864   0.36232   0.66288   0.00000  Uiso   1.00
N982   N     0.21316   0.62416   0.81656   0.00000  Uiso   1.00
H983   H     0.22799   0.59492   0.80611   0.00000  Uiso   1.00
H984   H     0.19179   0.61528   0.83951   0.00000  Uiso   1.00
N985   N     0.21995   0.38682   0.80855   0.00000  Uiso   1.00
H986   H     0.21273   0.37951   0.84080   0.00000  Uiso   1.00
H987   H     0.25008   0.37637   0.80411   0.00000  Uiso   1.00
N988   N     0.11227   0.61221   0.69311   0.00000  Uiso   1.00
H989   H     0.11825   0.61868   0.66037   0.00000  Uiso   1.00
H990   H     0.08211   0.62173   0.69877   0.00000  Uiso   1.00
N991   N     0.19517   0.58083   0.61880   0.00000  Uiso   1.00
H992   H     0.22523   0.58834   0.61002   0.00000  Uiso   1.00
H993   H     0.17673   0.60845   0.60920   0.00000  Uiso   1.00
N994   N     0.10015   0.45686   0.87686   0.00000  Uiso   1.00
H995   H     0.07261   0.47182   0.88546   0.00000  Uiso   1.00
H996   H     0.09886   0.42197   0.88527   0.00000  Uiso   1.00
N997   N     0.23288   0.54410   0.88811   0.00000  Uiso   1.00
H998   H     0.23588   0.57873   0.89910   0.00000  Uiso   1.00
H999   H     0.25934   0.52725   0.89969   0.00000  Uiso   1.00
N1000  N     0.14409   0.41696   0.61022   0.00000  Uiso   1.00
H1001  H     0.16380   0.39090   0.60055   0.00000  Uiso   1.00
H1002  H     0.11422   0.40781   0.59773   0.00000  Uiso   1.00
N1003  N     0.03876   0.44749   0.68372   0.00000  Uiso   1.00
H1004  H     0.02910   0.41272   0.68442   0.00000  Uiso   1.00
H1005  H     0.02967   0.46051   0.65297   0.00000  Uiso   1.00
N1006  N     0.29521   0.55428   0.81432   0.00000  Uiso   1.00
H1007  H     0.30405   0.58912   0.81166   0.00000  Uiso   1.00
H1008  H     0.30577   0.54321   0.84532   0.00000  Uiso   1.00
N1009  N     0.28368   0.44820   0.68453   0.00000  Uiso   1.00
H1010  H     0.29056   0.45956   0.65332   0.00000  Uiso   1.00
H1011  H     0.29033   0.41304   0.68656   0.00000  Uiso   1.00
N1012  N     0.04988   0.55278   0.81394   0.00000  Uiso   1.00
H1013  H     0.04327   0.54174   0.84532   0.00000  Uiso   1.00
H1014  H     0.04314   0.58790   0.81160   0.00000  Uiso   1.00
C1015  C     0.42088   0.49956   0.74929   0.00000  Uiso   1.00
C1016  C     0.57918   0.50045   0.75031   0.00000  Uiso   1.00
C1017  C     0.50047   0.49958   0.66486   0.00000  Uiso   1.00
C1018  C     0.49999   0.50051   0.83470   0.00000  Uiso   1.00
C1019  C     0.47295   0.35571   0.72207   0.00000  Uiso   1.00
C1020  C     0.52461   0.64424   0.78002   0.00000  Uiso   1.00
C1021  C     0.52589   0.36017   0.77854   0.00000  Uiso   1.00
C1022  C     0.47376   0.63954   0.72178   0.00000  Uiso   1.00
C1023  C     0.35230   0.47308   0.71733   0.00000  Uiso   1.00
C1024  C     0.64800   0.52762   0.78132   0.00000  Uiso   1.00
C1025  C     0.64244   0.47387   0.71744   0.00000  Uiso   1.00
C1026  C     0.35778   0.52665   0.78133   0.00000  Uiso   1.00
C1027  C     0.51223   0.54033   0.54842   0.00000  Uiso   1.00
C1028  C     0.46675   0.47951   0.94901   0.00000  Uiso   1.00
C1029  C     0.53161   0.52319   0.95428   0.00000  Uiso   1.00
C1030  C     0.48900   0.46014   0.54429   0.00000  Uiso   1.00
C1031  C     0.51367   0.53994   0.59443   0.00000  Uiso   1.00
C1032  C     0.46675   0.47927   0.90297   0.00000  Uiso   1.00
C1033  C     0.53185   0.52349   0.90839   0.00000  Uiso   1.00
C1034  C     0.48957   0.45905   0.59026   0.00000  Uiso   1.00
C1035  C     0.50143   0.49929   0.61609   0.00000  Uiso   1.00
C1036  C     0.49934   0.50153   0.88263   0.00000  Uiso   1.00
C1037  C     0.49981   0.50069   0.52321   0.00000  Uiso   1.00
C1038  C     0.49920   0.50133   0.97481   0.00000  Uiso   1.00
C1039  C     0.62390   0.50105   0.74955   0.00000  Uiso   1.00
C1040  C     0.37626   0.49912   0.74958   0.00000  Uiso   1.00
Cu1041 Cu    0.50000   0.54689   0.75000   0.00000  Uiso   1.00
Cu1042 Cu    0.50000   0.45311   0.75000   0.00000  Uiso   1.00
H1043  H     0.52078   0.57198   0.53242   0.00000  Uiso   1.00
H1044  H     0.44125   0.46292   0.96451   0.00000  Uiso   1.00
H1045  H     0.55741   0.53912   0.97381   0.00000  Uiso   1.00
H1046  H     0.48027   0.42889   0.52505   0.00000  Uiso   1.00
N1047  N     0.50000   0.61736   0.75000   0.00000  Uiso   1.00
N1048  N     0.50000   0.38264   0.75000   0.00000  Uiso   1.00
O1049  O     0.43988   0.53958   0.75000   0.00000  Uiso   1.00
O1050  O     0.56012   0.46042   0.75001   0.00000  Uiso   1.00
O1051  O     0.56012   0.53958   0.75001   0.00000  Uiso   1.00
O1052  O     0.43988   0.46042   0.75000   0.00000  Uiso   1.00
O1053  O     0.50000   0.53959   0.68573   0.00000  Uiso   1.00
O1054  O     0.50000   0.46041   0.81427   0.00000  Uiso   1.00
O1055  O     0.50000   0.53959   0.81427   0.00000  Uiso   1.00
O1056  O     0.50000   0.46041   0.68573   0.00000  Uiso   1.00
N1057  N     0.44093   0.37596   0.69494   0.00000  Uiso   1.00
H1058  H     0.44633   0.41089   0.69172   0.00000  Uiso   1.00
H1059  H     0.44197   0.36232   0.66288   0.00000  Uiso   1.00
N1060  N     0.54649   0.62416   0.81656   0.00000  Uiso   1.00
H1061  H     0.56132   0.59492   0.80611   0.00000  Uiso   1.00
H1062  H     0.52513   0.61528   0.83951   0.00000  Uiso   1.00
N1063  N     0.55329   0.38682   0.80855   0.00000  Uiso   1.00
H1064  H     0.54606   0.37951   0.84080   0.00000  Uiso   1.00
H1065  H     0.58342   0.37637   0.80411   0.00000  Uiso   1.00
N1066  N     0.44560   0.61221   0.69311   0.00000  Uiso   1.00
H1067  H     0.45159   0.61868   0.66037   0.00000  Uiso   1.00
H1068  H     0.41545   0.62173   0.69877   0.00000  Uiso   1.00
N1069  N     0.52851   0.58083   0.61880   0.00000  Uiso   1.00
H1070  H     0.55857   0.58834   0.61002   0.00000  Uiso   1.00
H1071  H     0.51006   0.60845   0.60920   0.00000  Uiso   1.00
N1072  N     0.43348   0.45686   0.87686   0.00000  Uiso   1.00
H1073  H     0.40594   0.47182   0.88546   0.00000  Uiso   1.00
H1074  H     0.43219   0.42197   0.88527   0.00000  Uiso   1.00
N1075  N     0.56621   0.54410   0.88811   0.00000  Uiso   1.00
H1076  H     0.56921   0.57873   0.89910   0.00000  Uiso   1.00
H1077  H     0.59267   0.52725   0.89969   0.00000  Uiso   1.00
N1078  N     0.47742   0.41696   0.61022   0.00000  Uiso   1.00
H1079  H     0.49713   0.39090   0.60055   0.00000  Uiso   1.00
H1080  H     0.44755   0.40781   0.59773   0.00000  Uiso   1.00
N1081  N     0.37210   0.44749   0.68372   0.00000  Uiso   1.00
H1082  H     0.36244   0.41272   0.68442   0.00000  Uiso   1.00
H1083  H     0.36300   0.46051   0.65297   0.00000  Uiso   1.00
N1084  N     0.62854   0.55428   0.81432   0.00000  Uiso   1.00
H1085  H     0.63738   0.58912   0.81166   0.00000  Uiso   1.00
H1086  H     0.63911   0.54321   0.84532   0.00000  Uiso   1.00
N1087  N     0.61702   0.44820   0.68453   0.00000  Uiso   1.00
H1088  H     0.62390   0.45956   0.65332   0.00000  Uiso   1.00
H1089  H     0.62367   0.41304   0.68656   0.00000  Uiso   1.00
N1090  N     0.38321   0.55278   0.81394   0.00000  Uiso   1.00
H1091  H     0.37661   0.54174   0.84532   0.00000  Uiso   1.00
H1092  H     0.37647   0.58790   0.81160   0.00000  Uiso   1.00
C1093  C     0.75421   0.49956   0.74929   0.00000  Uiso   1.00
C1094  C     0.91251   0.50045   0.75031   0.00000  Uiso   1.00
C1095  C     0.83381   0.49958   0.66486   0.00000  Uiso   1.00
C1096  C     0.83332   0.50051   0.83470   0.00000  Uiso   1.00
C1097  C     0.80629   0.35571   0.72207   0.00000  Uiso   1.00
C1098  C     0.85794   0.64424   0.78002   0.00000  Uiso   1.00
C1099  C     0.85922   0.36017   0.77854   0.00000  Uiso   1.00
C1100  C     0.80709   0.63954   0.72178   0.00000  Uiso   1.00
C1101  C     0.68564   0.47308   0.71733   0.00000  Uiso   1.00
C1102  C     0.98134   0.52762   0.78132   0.00000  Uiso   1.00
C1103  C     0.97577   0.47387   0.71744   0.00000  Uiso   1.00
C1104  C     0.69112   0.52665   0.78133   0.00000  Uiso   1.00
C1105  C     0.84556   0.54033   0.54842   0.00000  Uiso   1.00
C1106  C     0.80008   0.47951   0.94901   0.00000  Uiso   1.00
C1107  C     0.86495   0.52319   0.95428   0.00000  Uiso   1.00
C1108  C     0.82233   0.46014   0.54429   0.00000  Uiso   1.00
C1109  C     0.84700   0.53994   0.59443   0.00000  Uiso   1.00
C1110  C     0.80008   0.47927   0.90297   0.00000  Uiso   1.00
C1111  C     0.86518   0.52349   0.90839   0.00000  Uiso   1.00
C1112  C     0.82290   0.45905   0.59026   0.00000  Uiso   1.00
C1113  C     0.83476   0.49929   0.61609   0.00000  Uiso   1.00
C1114  C     0.83267   0.50153   0.88263   0.00000  Uiso   1.00
C1115  C     0.83315   0.50069   0.52321   0.00000  Uiso   1.00
C1116  C     0.83253   0.50133   0.97481   0.00000  Uiso   1.00
C1117  C     0.95723   0.50105   0.74955   0.00000  Uiso   1.00
C1118  C     0.70960   0.49912   0.74958   0.00000  Uiso   1.00
Cu1119 Cu    0.83333   0.54689   0.75000   0.00000  Uiso   1.00
Cu1120 Cu    0.83333   0.45311   0.75000   0.00000  Uiso   1.00
H1121  H     0.85411   0.57198   0.53242   0.00000  Uiso   1.00
H1122  H     0.77458   0.46292   0.96451   0.00000  Uiso   1.00
H1123  H     0.89074   0.53912   0.97381   0.00000  Uiso   1.00
H1124  H     0.81360   0.42889   0.52505   0.00000  Uiso   1.00
N1125  N     0.83333   0.61736   0.75000   0.00000  Uiso   1.00
N1126  N     0.83333   0.38264   0.75000   0.00000  Uiso   1.00
O1127  O     0.77321   0.53958   0.75000   0.00000  Uiso   1.00
O1128  O     0.89345   0.46042   0.75001   0.00000  Uiso   1.00
O1129  O     0.89345   0.53958   0.75001   0.00000  Uiso   1.00
O1130  O     0.77321   0.46042   0.75000   0.00000  Uiso   1.00
O1131  O     0.83333   0.53959   0.68573   0.00000  Uiso   1.00
O1132  O     0.83334   0.46041   0.81427   0.00000  Uiso   1.00
O1133  O     0.83334   0.53959   0.81427   0.00000  Uiso   1.00
O1134  O     0.83333   0.46041   0.68573   0.00000  Uiso   1.00
N1135  N     0.77426   0.37596   0.69494   0.00000  Uiso   1.00
H1136  H     0.77966   0.41089   0.69172   0.00000  Uiso   1.00
H1137  H     0.77531   0.36232   0.66288   0.00000  Uiso   1.00
N1138  N     0.87982   0.62416   0.81656   0.00000  Uiso   1.00
H1139  H     0.89466   0.59492   0.80611   0.00000  Uiso   1.00
H1140  H     0.85846   0.61528   0.83951   0.00000  Uiso   1.00
N1141  N     0.88662   0.38682   0.80855   0.00000  Uiso   1.00
H1142  H     0.87940   0.37951   0.84080   0.00000  Uiso   1.00
H1143  H     0.91675   0.37637   0.80411   0.00000  Uiso   1.00
N1144  N     0.77893   0.61221   0.69311   0.00000  Uiso   1.00
H1145  H     0.78492   0.61868   0.66037   0.00000  Uiso   1.00
H1146  H     0.74878   0.62173   0.69877   0.00000  Uiso   1.00
N1147  N     0.86184   0.58083   0.61880   0.00000  Uiso   1.00
H1148  H     0.89190   0.58834   0.61002   0.00000  Uiso   1.00
H1149  H     0.84340   0.60845   0.60920   0.00000  Uiso   1.00
N1150  N     0.76681   0.45686   0.87686   0.00000  Uiso   1.00
H1151  H     0.73928   0.47182   0.88546   0.00000  Uiso   1.00
H1152  H     0.76552   0.42197   0.88527   0.00000  Uiso   1.00
N1153  N     0.89954   0.54410   0.88811   0.00000  Uiso   1.00
H1154  H     0.90255   0.57873   0.89910   0.00000  Uiso   1.00
H1155  H     0.92601   0.52725   0.89969   0.00000  Uiso   1.00
N1156  N     0.81075   0.41696   0.61022   0.00000  Uiso   1.00
H1157  H     0.83046   0.39090   0.60055   0.00000  Uiso   1.00
H1158  H     0.78089   0.40781   0.59773   0.00000  Uiso   1.00
N1159  N     0.70543   0.44749   0.68372   0.00000  Uiso   1.00
H1160  H     0.69577   0.41272   0.68442   0.00000  Uiso   1.00
H1161  H     0.69633   0.46051   0.65297   0.00000  Uiso   1.00
N1162  N     0.96188   0.55428   0.81432   0.00000  Uiso   1.00
H1163  H     0.97072   0.58912   0.81166   0.00000  Uiso   1.00
H1164  H     0.97244   0.54321   0.84532   0.00000  Uiso   1.00
N1165  N     0.95035   0.44820   0.68453   0.00000  Uiso   1.00
H1166  H     0.95723   0.45956   0.65332   0.00000  Uiso   1.00
H1167  H     0.95700   0.41304   0.68656   0.00000  Uiso   1.00
N1168  N     0.71655   0.55278   0.81394   0.00000  Uiso   1.00
H1169  H     0.70994   0.54174   0.84532   0.00000  Uiso   1.00
H1170  H     0.70980   0.58790   0.81160   0.00000  Uiso   1.00
C1171  C     0.08755   0.83289   0.74929   0.00000  Uiso   1.00
C1172  C     0.24585   0.83378   0.75031   0.00000  Uiso   1.00
C1173  C     0.16714   0.83292   0.66486   0.00000  Uiso   1.00
C1174  C     0.16665   0.83385   0.83470   0.00000  Uiso   1.00
C1175  C     0.13962   0.68904   0.72207   0.00000  Uiso   1.00
C1176  C     0.19127   0.97758   0.78002   0.00000  Uiso   1.00
C1177  C     0.19255   0.69350   0.77854   0.00000  Uiso   1.00
C1178  C     0.14042   0.97288   0.72178   0.00000  Uiso   1.00
C1179  C     0.01897   0.80641   0.71733   0.00000  Uiso   1.00
C1180  C     0.31467   0.86095   0.78132   0.00000  Uiso   1.00
C1181  C     0.30910   0.80721   0.71744   0.00000  Uiso   1.00
C1182  C     0.02445   0.85998   0.78133   0.00000  Uiso   1.00
C1183  C     0.17889   0.87366   0.54842   0.00000  Uiso   1.00
C1184  C     0.13341   0.81285   0.94901   0.00000  Uiso   1.00
C1185  C     0.19828   0.85653   0.95428   0.00000  Uiso   1.00
C1186  C     0.15567   0.79347   0.54429   0.00000  Uiso   1.00
C1187  C     0.18033   0.87327   0.59443   0.00000  Uiso   1.00
C1188  C     0.13342   0.81260   0.90297   0.00000  Uiso   1.00
C1189  C     0.19851   0.85683   0.90839   0.00000  Uiso   1.00
C1190  C     0.15624   0.79239   0.59026   0.00000  Uiso   1.00
C1191  C     0.16809   0.83262   0.61609   0.00000  Uiso   1.00
C1192  C     0.16601   0.83486   0.88263   0.00000  Uiso   1.00
C1193  C     0.16648   0.83402   0.52321   0.00000  Uiso   1.00
C1194  C     0.16587   0.83466   0.97481   0.00000  Uiso   1.00
C1195  C     0.29057   0.83438   0.74955   0.00000  Uiso   1.00
C1196  C     0.04293   0.83246   0.74958   0.00000  Uiso   1.00
Cu1197 Cu    0.16667   0.88022   0.75000   0.00000  Uiso   1.00
Cu1198 Cu    0.16667   0.78645   0.75000   0.00000  Uiso   1.00
H1199  H     0.18745   0.90531   0.53242   0.00000  Uiso   1.00
H1200  H     0.10792   0.79625   0.96451   0.00000  Uiso   1.00
H1201  H     0.22408   0.87245   0.97381   0.00000  Uiso   1.00
H1202  H     0.14694   0.76222   0.52505   0.00000  Uiso   1.00
N1203  N     0.16667   0.95069   0.75000   0.00000  Uiso   1.00
N1204  N     0.16667   0.71598   0.75000   0.00000  Uiso   1.00
O1205  O     0.10655   0.87291   0.75000   0.00000  Uiso   1.00
O1206  O     0.22679   0.79375   0.75001   0.00000  Uiso   1.00
O1207  O     0.22679   0.87291   0.75001   0.00000  Uiso   1.00
O1208  O     0.10655   0.79375   0.75000   0.00000  Uiso   1.00
O1209  O     0.16666   0.87293   0.68573   0.00000  Uiso   1.00
O1210  O     0.16667   0.79374   0.81427   0.00000  Uiso   1.00
O1211  O     0.16667   0.87293   0.81427   0.00000  Uiso   1.00
O1212  O     0.16666   0.79374   0.68573   0.00000  Uiso   1.00
N1213  N     0.10760   0.70930   0.69494   0.00000  Uiso   1.00
H1214  H     0.11299   0.74422   0.69172   0.00000  Uiso   1.00
H1215  H     0.10864   0.69565   0.66288   0.00000  Uiso   1.00
N1216  N     0.21316   0.95749   0.81656   0.00000  Uiso   1.00
H1217  H     0.22799   0.92826   0.80611   0.00000  Uiso   1.00
H1218  H     0.19179   0.94861   0.83951   0.00000  Uiso   1.00
N1219  N     0.21995   0.72016   0.80855   0.00000  Uiso   1.00
H1220  H     0.21273   0.71285   0.84080   0.00000  Uiso   1.00
H1221  H     0.25008   0.70970   0.80411   0.00000  Uiso   1.00
N1222  N     0.11227   0.94554   0.69311   0.00000  Uiso   1.00
H1223  H     0.11825   0.95201   0.66037   0.00000  Uiso   1.00
H1224  H     0.08211   0.95507   0.69877   0.00000  Uiso   1.00
N1225  N     0.19517   0.91417   0.61880   0.00000  Uiso   1.00
H1226  H     0.22523   0.92167   0.61002   0.00000  Uiso   1.00
H1227  H     0.17673   0.94178   0.60920   0.00000  Uiso   1.00
N1228  N     0.10015   0.79019   0.87686   0.00000  Uiso   1.00
H1229  H     0.07261   0.80515   0.88546   0.00000  Uiso   1.00
H1230  H     0.09886   0.75531   0.88527   0.00000  Uiso   1.00
N1231  N     0.23288   0.87743   0.88811   0.00000  Uiso   1.00
H1232  H     0.23588   0.91206   0.89910   0.00000  Uiso   1.00
H1233  H     0.25934   0.86058   0.89969   0.00000  Uiso   1.00
N1234  N     0.14409   0.75030   0.61022   0.00000  Uiso   1.00
H1235  H     0.16380   0.72424   0.60055   0.00000  Uiso   1.00
H1236  H     0.11422   0.74114   0.59773   0.00000  Uiso   1.00
N1237  N     0.03876   0.78082   0.68372   0.00000  Uiso   1.00
H1238  H     0.02910   0.74605   0.68442   0.00000  Uiso   1.00
H1239  H     0.02967   0.79384   0.65297   0.00000  Uiso   1.00
N1240  N     0.29521   0.88761   0.81432   0.00000  Uiso   1.00
H1241  H     0.30405   0.92245   0.81166   0.00000  Uiso   1.00
H1242  H     0.30577   0.87654   0.84532   0.00000  Uiso   1.00
N1243  N     0.28368   0.78154   0.68453   0.00000  Uiso   1.00
H1244  H     0.29056   0.79289   0.65332   0.00000  Uiso   1.00
H1245  H     0.29033   0.74637   0.68656   0.00000  Uiso   1.00
N1246  N     0.04988   0.88612   0.81394   0.00000  Uiso   1.00
H1247  H     0.04327   0.87508   0.84532   0.00000  Uiso   1.00
H1248  H     0.04314   0.92123   0.81160   0.00000  Uiso   1.00
C1249  C     0.42088   0.83289   0.74929   0.00000  Uiso   1.00
C1250  C     0.57918   0.83378   0.75031   0.00000  Uiso   1.00
C1251  C     0.50047   0.83292   0.66486   0.00000  Uiso   1.00
C1252  C     0.49999   0.83385   0.83470   0.00000  Uiso   1.00
C1253  C     0.47295   0.68904   0.72207   0.00000  Uiso   1.00
C1254  C     0.52461   0.97758   0.78002   0.00000  Uiso   1.00
C1255  C     0.52589   0.69350   0.77854   0.00000  Uiso   1.00
C1256  C     0.47376   0.97288   0.72178   0.00000  Uiso   1.00
C1257  C     0.35230   0.80641   0.71733   0.00000  Uiso   1.00
C1258  C     0.64800   0.86095   0.78132   0.00000  Uiso   1.00
C1259  C     0.64244   0.80721   0.71744   0.00000  Uiso   1.00
C1260  C     0.35778   0.85998   0.78133   0.00000  Uiso   1.00
C1261  C     0.51223   0.87366   0.54842   0.00000  Uiso   1.00
C1262  C     0.46675   0.81285   0.94901   0.00000  Uiso   1.00
C1263  C     0.53161   0.85653   0.95428   0.00000  Uiso   1.00
C1264  C     0.48900   0.79347   0.54429   0.00000  Uiso   1.00
C1265  C     0.51367   0.87327   0.59443   0.00000  Uiso   1.00
C1266  C     0.46675   0.81260   0.90297   0.00000  Uiso   1.00
C1267  C     0.53185   0.85683   0.90839   0.00000  Uiso   1.00
C1268  C     0.48957   0.79239   0.59026   0.00000  Uiso   1.00
C1269  C     0.50143   0.83262   0.61609   0.00000  Uiso   1.00
C1270  C     0.49934   0.83486   0.88263   0.00000  Uiso   1.00
C1271  C     0.49981   0.83402   0.52321   0.00000  Uiso   1.00
C1272  C     0.49920   0.83466   0.97481   0.00000  Uiso   1.00
C1273  C     0.62390   0.83438   0.74955   0.00000  Uiso   1.00
C1274  C     0.37626   0.83246   0.74958   0.00000  Uiso   1.00
Cu1275 Cu    0.50000   0.88022   0.75000   0.00000  Uiso   1.00
Cu1276 Cu    0.50000   0.78645   0.75000   0.00000  Uiso   1.00
H1277  H     0.52078   0.90531   0.53242   0.00000  Uiso   1.00
H1278  H     0.44125   0.79625   0.96451   0.00000  Uiso   1.00
H1279  H     0.55741   0.87245   0.97381   0.00000  Uiso   1.00
H1280  H     0.48027   0.76222   0.52505   0.00000  Uiso   1.00
N1281  N     0.50000   0.95069   0.75000   0.00000  Uiso   1.00
N1282  N     0.50000   0.71598   0.75000   0.00000  Uiso   1.00
O1283  O     0.43988   0.87291   0.75000   0.00000  Uiso   1.00
O1284  O     0.56012   0.79375   0.75001   0.00000  Uiso   1.00
O1285  O     0.56012   0.87291   0.75001   0.00000  Uiso   1.00
O1286  O     0.43988   0.79375   0.75000   0.00000  Uiso   1.00
O1287  O     0.50000   0.87293   0.68573   0.00000  Uiso   1.00
O1288  O     0.50000   0.79374   0.81427   0.00000  Uiso   1.00
O1289  O     0.50000   0.87293   0.81427   0.00000  Uiso   1.00
O1290  O     0.50000   0.79374   0.68573   0.00000  Uiso   1.00
N1291  N     0.44093   0.70930   0.69494   0.00000  Uiso   1.00
H1292  H     0.44633   0.74422   0.69172   0.00000  Uiso   1.00
H1293  H     0.44197   0.69565   0.66288   0.00000  Uiso   1.00
N1294  N     0.54649   0.95749   0.81656   0.00000  Uiso   1.00
H1295  H     0.56132   0.92826   0.80611   0.00000  Uiso   1.00
H1296  H     0.52513   0.94861   0.83951   0.00000  Uiso   1.00
N1297  N     0.55329   0.72016   0.80855   0.00000  Uiso   1.00
H1298  H     0.54606   0.71285   0.84080   0.00000  Uiso   1.00
H1299  H     0.58342   0.70970   0.80411   0.00000  Uiso   1.00
N1300  N     0.44560   0.94554   0.69311   0.00000  Uiso   1.00
H1301  H     0.45159   0.95201   0.66037   0.00000  Uiso   1.00
H1302  H     0.41545   0.95507   0.69877   0.00000  Uiso   1.00
N1303  N     0.52851   0.91417   0.61880   0.00000  Uiso   1.00
H1304  H     0.55857   0.92167   0.61002   0.00000  Uiso   1.00
H1305  H     0.51006   0.94178   0.60920   0.00000  Uiso   1.00
N1306  N     0.43348   0.79019   0.87686   0.00000  Uiso   1.00
H1307  H     0.40594   0.80515   0.88546   0.00000  Uiso   1.00
H1308  H     0.43219   0.75531   0.88527   0.00000  Uiso   1.00
N1309  N     0.56621   0.87743   0.88811   0.00000  Uiso   1.00
H1310  H     0.56921   0.91206   0.89910   0.00000  Uiso   1.00
H1311  H     0.59267   0.86058   0.89969   0.00000  Uiso   1.00
N1312  N     0.47742   0.75030   0.61022   0.00000  Uiso   1.00
H1313  H     0.49713   0.72424   0.60055   0.00000  Uiso   1.00
H1314  H     0.44755   0.74114   0.59773   0.00000  Uiso   1.00
N1315  N     0.37210   0.78082   0.68372   0.00000  Uiso   1.00
H1316  H     0.36244   0.74605   0.68442   0.00000  Uiso   1.00
H1317  H     0.36300   0.79384   0.65297   0.00000  Uiso   1.00
N1318  N     0.62854   0.88761   0.81432   0.00000  Uiso   1.00
H1319  H     0.63738   0.92245   0.81166   0.00000  Uiso   1.00
H1320  H     0.63911   0.87654   0.84532   0.00000  Uiso   1.00
N1321  N     0.61702   0.78154   0.68453   0.00000  Uiso   1.00
H1322  H     0.62390   0.79289   0.65332   0.00000  Uiso   1.00
H1323  H     0.62367   0.74637   0.68656   0.00000  Uiso   1.00
N1324  N     0.38321   0.88612   0.81394   0.00000  Uiso   1.00
H1325  H     0.37661   0.87508   0.84532   0.00000  Uiso   1.00
H1326  H     0.37647   0.92123   0.81160   0.00000  Uiso   1.00
C1327  C     0.75421   0.83289   0.74929   0.00000  Uiso   1.00
C1328  C     0.91251   0.83378   0.75031   0.00000  Uiso   1.00
C1329  C     0.83381   0.83292   0.66486   0.00000  Uiso   1.00
C1330  C     0.83332   0.83385   0.83470   0.00000  Uiso   1.00
C1331  C     0.80629   0.68904   0.72207   0.00000  Uiso   1.00
C1332  C     0.85794   0.97758   0.78002   0.00000  Uiso   1.00
C1333  C     0.85922   0.69350   0.77854   0.00000  Uiso   1.00
C1334  C     0.80709   0.97288   0.72178   0.00000  Uiso   1.00
C1335  C     0.68564   0.80641   0.71733   0.00000  Uiso   1.00
C1336  C     0.98134   0.86095   0.78132   0.00000  Uiso   1.00
C1337  C     0.97577   0.80721   0.71744   0.00000  Uiso   1.00
C1338  C     0.69112   0.85998   0.78133   0.00000  Uiso   1.00
C1339  C     0.84556   0.87366   0.54842   0.00000  Uiso   1.00
C1340  C     0.80008   0.81285   0.94901   0.00000  Uiso   1.00
C1341  C     0.86495   0.85653   0.95428   0.00000  Uiso   1.00
C1342  C     0.82233   0.79347   0.54429   0.00000  Uiso   1.00
C1343  C     0.84700   0.87327   0.59443   0.00000  Uiso   1.00
C1344  C     0.80008   0.81260   0.90297   0.00000  Uiso   1.00
C1345  C     0.86518   0.85683   0.90839   0.00000  Uiso   1.00
C1346  C     0.82290   0.79239   0.59026   0.00000  Uiso   1.00
C1347  C     0.83476   0.83262   0.61609   0.00000  Uiso   1.00
C1348  C     0.83267   0.83486   0.88263   0.00000  Uiso   1.00
C1349  C     0.83315   0.83402   0.52321   0.00000  Uiso   1.00
C1350  C     0.83253   0.83466   0.97481   0.00000  Uiso   1.00
C1351  C     0.95723   0.83438   0.74955   0.00000  Uiso   1.00
C1352  C     0.70960   0.83246   0.74958   0.00000  Uiso   1.00
Cu1353 Cu    0.83333   0.88022   0.75000   0.00000  Uiso   1.00
Cu1354 Cu    0.83333   0.78645   0.75000   0.00000  Uiso   1.00
H1355  H     0.85411   0.90531   0.53242   0.00000  Uiso   1.00
H1356  H     0.77458   0.79625   0.96451   0.00000  Uiso   1.00
H1357  H     0.89074   0.87245   0.97381   0.00000  Uiso   1.00
H1358  H     0.81360   0.76222   0.52505   0.00000  Uiso   1.00
N1359  N     0.83333   0.95069   0.75000   0.00000  Uiso   1.00
N1360  N     0.83333   0.71598   0.75000   0.00000  Uiso   1.00
O1361  O     0.77321   0.87291   0.75000   0.00000  Uiso   1.00
O1362  O     0.89345   0.79375   0.75001   0.00000  Uiso   1.00
O1363  O     0.89345   0.87291   0.75001   0.00000  Uiso   1.00
O1364  O     0.77321   0.79375   0.75000   0.00000  Uiso   1.00
O1365  O     0.83333   0.87293   0.68573   0.00000  Uiso   1.00
O1366  O     0.83334   0.79374   0.81427   0.00000  Uiso   1.00
O1367  O     0.83334   0.87293   0.81427   0.00000  Uiso   1.00
O1368  O     0.83333   0.79374   0.68573   0.00000  Uiso   1.00
N1369  N     0.77426   0.70930   0.69494   0.00000  Uiso   1.00
H1370  H     0.77966   0.74422   0.69172   0.00000  Uiso   1.00
H1371  H     0.77531   0.69565   0.66288   0.00000  Uiso   1.00
N1372  N     0.87982   0.95749   0.81656   0.00000  Uiso   1.00
H1373  H     0.89466   0.92826   0.80611   0.00000  Uiso   1.00
H1374  H     0.85846   0.94861   0.83951   0.00000  Uiso   1.00
N1375  N     0.88662   0.72016   0.80855   0.00000  Uiso   1.00
H1376  H     0.87940   0.71285   0.84080   0.00000  Uiso   1.00
H1377  H     0.91675   0.70970   0.80411   0.00000  Uiso   1.00
N1378  N     0.77893   0.94554   0.69311   0.00000  Uiso   1.00
H1379  H     0.78492   0.95201   0.66037   0.00000  Uiso   1.00
H1380  H     0.74878   0.95507   0.69877   0.00000  Uiso   1.00
N1381  N     0.86184   0.91417   0.61880   0.00000  Uiso   1.00
H1382  H     0.89190   0.92167   0.61002   0.00000  Uiso   1.00
H1383  H     0.84340   0.94178   0.60920   0.00000  Uiso   1.00
N1384  N     0.76681   0.79019   0.87686   0.00000  Uiso   1.00
H1385  H     0.73928   0.80515   0.88546   0.00000  Uiso   1.00
H1386  H     0.76552   0.75531   0.88527   0.00000  Uiso   1.00
N1387  N     0.89954   0.87743   0.88811   0.00000  Uiso   1.00
H1388  H     0.90255   0.91206   0.89910   0.00000  Uiso   1.00
H1389  H     0.92601   0.86058   0.89969   0.00000  Uiso   1.00
N1390  N     0.81075   0.75030   0.61022   0.00000  Uiso   1.00
H1391  H     0.83046   0.72424   0.60055   0.00000  Uiso   1.00
H1392  H     0.78089   0.74114   0.59773   0.00000  Uiso   1.00
N1393  N     0.70543   0.78082   0.68372   0.00000  Uiso   1.00
H1394  H     0.69577   0.74605   0.68442   0.00000  Uiso   1.00
H1395  H     0.69633   0.79384   0.65297   0.00000  Uiso   1.00
N1396  N     0.96188   0.88761   0.81432   0.00000  Uiso   1.00
H1397  H     0.97072   0.92245   0.81166   0.00000  Uiso   1.00
H1398  H     0.97244   0.87654   0.84532   0.00000  Uiso   1.00
N1399  N     0.95035   0.78154   0.68453   0.00000  Uiso   1.00
H1400  H     0.95723   0.79289   0.65332   0.00000  Uiso   1.00
H1401  H     0.95700   0.74637   0.68656   0.00000  Uiso   1.00
N1402  N     0.71655   0.88612   0.81394   0.00000  Uiso   1.00
H1403  H     0.70994   0.87508   0.84532   0.00000  Uiso   1.00
H1404  H     0.70980   0.92123   0.81160   0.00000  Uiso   1.00
loop_
_geom_bond_atom_site_label_1
_geom_bond_atom_site_label_2
_geom_bond_distance
_geom_bond_site_symmetry_2
_ccdc_geom_bond_type
C1     O38     1.300   .     A
C1     C26     1.449   .     S
C1     O35     1.295   .     A
C2     O36     1.297   .     A
C2     O37     1.300   .     A
C2     C25     1.453   .     S
C3     O42     1.311   .     A
C3     C21     1.483   .     S
C3     O39     1.303   .     A
C4     O41     1.301   .     A
C4     O40     1.298   .     A
C4     C22     1.456   .     S
C5     N43     1.434   .     S
C5     N34     1.393   .     A
C5     C476    1.429   1_545 S
C6     N46     1.426   .     S
C6     N33     1.385   .     A
C6     C241    1.423   .     S
C7     N49     1.431   .     S
C7     N34     1.360   .     A
C7     C474    1.423   1_545 S
C8     N52     1.433   .     S
C8     N33     1.357   .     A
C8     C239    1.429   .     S
C9     C26     1.405   .     A
C9     N67     1.434   .     S
C9     C167    1.404   1_455 S
C10    N70     1.431   .     S
C10    C25     1.405   .     A
C10    C90     1.401   .     S
C11    N73     1.437   .     S
C11    C25     1.406   .     A
C11    C87     1.404   .     S
C12    C26     1.403   .     A
C12    N76     1.437   .     S
C12    C166    1.401   1_455 S
C13    H29     1.084   .     S
C13    C23     1.397   .     A
C13    C17     1.395   .     A
C14    C18     1.397   .     A
C14    C24     1.402   .     A
C14    H30     1.083   .     S
C15    C19     1.394   .     A
C15    C24     1.400   .     A
C15    H31     1.084   .     S
C16    C20     1.396   .     A
C16    C23     1.396   .     A
C16    H32     1.084   .     S
C17    C21     1.420   .     A
C17    N55     1.434   .     S
C18    N58     1.433   .     S
C18    C22     1.406   .     A
C19    C22     1.405   .     A
C19    N61     1.430   .     S
C20    N64     1.429   .     S
C20    C21     1.416   .     A
C23    C726    1.469   1_554 S
C24    C725    1.469   .     S
Cu27   N33     2.033   .     S
Cu27   O39     1.957   .     S
Cu27   O35     1.958   .     S
Cu27   O41     1.968   .     S
Cu27   Cu28    2.706   .     S
Cu27   O37     1.968   .     S
Cu28   O40     1.957   .     S
Cu28   N34     2.033   .     S
Cu28   O38     1.968   .     S
Cu28   O42     1.968   .     S
Cu28   O36     1.958   .     S
N43    H44     1.027   .     S
N43    H45     1.043   .     S
N46    H48     1.044   .     S
N46    H47     1.033   .     S
N49    H51     1.046   .     S
N49    H50     1.046   .     S
N52    H54     1.046   .     S
N52    H53     1.045   .     S
N55    H56     1.046   .     S
N55    H57     1.046   .     S
N58    H60     1.046   .     S
N58    H59     1.045   .     S
N61    H63     1.045   .     S
N61    H62     1.045   .     S
N64    H66     1.046   .     S
N64    H65     1.046   .     S
N67    H68     1.045   .     S
N67    H69     1.045   .     S
N70    H71     1.045   .     S
N70    H72     1.044   .     S
N73    H74     1.045   .     S
N73    H75     1.045   .     S
N76    H78     1.045   .     S
N76    H77     1.045   .     S
C79    O116    1.300   .     A
C79    C104    1.449   .     S
C79    O113    1.295   .     A
C80    O114    1.297   .     A
C80    O115    1.300   .     A
C80    C103    1.453   .     S
C81    O120    1.311   .     A
C81    C99     1.483   .     S
C81    O117    1.303   .     A
C82    O119    1.301   .     A
C82    O118    1.298   .     A
C82    C100    1.456   .     S
C83    N121    1.434   .     S
C83    N112    1.393   .     A
C83    C554    1.429   1_545 S
C84    N124    1.426   .     S
C84    N111    1.385   .     A
C84    C319    1.423   .     S
C85    N127    1.431   .     S
C85    N112    1.360   .     A
C85    C552    1.423   1_545 S
C86    N130    1.433   .     S
C86    N111    1.357   .     A
C86    C317    1.429   .     S
C87    C104    1.405   .     A
C87    N145    1.434   .     S
C88    N148    1.431   .     S
C88    C103    1.405   .     A
C88    C168    1.401   .     S
C89    N151    1.437   .     S
C89    C103    1.406   .     A
C89    C165    1.404   .     S
C90    C104    1.403   .     A
C90    N154    1.437   .     S
C91    H107    1.084   .     S
C91    C101    1.397   .     A
C91    C95     1.395   .     A
C92    C96     1.397   .     A
C92    C102    1.402   .     A
C92    H108    1.083   .     S
C93    C97     1.394   .     A
C93    C102    1.400   .     A
C93    H109    1.084   .     S
C94    C98     1.396   .     A
C94    C101    1.396   .     A
C94    H110    1.084   .     S
C95    C99     1.420   .     A
C95    N133    1.434   .     S
C96    N136    1.433   .     S
C96    C100    1.406   .     A
C97    C100    1.405   .     A
C97    N139    1.430   .     S
C98    N142    1.429   .     S
C98    C99     1.416   .     A
C101   C804    1.469   1_554 S
C102   C803    1.469   .     S
Cu105  N111    2.033   .     S
Cu105  O117    1.957   .     S
Cu105  O113    1.958   .     S
Cu105  O119    1.968   .     S
Cu105  Cu106   2.706   .     S
Cu105  O115    1.968   .     S
Cu106  O118    1.957   .     S
Cu106  N112    2.033   .     S
Cu106  O116    1.968   .     S
Cu106  O120    1.968   .     S
Cu106  O114    1.958   .     S
N121   H122    1.027   .     S
N121   H123    1.043   .     S
N124   H126    1.044   .     S
N124   H125    1.033   .     S
N127   H129    1.046   .     S
N127   H128    1.046   .     S
N130   H132    1.046   .     S
N130   H131    1.045   .     S
N133   H134    1.046   .     S
N133   H135    1.046   .     S
N136   H138    1.046   .     S
N136   H137    1.045   .     S
N139   H141    1.045   .     S
N139   H140    1.045   .     S
N142   H144    1.046   .     S
N142   H143    1.046   .     S
N145   H146    1.045   .     S
N145   H147    1.045   .     S
N148   H149    1.045   .     S
N148   H150    1.044   .     S
N151   H152    1.045   .     S
N151   H153    1.045   .     S
N154   H156    1.045   .     S
N154   H155    1.045   .     S
C157   O194    1.300   .     A
C157   C182    1.449   .     S
C157   O191    1.295   .     A
C158   O192    1.297   .     A
C158   O193    1.300   .     A
C158   C181    1.453   .     S
C159   O198    1.311   .     A
C159   C177    1.483   .     S
C159   O195    1.303   .     A
C160   O197    1.301   .     A
C160   O196    1.298   .     A
C160   C178    1.456   .     S
C161   N199    1.434   .     S
C161   N190    1.393   .     A
C161   C632    1.429   1_545 S
C162   N202    1.426   .     S
C162   N189    1.385   .     A
C162   C397    1.423   .     S
C163   N205    1.431   .     S
C163   N190    1.360   .     A
C163   C630    1.423   1_545 S
C164   N208    1.433   .     S
C164   N189    1.357   .     A
C164   C395    1.429   .     S
C165   C182    1.405   .     A
C165   N223    1.434   .     S
C166   N226    1.431   .     S
C166   C181    1.405   .     A
C166   C12     1.401   1_655 S
C167   N229    1.437   .     S
C167   C181    1.406   .     A
C167   C9      1.404   1_655 S
C168   C182    1.403   .     A
C168   N232    1.437   .     S
C169   H185    1.084   .     S
C169   C179    1.397   .     A
C169   C173    1.395   .     A
C170   C174    1.397   .     A
C170   C180    1.402   .     A
C170   H186    1.083   .     S
C171   C175    1.394   .     A
C171   C180    1.400   .     A
C171   H187    1.084   .     S
C172   C176    1.396   .     A
C172   C179    1.396   .     A
C172   H188    1.084   .     S
C173   C177    1.420   .     A
C173   N211    1.434   .     S
C174   N214    1.433   .     S
C174   C178    1.406   .     A
C175   C178    1.405   .     A
C175   N217    1.430   .     S
C176   N220    1.429   .     S
C176   C177    1.416   .     A
C179   C882    1.469   1_554 S
C180   C881    1.469   .     S
Cu183  N189    2.033   .     S
Cu183  O195    1.957   .     S
Cu183  O191    1.958   .     S
Cu183  O197    1.968   .     S
Cu183  Cu184   2.706   .     S
Cu183  O193    1.968   .     S
Cu184  O196    1.957   .     S
Cu184  N190    2.033   .     S
Cu184  O194    1.968   .     S
Cu184  O198    1.968   .     S
Cu184  O192    1.958   .     S
N199   H200    1.027   .     S
N199   H201    1.043   .     S
N202   H204    1.044   .     S
N202   H203    1.033   .     S
N205   H207    1.046   .     S
N205   H206    1.046   .     S
N208   H210    1.046   .     S
N208   H209    1.045   .     S
N211   H212    1.046   .     S
N211   H213    1.046   .     S
N214   H216    1.046   .     S
N214   H215    1.045   .     S
N217   H219    1.045   .     S
N217   H218    1.045   .     S
N220   H222    1.046   .     S
N220   H221    1.046   .     S
N223   H224    1.045   .     S
N223   H225    1.045   .     S
N226   H227    1.045   .     S
N226   H228    1.044   .     S
N229   H230    1.045   .     S
N229   H231    1.045   .     S
N232   H234    1.045   .     S
N232   H233    1.045   .     S
C235   O272    1.300   .     A
C235   C260    1.449   .     S
C235   O269    1.295   .     A
C236   O270    1.297   .     A
C236   O271    1.300   .     A
C236   C259    1.453   .     S
C237   O276    1.311   .     A
C237   C255    1.483   .     S
C237   O273    1.303   .     A
C238   O275    1.301   .     A
C238   O274    1.298   .     A
C238   C256    1.456   .     S
C239   N277    1.434   .     S
C239   N268    1.393   .     A
C240   N280    1.426   .     S
C240   N267    1.385   .     A
C240   C475    1.423   .     S
C241   N283    1.431   .     S
C241   N268    1.360   .     A
C242   N286    1.433   .     S
C242   N267    1.357   .     A
C242   C473    1.429   .     S
C243   C260    1.405   .     A
C243   N301    1.434   .     S
C243   C401    1.404   1_455 S
C244   N304    1.431   .     S
C244   C259    1.405   .     A
C244   C324    1.401   .     S
C245   N307    1.437   .     S
C245   C259    1.406   .     A
C245   C321    1.404   .     S
C246   C260    1.403   .     A
C246   N310    1.437   .     S
C246   C400    1.401   1_455 S
C247   H263    1.084   .     S
C247   C257    1.397   .     A
C247   C251    1.395   .     A
C248   C252    1.397   .     A
C248   C258    1.402   .     A
C248   H264    1.083   .     S
C249   C253    1.394   .     A
C249   C258    1.400   .     A
C249   H265    1.084   .     S
C250   C254    1.396   .     A
C250   C257    1.396   .     A
C250   H266    1.084   .     S
C251   C255    1.420   .     A
C251   N289    1.434   .     S
C252   N292    1.433   .     S
C252   C256    1.406   .     A
C253   C256    1.405   .     A
C253   N295    1.430   .     S
C254   N298    1.429   .     S
C254   C255    1.416   .     A
C257   C960    1.469   1_554 S
C258   C959    1.469   .     S
Cu261  N267    2.033   .     S
Cu261  O273    1.957   .     S
Cu261  O269    1.958   .     S
Cu261  O275    1.968   .     S
Cu261  Cu262   2.706   .     S
Cu261  O271    1.968   .     S
Cu262  O274    1.957   .     S
Cu262  N268    2.033   .     S
Cu262  O272    1.968   .     S
Cu262  O276    1.968   .     S
Cu262  O270    1.958   .     S
N277   H278    1.027   .     S
N277   H279    1.043   .     S
N280   H282    1.044   .     S
N280   H281    1.033   .     S
N283   H285    1.046   .     S
N283   H284    1.046   .     S
N286   H288    1.046   .     S
N286   H287    1.045   .     S
N289   H290    1.046   .     S
N289   H291    1.046   .     S
N292   H294    1.046   .     S
N292   H293    1.045   .     S
N295   H297    1.045   .     S
N295   H296    1.045   .     S
N298   H300    1.046   .     S
N298   H299    1.046   .     S
N301   H302    1.045   .     S
N301   H303    1.045   .     S
N304   H305    1.045   .     S
N304   H306    1.044   .     S
N307   H308    1.045   .     S
N307   H309    1.045   .     S
N310   H312    1.045   .     S
N310   H311    1.045   .     S
C313   O350    1.300   .     A
C313   C338    1.449   .     S
C313   O347    1.295   .     A
C314   O348    1.297   .     A
C314   O349    1.300   .     A
C314   C337    1.453   .     S
C315   O354    1.311   .     A
C315   C333    1.483   .     S
C315   O351    1.303   .     A
C316   O353    1.301   .     A
C316   O352    1.298   .     A
C316   C334    1.456   .     S
C317   N355    1.434   .     S
C317   N346    1.393   .     A
C318   N358    1.426   .     S
C318   N345    1.385   .     A
C318   C553    1.423   .     S
C319   N361    1.431   .     S
C319   N346    1.360   .     A
C320   N364    1.433   .     S
C320   N345    1.357   .     A
C320   C551    1.429   .     S
C321   C338    1.405   .     A
C321   N379    1.434   .     S
C322   N382    1.431   .     S
C322   C337    1.405   .     A
C322   C402    1.401   .     S
C323   N385    1.437   .     S
C323   C337    1.406   .     A
C323   C399    1.404   .     S
C324   C338    1.403   .     A
C324   N388    1.437   .     S
C325   H341    1.084   .     S
C325   C335    1.397   .     A
C325   C329    1.395   .     A
C326   C330    1.397   .     A
C326   C336    1.402   .     A
C326   H342    1.083   .     S
C327   C331    1.394   .     A
C327   C336    1.400   .     A
C327   H343    1.084   .     S
C328   C332    1.396   .     A
C328   C335    1.396   .     A
C328   H344    1.084   .     S
C329   C333    1.420   .     A
C329   N367    1.434   .     S
C330   N370    1.433   .     S
C330   C334    1.406   .     A
C331   C334    1.405   .     A
C331   N373    1.430   .     S
C332   N376    1.429   .     S
C332   C333    1.416   .     A
C335   C1038   1.469   1_554 S
C336   C1037   1.469   .     S
Cu339  N345    2.033   .     S
Cu339  O351    1.957   .     S
Cu339  O347    1.958   .     S
Cu339  O353    1.968   .     S
Cu339  Cu340   2.706   .     S
Cu339  O349    1.968   .     S
Cu340  O352    1.957   .     S
Cu340  N346    2.033   .     S
Cu340  O350    1.968   .     S
Cu340  O354    1.968   .     S
Cu340  O348    1.958   .     S
N355   H356    1.027   .     S
N355   H357    1.043   .     S
N358   H360    1.044   .     S
N358   H359    1.033   .     S
N361   H363    1.046   .     S
N361   H362    1.046   .     S
N364   H366    1.046   .     S
N364   H365    1.045   .     S
N367   H368    1.046   .     S
N367   H369    1.046   .     S
N370   H372    1.046   .     S
N370   H371    1.045   .     S
N373   H375    1.045   .     S
N373   H374    1.045   .     S
N376   H378    1.046   .     S
N376   H377    1.046   .     S
N379   H380    1.045   .     S
N379   H381    1.045   .     S
N382   H383    1.045   .     S
N382   H384    1.044   .     S
N385   H386    1.045   .     S
N385   H387    1.045   .     S
N388   H390    1.045   .     S
N388   H389    1.045   .     S
C391   O428    1.300   .     A
C391   C416    1.449   .     S
C391   O425    1.295   .     A
C392   O426    1.297   .     A
C392   O427    1.300   .     A
C392   C415    1.453   .     S
C393   O432    1.311   .     A
C393   C411    1.483   .     S
C393   O429    1.303   .     A
C394   O431    1.301   .     A
C394   O430    1.298   .     A
C394   C412    1.456   .     S
C395   N433    1.434   .     S
C395   N424    1.393   .     A
C396   N436    1.426   .     S
C396   N423    1.385   .     A
C396   C631    1.423   .     S
C397   N439    1.431   .     S
C397   N424    1.360   .     A
C398   N442    1.433   .     S
C398   N423    1.357   .     A
C398   C629    1.429   .     S
C399   C416    1.405   .     A
C399   N457    1.434   .     S
C400   N460    1.431   .     S
C400   C415    1.405   .     A
C400   C246    1.401   1_655 S
C401   N463    1.437   .     S
C401   C415    1.406   .     A
C401   C243    1.404   1_655 S
C402   C416    1.403   .     A
C402   N466    1.437   .     S
C403   H419    1.084   .     S
C403   C413    1.397   .     A
C403   C407    1.395   .     A
C404   C408    1.397   .     A
C404   C414    1.402   .     A
C404   H420    1.083   .     S
C405   C409    1.394   .     A
C405   C414    1.400   .     A
C405   H421    1.084   .     S
C406   C410    1.396   .     A
C406   C413    1.396   .     A
C406   H422    1.084   .     S
C407   C411    1.420   .     A
C407   N445    1.434   .     S
C408   N448    1.433   .     S
C408   C412    1.406   .     A
C409   C412    1.405   .     A
C409   N451    1.430   .     S
C410   N454    1.429   .     S
C410   C411    1.416   .     A
C413   C1116   1.469   1_554 S
C414   C1115   1.469   .     S
Cu417  N423    2.033   .     S
Cu417  O429    1.957   .     S
Cu417  O425    1.958   .     S
Cu417  O431    1.968   .     S
Cu417  Cu418   2.706   .     S
Cu417  O427    1.968   .     S
Cu418  O430    1.957   .     S
Cu418  N424    2.033   .     S
Cu418  O428    1.968   .     S
Cu418  O432    1.968   .     S
Cu418  O426    1.958   .     S
N433   H434    1.027   .     S
N433   H435    1.043   .     S
N436   H438    1.044   .     S
N436   H437    1.033   .     S
N439   H441    1.046   .     S
N439   H440    1.046   .     S
N442   H444    1.046   .     S
N442   H443    1.045   .     S
N445   H446    1.046   .     S
N445   H447    1.046   .     S
N448   H450    1.046   .     S
N448   H449    1.045   .     S
N451   H453    1.045   .     S
N451   H452    1.045   .     S
N454   H456    1.046   .     S
N454   H455    1.046   .     S
N457   H458    1.045   .     S
N457   H459    1.045   .     S
N460   H461    1.045   .     S
N460   H462    1.044   .     S
N463   H464    1.045   .     S
N463   H465    1.045   .     S
N466   H468    1.045   .     S
N466   H467    1.045   .     S
C469   O506    1.300   .     A
C469   C494    1.449   .     S
C469   O503    1.295   .     A
C470   O504    1.297   .     A
C470   O505    1.300   .     A
C470   C493    1.453   .     S
C471   O510    1.311   .     A
C471   C489    1.483   .     S
C471   O507    1.303   .     A
C472   O509    1.301   .     A
C472   O508    1.298   .     A
C472   C490    1.456   .     S
C473   N511    1.434   .     S
C473   N502    1.393   .     A
C474   N514    1.426   .     S
C474   N501    1.385   .     A
C474   C7      1.423   1_565 S
C475   N517    1.431   .     S
C475   N502    1.360   .     A
C476   N520    1.433   .     S
C476   N501    1.357   .     A
C476   C5      1.429   1_565 S
C477   C494    1.405   .     A
C477   N535    1.434   .     S
C477   C635    1.404   1_455 S
C478   N538    1.431   .     S
C478   C493    1.405   .     A
C478   C558    1.401   .     S
C479   N541    1.437   .     S
C479   C493    1.406   .     A
C479   C555    1.404   .     S
C480   C494    1.403   .     A
C480   N544    1.437   .     S
C480   C634    1.401   1_455 S
C481   H497    1.084   .     S
C481   C491    1.397   .     A
C481   C485    1.395   .     A
C482   C486    1.397   .     A
C482   C492    1.402   .     A
C482   H498    1.083   .     S
C483   C487    1.394   .     A
C483   C492    1.400   .     A
C483   H499    1.084   .     S
C484   C488    1.396   .     A
C484   C491    1.396   .     A
C484   H500    1.084   .     S
C485   C489    1.420   .     A
C485   N523    1.434   .     S
C486   N526    1.433   .     S
C486   C490    1.406   .     A
C487   C490    1.405   .     A
C487   N529    1.430   .     S
C488   N532    1.429   .     S
C488   C489    1.416   .     A
C491   C1194   1.469   1_554 S
C492   C1193   1.469   .     S
Cu495  N501    2.033   .     S
Cu495  O507    1.957   .     S
Cu495  O503    1.958   .     S
Cu495  O509    1.968   .     S
Cu495  Cu496   2.706   .     S
Cu495  O505    1.968   .     S
Cu496  O508    1.957   .     S
Cu496  N502    2.033   .     S
Cu496  O506    1.968   .     S
Cu496  O510    1.968   .     S
Cu496  O504    1.958   .     S
N511   H512    1.027   .     S
N511   H513    1.043   .     S
N514   H516    1.044   .     S
N514   H515    1.033   .     S
N517   H519    1.046   .     S
N517   H518    1.046   .     S
N520   H522    1.046   .     S
N520   H521    1.045   .     S
N523   H524    1.046   .     S
N523   H525    1.046   .     S
N526   H528    1.046   .     S
N526   H527    1.045   .     S
N529   H531    1.045   .     S
N529   H530    1.045   .     S
N532   H534    1.046   .     S
N532   H533    1.046   .     S
N535   H536    1.045   .     S
N535   H537    1.045   .     S
N538   H539    1.045   .     S
N538   H540    1.044   .     S
N541   H542    1.045   .     S
N541   H543    1.045   .     S
N544   H546    1.045   .     S
N544   H545    1.045   .     S
C547   O584    1.300   .     A
C547   C572    1.449   .     S
C547   O581    1.295   .     A
C548   O582    1.297   .     A
C548   O583    1.300   .     A
C548   C571    1.453   .     S
C549   O588    1.311   .     A
C549   C567    1.483   .     S
C549   O585    1.303   .     A
C550   O587    1.301   .     A
C550   O586    1.298   .     A
C550   C568    1.456   .     S
C551   N589    1.434   .     S
C551   N580    1.393   .     A
C552   N592    1.426   .     S
C552   N579    1.385   .     A
C552   C85     1.423   1_565 S
C553   N595    1.431   .     S
C553   N580    1.360   .     A
C554   N598    1.433   .     S
C554   N579    1.357   .     A
C554   C83     1.429   1_565 S
C555   C572    1.405   .     A
C555   N613    1.434   .     S
C556   N616    1.431   .     S
C556   C571    1.405   .     A
C556   C636    1.401   .     S
C557   N619    1.437   .     S
C557   C571    1.406   .     A
C557   C633    1.404   .     S
C558   C572    1.403   .     A
C558   N622    1.437   .     S
C559   H575    1.084   .     S
C559   C569    1.397   .     A
C559   C563    1.395   .     A
C560   C564    1.397   .     A
C560   C570    1.402   .     A
C560   H576    1.083   .     S
C561   C565    1.394   .     A
C561   C570    1.400   .     A
C561   H577    1.084   .     S
C562   C566    1.396   .     A
C562   C569    1.396   .     A
C562   H578    1.084   .     S
C563   C567    1.420   .     A
C563   N601    1.434   .     S
C564   N604    1.433   .     S
C564   C568    1.406   .     A
C565   C568    1.405   .     A
C565   N607    1.430   .     S
C566   N610    1.429   .     S
C566   C567    1.416   .     A
C569   C1272   1.469   1_554 S
C570   C1271   1.469   .     S
Cu573  N579    2.033   .     S
Cu573  O585    1.957   .     S
Cu573  O581    1.958   .     S
Cu573  O587    1.968   .     S
Cu573  Cu574   2.706   .     S
Cu573  O583    1.968   .     S
Cu574  O586    1.957   .     S
Cu574  N580    2.033   .     S
Cu574  O584    1.968   .     S
Cu574  O588    1.968   .     S
Cu574  O582    1.958   .     S
N589   H590    1.027   .     S
N589   H591    1.043   .     S
N592   H594    1.044   .     S
N592   H593    1.033   .     S
N595   H597    1.046   .     S
N595   H596    1.046   .     S
N598   H600    1.046   .     S
N598   H599    1.045   .     S
N601   H602    1.046   .     S
N601   H603    1.046   .     S
N604   H606    1.046   .     S
N604   H605    1.045   .     S
N607   H609    1.045   .     S
N607   H608    1.045   .     S
N610   H612    1.046   .     S
N610   H611    1.046   .     S
N613   H614    1.045   .     S
N613   H615    1.045   .     S
N616   H617    1.045   .     S
N616   H618    1.044   .     S
N619   H620    1.045   .     S
N619   H621    1.045   .     S
N622   H624    1.045   .     S
N622   H623    1.045   .     S
C625   O662    1.300   .     A
C625   C650    1.449   .     S
C625   O659    1.295   .     A
C626   O660    1.297   .     A
C626   O661    1.300   .     A
C626   C649    1.453   .     S
C627   O666    1.311   .     A
C627   C645    1.483   .     S
C627   O663    1.303   .     A
C628   O665    1.301   .     A
C628   O664    1.298   .     A
C628   C646    1.456   .     S
C629   N667    1.434   .     S
C629   N658    1.393   .     A
C630   N670    1.426   .     S
C630   N657    1.385   .     A
C630   C163    1.423   1_565 S
C631   N673    1.431   .     S
C631   N658    1.360   .     A
C632   N676    1.433   .     S
C632   N657    1.357   .     A
C632   C161    1.429   1_565 S
C633   C650    1.405   .     A
C633   N691    1.434   .     S
C634   N694    1.431   .     S
C634   C649    1.405   .     A
C634   C480    1.401   1_655 S
C635   N697    1.437   .     S
C635   C649    1.406   .     A
C635   C477    1.404   1_655 S
C636   C650    1.403   .     A
C636   N700    1.437   .     S
C637   H653    1.084   .     S
C637   C647    1.397   .     A
C637   C641    1.395   .     A
C638   C642    1.397   .     A
C638   C648    1.402   .     A
C638   H654    1.083   .     S
C639   C643    1.394   .     A
C639   C648    1.400   .     A
C639   H655    1.084   .     S
C640   C644    1.396   .     A
C640   C647    1.396   .     A
C640   H656    1.084   .     S
C641   C645    1.420   .     A
C641   N679    1.434   .     S
C642   N682    1.433   .     S
C642   C646    1.406   .     A
C643   C646    1.405   .     A
C643   N685    1.430   .     S
C644   N688    1.429   .     S
C644   C645    1.416   .     A
C647   C1350   1.469   1_554 S
C648   C1349   1.469   .     S
Cu651  N657    2.033   .     S
Cu651  O663    1.957   .     S
Cu651  O659    1.958   .     S
Cu651  O665    1.968   .     S
Cu651  Cu652   2.706   .     S
Cu651  O661    1.968   .     S
Cu652  O664    1.957   .     S
Cu652  N658    2.033   .     S
Cu652  O662    1.968   .     S
Cu652  O666    1.968   .     S
Cu652  O660    1.958   .     S
N667   H668    1.027   .     S
N667   H669    1.043   .     S
N670   H672    1.044   .     S
N670   H671    1.033   .     S
N673   H675    1.046   .     S
N673   H674    1.046   .     S
N676   H678    1.046   .     S
N676   H677    1.045   .     S
N679   H680    1.046   .     S
N679   H681    1.046   .     S
N682   H684    1.046   .     S
N682   H683    1.045   .     S
N685   H687    1.045   .     S
N685   H686    1.045   .     S
N688   H690    1.046   .     S
N688   H689    1.046   .     S
N691   H692    1.045   .     S
N691   H693    1.045   .     S
N694   H695    1.045   .     S
N694   H696    1.044   .     S
N697   H698    1.045   .     S
N697   H699    1.045   .     S
N700   H702    1.045   .     S
N700   H701    1.045   .     S
C703   O740    1.300   .     A
C703   C728    1.449   .     S
C703   O737    1.295   .     A
C704   O738    1.297   .     A
C704   O739    1.300   .     A
C704   C727    1.453   .     S
C705   O744    1.311   .     A
C705   C723    1.483   .     S
C705   O741    1.303   .     A
C706   O743    1.301   .     A
C706   O742    1.298   .     A
C706   C724    1.456   .     S
C707   N745    1.434   .     S
C707   N736    1.393   .     A
C707   C1178   1.429   1_545 S
C708   N748    1.426   .     S
C708   N735    1.385   .     A
C708   C943    1.423   .     S
C709   N751    1.431   .     S
C709   N736    1.360   .     A
C709   C1176   1.423   1_545 S
C710   N754    1.433   .     S
C710   N735    1.357   .     A
C710   C941    1.429   .     S
C711   C728    1.405   .     A
C711   N769    1.434   .     S
C711   C869    1.404   1_455 S
C712   N772    1.431   .     S
C712   C727    1.405   .     A
C712   C792    1.401   .     S
C713   N775    1.437   .     S
C713   C727    1.406   .     A
C713   C789    1.404   .     S
C714   C728    1.403   .     A
C714   N778    1.437   .     S
C714   C868    1.401   1_455 S
C715   H731    1.084   .     S
C715   C725    1.397   .     A
C715   C719    1.395   .     A
C716   C720    1.397   .     A
C716   C726    1.402   .     A
C716   H732    1.083   .     S
C717   C721    1.394   .     A
C717   C726    1.400   .     A
C717   H733    1.084   .     S
C718   C722    1.396   .     A
C718   C725    1.396   .     A
C718   H734    1.084   .     S
C719   C723    1.420   .     A
C719   N757    1.434   .     S
C720   N760    1.433   .     S
C720   C724    1.406   .     A
C721   C724    1.405   .     A
C721   N763    1.430   .     S
C722   N766    1.429   .     S
C722   C723    1.416   .     A
C726   C23     1.469   1_556 S
Cu729  N735    2.033   .     S
Cu729  O741    1.957   .     S
Cu729  O737    1.958   .     S
Cu729  O743    1.968   .     S
Cu729  Cu730   2.706   .     S
Cu729  O739    1.968   .     S
Cu730  O742    1.957   .     S
Cu730  N736    2.033   .     S
Cu730  O740    1.968   .     S
Cu730  O744    1.968   .     S
Cu730  O738    1.958   .     S
N745   H746    1.027   .     S
N745   H747    1.043   .     S
N748   H750    1.044   .     S
N748   H749    1.033   .     S
N751   H753    1.046   .     S
N751   H752    1.046   .     S
N754   H756    1.046   .     S
N754   H755    1.045   .     S
N757   H758    1.046   .     S
N757   H759    1.046   .     S
N760   H762    1.046   .     S
N760   H761    1.045   .     S
N763   H765    1.045   .     S
N763   H764    1.045   .     S
N766   H768    1.046   .     S
N766   H767    1.046   .     S
N769   H770    1.045   .     S
N769   H771    1.045   .     S
N772   H773    1.045   .     S
N772   H774    1.044   .     S
N775   H776    1.045   .     S
N775   H777    1.045   .     S
N778   H780    1.045   .     S
N778   H779    1.045   .     S
C781   O818    1.300   .     A
C781   C806    1.449   .     S
C781   O815    1.295   .     A
C782   O816    1.297   .     A
C782   O817    1.300   .     A
C782   C805    1.453   .     S
C783   O822    1.311   .     A
C783   C801    1.483   .     S
C783   O819    1.303   .     A
C784   O821    1.301   .     A
C784   O820    1.298   .     A
C784   C802    1.456   .     S
C785   N823    1.434   .     S
C785   N814    1.393   .     A
C785   C1256   1.429   1_545 S
C786   N826    1.426   .     S
C786   N813    1.385   .     A
C786   C1021   1.423   .     S
C787   N829    1.431   .     S
C787   N814    1.360   .     A
C787   C1254   1.423   1_545 S
C788   N832    1.433   .     S
C788   N813    1.357   .     A
C788   C1019   1.429   .     S
C789   C806    1.405   .     A
C789   N847    1.434   .     S
C790   N850    1.431   .     S
C790   C805    1.405   .     A
C790   C870    1.401   .     S
C791   N853    1.437   .     S
C791   C805    1.406   .     A
C791   C867    1.404   .     S
C792   C806    1.403   .     A
C792   N856    1.437   .     S
C793   H809    1.084   .     S
C793   C803    1.397   .     A
C793   C797    1.395   .     A
C794   C798    1.397   .     A
C794   C804    1.402   .     A
C794   H810    1.083   .     S
C795   C799    1.394   .     A
C795   C804    1.400   .     A
C795   H811    1.084   .     S
C796   C800    1.396   .     A
C796   C803    1.396   .     A
C796   H812    1.084   .     S
C797   C801    1.420   .     A
C797   N835    1.434   .     S
C798   N838    1.433   .     S
C798   C802    1.406   .     A
C799   C802    1.405   .     A
C799   N841    1.430   .     S
C800   N844    1.429   .     S
C800   C801    1.416   .     A
C804   C101    1.469   1_556 S
Cu807  N813    2.033   .     S
Cu807  O819    1.957   .     S
Cu807  O815    1.958   .     S
Cu807  O821    1.968   .     S
Cu807  Cu808   2.706   .     S
Cu807  O817    1.968   .     S
Cu808  O820    1.957   .     S
Cu808  N814    2.033   .     S
Cu808  O818    1.968   .     S
Cu808  O822    1.968   .     S
Cu808  O816    1.958   .     S
N823   H824    1.027   .     S
N823   H825    1.043   .     S
N826   H828    1.044   .     S
N826   H827    1.033   .     S
N829   H831    1.046   .     S
N829   H830    1.046   .     S
N832   H834    1.046   .     S
N832   H833    1.045   .     S
N835   H836    1.046   .     S
N835   H837    1.046   .     S
N838   H840    1.046   .     S
N838   H839    1.045   .     S
N841   H843    1.045   .     S
N841   H842    1.045   .     S
N844   H846    1.046   .     S
N844   H845    1.046   .     S
N847   H848    1.045   .     S
N847   H849    1.045   .     S
N850   H851    1.045   .     S
N850   H852    1.044   .     S
N853   H854    1.045   .     S
N853   H855    1.045   .     S
N856   H858    1.045   .     S
N856   H857    1.045   .     S
C859   O896    1.300   .     A
C859   C884    1.449   .     S
C859   O893    1.295   .     A
C860   O894    1.297   .     A
C860   O895    1.300   .     A
C860   C883    1.453   .     S
C861   O900    1.311   .     A
C861   C879    1.483   .     S
C861   O897    1.303   .     A
C862   O899    1.301   .     A
C862   O898    1.298   .     A
C862   C880    1.456   .     S
C863   N901    1.434   .     S
C863   N892    1.393   .     A
C863   C1334   1.429   1_545 S
C864   N904    1.426   .     S
C864   N891    1.385   .     A
C864   C1099   1.423   .     S
C865   N907    1.431   .     S
C865   N892    1.360   .     A
C865   C1332   1.423   1_545 S
C866   N910    1.433   .     S
C866   N891    1.357   .     A
C866   C1097   1.429   .     S
C867   C884    1.405   .     A
C867   N925    1.434   .     S
C868   N928    1.431   .     S
C868   C883    1.405   .     A
C868   C714    1.401   1_655 S
C869   N931    1.437   .     S
C869   C883    1.406   .     A
C869   C711    1.404   1_655 S
C870   C884    1.403   .     A
C870   N934    1.437   .     S
C871   H887    1.084   .     S
C871   C881    1.397   .     A
C871   C875    1.395   .     A
C872   C876    1.397   .     A
C872   C882    1.402   .     A
C872   H888    1.083   .     S
C873   C877    1.394   .     A
C873   C882    1.400   .     A
C873   H889    1.084   .     S
C874   C878    1.396   .     A
C874   C881    1.396   .     A
C874   H890    1.084   .     S
C875   C879    1.420   .     A
C875   N913    1.434   .     S
C876   N916    1.433   .     S
C876   C880    1.406   .     A
C877   C880    1.405   .     A
C877   N919    1.430   .     S
C878   N922    1.429   .     S
C878   C879    1.416   .     A
C882   C179    1.469   1_556 S
Cu885  N891    2.033   .     S
Cu885  O897    1.957   .     S
Cu885  O893    1.958   .     S
Cu885  O899    1.968   .     S
Cu885  Cu886   2.706   .     S
Cu885  O895    1.968   .     S
Cu886  O898    1.957   .     S
Cu886  N892    2.033   .     S
Cu886  O896    1.968   .     S
Cu886  O900    1.968   .     S
Cu886  O894    1.958   .     S
N901   H902    1.027   .     S
N901   H903    1.043   .     S
N904   H906    1.044   .     S
N904   H905    1.033   .     S
N907   H909    1.046   .     S
N907   H908    1.046   .     S
N910   H912    1.046   .     S
N910   H911    1.045   .     S
N913   H914    1.046   .     S
N913   H915    1.046   .     S
N916   H918    1.046   .     S
N916   H917    1.045   .     S
N919   H921    1.045   .     S
N919   H920    1.045   .     S
N922   H924    1.046   .     S
N922   H923    1.046   .     S
N925   H926    1.045   .     S
N925   H927    1.045   .     S
N928   H929    1.045   .     S
N928   H930    1.044   .     S
N931   H932    1.045   .     S
N931   H933    1.045   .     S
N934   H936    1.045   .     S
N934   H935    1.045   .     S
C937   O974    1.300   .     A
C937   C962    1.449   .     S
C937   O971    1.295   .     A
C938   O972    1.297   .     A
C938   O973    1.300   .     A
C938   C961    1.453   .     S
C939   O978    1.311   .     A
C939   C957    1.483   .     S
C939   O975    1.303   .     A
C940   O977    1.301   .     A
C940   O976    1.298   .     A
C940   C958    1.456   .     S
C941   N979    1.434   .     S
C941   N970    1.393   .     A
C942   N982    1.426   .     S
C942   N969    1.385   .     A
C942   C1177   1.423   .     S
C943   N985    1.431   .     S
C943   N970    1.360   .     A
C944   N988    1.433   .     S
C944   N969    1.357   .     A
C944   C1175   1.429   .     S
C945   C962    1.405   .     A
C945   N1003   1.434   .     S
C945   C1103   1.404   1_455 S
C946   N1006   1.431   .     S
C946   C961    1.405   .     A
C946   C1026   1.401   .     S
C947   N1009   1.437   .     S
C947   C961    1.406   .     A
C947   C1023   1.404   .     S
C948   C962    1.403   .     A
C948   N1012   1.437   .     S
C948   C1102   1.401   1_455 S
C949   H965    1.084   .     S
C949   C959    1.397   .     A
C949   C953    1.395   .     A
C950   C954    1.397   .     A
C950   C960    1.402   .     A
C950   H966    1.083   .     S
C951   C955    1.394   .     A
C951   C960    1.400   .     A
C951   H967    1.084   .     S
C952   C956    1.396   .     A
C952   C959    1.396   .     A
C952   H968    1.084   .     S
C953   C957    1.420   .     A
C953   N991    1.434   .     S
C954   N994    1.433   .     S
C954   C958    1.406   .     A
C955   C958    1.405   .     A
C955   N997    1.430   .     S
C956   N1000   1.429   .     S
C956   C957    1.416   .     A
C960   C257    1.469   1_556 S
Cu963  N969    2.033   .     S
Cu963  O975    1.957   .     S
Cu963  O971    1.958   .     S
Cu963  O977    1.968   .     S
Cu963  Cu964   2.706   .     S
Cu963  O973    1.968   .     S
Cu964  O976    1.957   .     S
Cu964  N970    2.033   .     S
Cu964  O974    1.968   .     S
Cu964  O978    1.968   .     S
Cu964  O972    1.958   .     S
N979   H980    1.027   .     S
N979   H981    1.043   .     S
N982   H984    1.044   .     S
N982   H983    1.033   .     S
N985   H987    1.046   .     S
N985   H986    1.046   .     S
N988   H990    1.046   .     S
N988   H989    1.045   .     S
N991   H992    1.046   .     S
N991   H993    1.046   .     S
N994   H996    1.046   .     S
N994   H995    1.045   .     S
N997   H999    1.045   .     S
N997   H998    1.045   .     S
N1000  H1002   1.046   .     S
N1000  H1001   1.046   .     S
N1003  H1004   1.045   .     S
N1003  H1005   1.045   .     S
N1006  H1007   1.045   .     S
N1006  H1008   1.044   .     S
N1009  H1010   1.045   .     S
N1009  H1011   1.045   .     S
N1012  H1014   1.045   .     S
N1012  H1013   1.045   .     S
C1015  O1052   1.300   .     A
C1015  C1040   1.449   .     S
C1015  O1049   1.295   .     A
C1016  O1050   1.297   .     A
C1016  O1051   1.300   .     A
C1016  C1039   1.453   .     S
C1017  O1056   1.311   .     A
C1017  C1035   1.483   .     S
C1017  O1053   1.303   .     A
C1018  O1055   1.301   .     A
C1018  O1054   1.298   .     A
C1018  C1036   1.456   .     S
C1019  N1057   1.434   .     S
C1019  N1048   1.393   .     A
C1020  N1060   1.426   .     S
C1020  N1047   1.385   .     A
C1020  C1255   1.423   .     S
C1021  N1063   1.431   .     S
C1021  N1048   1.360   .     A
C1022  N1066   1.433   .     S
C1022  N1047   1.357   .     A
C1022  C1253   1.429   .     S
C1023  C1040   1.405   .     A
C1023  N1081   1.434   .     S
C1024  N1084   1.431   .     S
C1024  C1039   1.405   .     A
C1024  C1104   1.401   .     S
C1025  N1087   1.437   .     S
C1025  C1039   1.406   .     A
C1025  C1101   1.404   .     S
C1026  C1040   1.403   .     A
C1026  N1090   1.437   .     S
C1027  H1043   1.084   .     S
C1027  C1037   1.397   .     A
C1027  C1031   1.395   .     A
C1028  C1032   1.397   .     A
C1028  C1038   1.402   .     A
C1028  H1044   1.083   .     S
C1029  C1033   1.394   .     A
C1029  C1038   1.400   .     A
C1029  H1045   1.084   .     S
C1030  C1034   1.396   .     A
C1030  C1037   1.396   .     A
C1030  H1046   1.084   .     S
C1031  C1035   1.420   .     A
C1031  N1069   1.434   .     S
C1032  N1072   1.433   .     S
C1032  C1036   1.406   .     A
C1033  C1036   1.405   .     A
C1033  N1075   1.430   .     S
C1034  N1078   1.429   .     S
C1034  C1035   1.416   .     A
C1038  C335    1.469   1_556 S
Cu1041 N1047   2.033   .     S
Cu1041 O1053   1.957   .     S
Cu1041 O1049   1.958   .     S
Cu1041 O1055   1.968   .     S
Cu1041 Cu1042  2.706   .     S
Cu1041 O1051   1.968   .     S
Cu1042 O1054   1.957   .     S
Cu1042 N1048   2.033   .     S
Cu1042 O1052   1.968   .     S
Cu1042 O1056   1.968   .     S
Cu1042 O1050   1.958   .     S
N1057  H1058   1.027   .     S
N1057  H1059   1.043   .     S
N1060  H1062   1.044   .     S
N1060  H1061   1.033   .     S
N1063  H1065   1.046   .     S
N1063  H1064   1.046   .     S
N1066  H1068   1.046   .     S
N1066  H1067   1.045   .     S
N1069  H1070   1.046   .     S
N1069  H1071   1.046   .     S
N1072  H1074   1.046   .     S
N1072  H1073   1.045   .     S
N1075  H1077   1.045   .     S
N1075  H1076   1.045   .     S
N1078  H1080   1.046   .     S
N1078  H1079   1.046   .     S
N1081  H1082   1.045   .     S
N1081  H1083   1.045   .     S
N1084  H1085   1.045   .     S
N1084  H1086   1.044   .     S
N1087  H1088   1.045   .     S
N1087  H1089   1.045   .     S
N1090  H1092   1.045   .     S
N1090  H1091   1.045   .     S
C1093  O1130   1.300   .     A
C1093  C1118   1.449   .     S
C1093  O1127   1.295   .     A
C1094  O1128   1.297   .     A
C1094  O1129   1.300   .     A
C1094  C1117   1.453   .     S
C1095  O1134   1.311   .     A
C1095  C1113   1.483   .     S
C1095  O1131   1.303   .     A
C1096  O1133   1.301   .     A
C1096  O1132   1.298   .     A
C1096  C1114   1.456   .     S
C1097  N1135   1.434   .     S
C1097  N1126   1.393   .     A
C1098  N1138   1.426   .     S
C1098  N1125   1.385   .     A
C1098  C1333   1.423   .     S
C1099  N1141   1.431   .     S
C1099  N1126   1.360   .     A
C1100  N1144   1.433   .     S
C1100  N1125   1.357   .     A
C1100  C1331   1.429   .     S
C1101  C1118   1.405   .     A
C1101  N1159   1.434   .     S
C1102  N1162   1.431   .     S
C1102  C1117   1.405   .     A
C1102  C948    1.401   1_655 S
C1103  N1165   1.437   .     S
C1103  C1117   1.406   .     A
C1103  C945    1.404   1_655 S
C1104  C1118   1.403   .     A
C1104  N1168   1.437   .     S
C1105  H1121   1.084   .     S
C1105  C1115   1.397   .     A
C1105  C1109   1.395   .     A
C1106  C1110   1.397   .     A
C1106  C1116   1.402   .     A
C1106  H1122   1.083   .     S
C1107  C1111   1.394   .     A
C1107  C1116   1.400   .     A
C1107  H1123   1.084   .     S
C1108  C1112   1.396   .     A
C1108  C1115   1.396   .     A
C1108  H1124   1.084   .     S
C1109  C1113   1.420   .     A
C1109  N1147   1.434   .     S
C1110  N1150   1.433   .     S
C1110  C1114   1.406   .     A
C1111  C1114   1.405   .     A
C1111  N1153   1.430   .     S
C1112  N1156   1.429   .     S
C1112  C1113   1.416   .     A
C1116  C413    1.469   1_556 S
Cu1119 N1125   2.033   .     S
Cu1119 O1131   1.957   .     S
Cu1119 O1127   1.958   .     S
Cu1119 O1133   1.968   .     S
Cu1119 Cu1120  2.706   .     S
Cu1119 O1129   1.968   .     S
Cu1120 O1132   1.957   .     S
Cu1120 N1126   2.033   .     S
Cu1120 O1130   1.968   .     S
Cu1120 O1134   1.968   .     S
Cu1120 O1128   1.958   .     S
N1135  H1136   1.027   .     S
N1135  H1137   1.043   .     S
N1138  H1140   1.044   .     S
N1138  H1139   1.033   .     S
N1141  H1143   1.046   .     S
N1141  H1142   1.046   .     S
N1144  H1146   1.046   .     S
N1144  H1145   1.045   .     S
N1147  H1148   1.046   .     S
N1147  H1149   1.046   .     S
N1150  H1152   1.046   .     S
N1150  H1151   1.045   .     S
N1153  H1155   1.045   .     S
N1153  H1154   1.045   .     S
N1156  H1158   1.046   .     S
N1156  H1157   1.046   .     S
N1159  H1160   1.045   .     S
N1159  H1161   1.045   .     S
N1162  H1163   1.045   .     S
N1162  H1164   1.044   .     S
N1165  H1166   1.045   .     S
N1165  H1167   1.045   .     S
N1168  H1170   1.045   .     S
N1168  H1169   1.045   .     S
C1171  O1208   1.300   .     A
C1171  C1196   1.449   .     S
C1171  O1205   1.295   .     A
C1172  O1206   1.297   .     A
C1172  O1207   1.300   .     A
C1172  C1195   1.453   .     S
C1173  O1212   1.311   .     A
C1173  C1191   1.483   .     S
C1173  O1209   1.303   .     A
C1174  O1211   1.301   .     A
C1174  O1210   1.298   .     A
C1174  C1192   1.456   .     S
C1175  N1213   1.434   .     S
C1175  N1204   1.393   .     A
C1176  N1216   1.426   .     S
C1176  N1203   1.385   .     A
C1176  C709    1.423   1_565 S
C1177  N1219   1.431   .     S
C1177  N1204   1.360   .     A
C1178  N1222   1.433   .     S
C1178  N1203   1.357   .     A
C1178  C707    1.429   1_565 S
C1179  C1196   1.405   .     A
C1179  N1237   1.434   .     S
C1179  C1337   1.404   1_455 S
C1180  N1240   1.431   .     S
C1180  C1195   1.405   .     A
C1180  C1260   1.401   .     S
C1181  N1243   1.437   .     S
C1181  C1195   1.406   .     A
C1181  C1257   1.404   .     S
C1182  C1196   1.403   .     A
C1182  N1246   1.437   .     S
C1182  C1336   1.401   1_455 S
C1183  H1199   1.084   .     S
C1183  C1193   1.397   .     A
C1183  C1187   1.395   .     A
C1184  C1188   1.397   .     A
C1184  C1194   1.402   .     A
C1184  H1200   1.083   .     S
C1185  C1189   1.394   .     A
C1185  C1194   1.400   .     A
C1185  H1201   1.084   .     S
C1186  C1190   1.396   .     A
C1186  C1193   1.396   .     A
C1186  H1202   1.084   .     S
C1187  C1191   1.420   .     A
C1187  N1225   1.434   .     S
C1188  N1228   1.433   .     S
C1188  C1192   1.406   .     A
C1189  C1192   1.405   .     A
C1189  N1231   1.430   .     S
C1190  N1234   1.429   .     S
C1190  C1191   1.416   .     A
C1194  C491    1.469   1_556 S
Cu1197 N1203   2.033   .     S
Cu1197 O1209   1.957   .     S
Cu1197 O1205   1.958   .     S
Cu1197 O1211   1.968   .     S
Cu1197 Cu1198  2.706   .     S
Cu1197 O1207   1.968   .     S
Cu1198 O1210   1.957   .     S
Cu1198 N1204   2.033   .     S
Cu1198 O1208   1.968   .     S
Cu1198 O1212   1.968   .     S
Cu1198 O1206   1.958   .     S
N1213  H1214   1.027   .     S
N1213  H1215   1.043   .     S
N1216  H1218   1.044   .     S
N1216  H1217   1.033   .     S
N1219  H1221   1.046   .     S
N1219  H1220   1.046   .     S
N1222  H1224   1.046   .     S
N1222  H1223   1.045   .     S
N1225  H1226   1.046   .     S
N1225  H1227   1.046   .     S
N1228  H1230   1.046   .     S
N1228  H1229   1.045   .     S
N1231  H1233   1.045   .     S
N1231  H1232   1.045   .     S
N1234  H1236   1.046   .     S
N1234  H1235   1.046   .     S
N1237  H1238   1.045   .     S
N1237  H1239   1.045   .     S
N1240  H1241   1.045   .     S
N1240  H1242   1.044   .     S
N1243  H1244   1.045   .     S
N1243  H1245   1.045   .     S
N1246  H1248   1.045   .     S
N1246  H1247   1.045   .     S
C1249  O1286   1.300   .     A
C1249  C1274   1.449   .     S
C1249  O1283   1.295   .     A
C1250  O1284   1.297   .     A
C1250  O1285   1.300   .     A
C1250  C1273   1.453   .     S
C1251  O1290   1.311   .     A
C1251  C1269   1.483   .     S
C1251  O1287   1.303   .     A
C1252  O1289   1.301   .     A
C1252  O1288   1.298   .     A
C1252  C1270   1.456   .     S
C1253  N1291   1.434   .     S
C1253  N1282   1.393   .     A
C1254  N1294   1.426   .     S
C1254  N1281   1.385   .     A
C1254  C787    1.423   1_565 S
C1255  N1297   1.431   .     S
C1255  N1282   1.360   .     A
C1256  N1300   1.433   .     S
C1256  N1281   1.357   .     A
C1256  C785    1.429   1_565 S
C1257  C1274   1.405   .     A
C1257  N1315   1.434   .     S
C1258  N1318   1.431   .     S
C1258  C1273   1.405   .     A
C1258  C1338   1.401   .     S
C1259  N1321   1.437   .     S
C1259  C1273   1.406   .     A
C1259  C1335   1.404   .     S
C1260  C1274   1.403   .     A
C1260  N1324   1.437   .     S
C1261  H1277   1.084   .     S
C1261  C1271   1.397   .     A
C1261  C1265   1.395   .     A
C1262  C1266   1.397   .     A
C1262  C1272   1.402   .     A
C1262  H1278   1.083   .     S
C1263  C1267   1.394   .     A
C1263  C1272   1.400   .     A
C1263  H1279   1.084   .     S
C1264  C1268   1.396   .     A
C1264  C1271   1.396   .     A
C1264  H1280   1.084   .     S
C1265  C1269   1.420   .     A
C1265  N1303   1.434   .     S
C1266  N1306   1.433   .     S
C1266  C1270   1.406   .     A
C1267  C1270   1.405   .     A
C1267  N1309   1.430   .     S
C1268  N1312   1.429   .     S
C1268  C1269   1.416   .     A
C1272  C569    1.469   1_556 S
Cu1275 N1281   2.033   .     S
Cu1275 O1287   1.957   .     S
Cu1275 O1283   1.958   .     S
Cu1275 O1289   1.968   .     S
Cu1275 Cu1276  2.706   .     S
Cu1275 O1285   1.968   .     S
Cu1276 O1288   1.957   .     S
Cu1276 N1282   2.033   .     S
Cu1276 O1286   1.968   .     S
Cu1276 O1290   1.968   .     S
Cu1276 O1284   1.958   .     S
N1291  H1292   1.027   .     S
N1291  H1293   1.043   .     S
N1294  H1296   1.044   .     S
N1294  H1295   1.033   .     S
N1297  H1299   1.046   .     S
N1297  H1298   1.046   .     S
N1300  H1302   1.046   .     S
N1300  H1301   1.045   .     S
N1303  H1304   1.046   .     S
N1303  H1305   1.046   .     S
N1306  H1308   1.046   .     S
N1306  H1307   1.045   .     S
N1309  H1311   1.045   .     S
N1309  H1310   1.045   .     S
N1312  H1314   1.046   .     S
N1312  H1313   1.046   .     S
N1315  H1316   1.045   .     S
N1315  H1317   1.045   .     S
N1318  H1319   1.045   .     S
N1318  H1320   1.044   .     S
N1321  H1322   1.045   .     S
N1321  H1323   1.045   .     S
N1324  H1326   1.045   .     S
N1324  H1325   1.045   .     S
C1327  O1364   1.300   .     A
C1327  C1352   1.449   .     S
C1327  O1361   1.295   .     A
C1328  O1362   1.297   .     A
C1328  O1363   1.300   .     A
C1328  C1351   1.453   .     S
C1329  O1368   1.311   .     A
C1329  C1347   1.483   .     S
C1329  O1365   1.303   .     A
C1330  O1367   1.301   .     A
C1330  O1366   1.298   .     A
C1330  C1348   1.456   .     S
C1331  N1369   1.434   .     S
C1331  N1360   1.393   .     A
C1332  N1372   1.426   .     S
C1332  N1359   1.385   .     A
C1332  C865    1.423   1_565 S
C1333  N1375   1.431   .     S
C1333  N1360   1.360   .     A
C1334  N1378   1.433   .     S
C1334  N1359   1.357   .     A
C1334  C863    1.429   1_565 S
C1335  C1352   1.405   .     A
C1335  N1393   1.434   .     S
C1336  N1396   1.431   .     S
C1336  C1351   1.405   .     A
C1336  C1182   1.401   1_655 S
C1337  N1399   1.437   .     S
C1337  C1351   1.406   .     A
C1337  C1179   1.404   1_655 S
C1338  C1352   1.403   .     A
C1338  N1402   1.437   .     S
C1339  H1355   1.084   .     S
C1339  C1349   1.397   .     A
C1339  C1343   1.395   .     A
C1340  C1344   1.397   .     A
C1340  C1350   1.402   .     A
C1340  H1356   1.083   .     S
C1341  C1345   1.394   .     A
C1341  C1350   1.400   .     A
C1341  H1357   1.084   .     S
C1342  C1346   1.396   .     A
C1342  C1349   1.396   .     A
C1342  H1358   1.084   .     S
C1343  C1347   1.420   .     A
C1343  N1381   1.434   .     S
C1344  N1384   1.433   .     S
C1344  C1348   1.406   .     A
C1345  C1348   1.405   .     A
C1345  N1387   1.430   .     S
C1346  N1390   1.429   .     S
C1346  C1347   1.416   .     A
C1350  C647    1.469   1_556 S
Cu1353 N1359   2.033   .     S
Cu1353 O1365   1.957   .     S
Cu1353 O1361   1.958   .     S
Cu1353 O1367   1.968   .     S
Cu1353 Cu1354  2.706   .     S
Cu1353 O1363   1.968   .     S
Cu1354 O1366   1.957   .     S
Cu1354 N1360   2.033   .     S
Cu1354 O1364   1.968   .     S
Cu1354 O1368   1.968   .     S
Cu1354 O1362   1.958   .     S
N1369  H1370   1.027   .     S
N1369  H1371   1.043   .     S
N1372  H1374   1.044   .     S
N1372  H1373   1.033   .     S
N1375  H1377   1.046   .     S
N1375  H1376   1.046   .     S
N1378  H1380   1.046   .     S
N1378  H1379   1.045   .     S
N1381  H1382   1.046   .     S
N1381  H1383   1.046   .     S
N1384  H1386   1.046   .     S
N1384  H1385   1.045   .     S
N1387  H1389   1.045   .     S
N1387  H1388   1.045   .     S
N1390  H1392   1.046   .     S
N1390  H1391   1.046   .     S
N1393  H1394   1.045   .     S
N1393  H1395   1.045   .     S
N1396  H1397   1.045   .     S
N1396  H1398   1.044   .     S
N1399  H1400   1.045   .     S
N1399  H1401   1.045   .     S
N1402  H1404   1.045   .     S
N1402  H1403   1.045   .     S
