data_str_m2_o2_o5_pcu_sym.121
_audit_creation_date              2020-01-03
_audit_creation_method            'Materials Studio'
_symmetry_space_group_name_H-M    'P1'
_symmetry_Int_Tables_number       1
_symmetry_cell_setting            triclinic
loop_
_symmetry_equiv_pos_as_xyz
  x,y,z
_cell_length_a                    30.1880
_cell_length_b                    27.7534
_cell_length_c                    27.2213
_cell_angle_alpha                 90.0000
_cell_angle_beta                  90.1581
_cell_angle_gamma                 90.0003
loop_
_atom_site_label
_atom_site_type_symbol
_atom_site_fract_x
_atom_site_fract_y
_atom_site_fract_z
_atom_site_U_iso_or_equiv
_atom_site_adp_type
_atom_site_occupancy
C1     C     0.16512   0.25000   0.16665   0.00000  Uiso   1.00
C2     C     0.27137   0.44602   0.20401   0.00000  Uiso   1.00
C3     C     0.24998   0.25000   0.07352   0.00000  Uiso   1.00
C4     C     0.25002   0.25000   0.25981   0.00000  Uiso   1.00
C5     C     0.25000   0.02733   0.16667   0.00000  Uiso   1.00
C6     C     0.25000   0.47265   0.16667   0.00000  Uiso   1.00
C7     C     0.24999   0.25001   0.02184   0.00000  Uiso   1.00
C8     C     0.25001   0.25001   0.31149   0.00000  Uiso   1.00
C9     C     0.04738   0.26692   0.12559   0.00000  Uiso   1.00
C10    C     0.45242   0.23293   0.12567   0.00000  Uiso   1.00
C11    C     0.45263   0.26705   0.20769   0.00000  Uiso   1.00
C12    C     0.33488   0.25000   0.16668   0.00000  Uiso   1.00
C13    C     0.04759   0.23306   0.20772   0.00000  Uiso   1.00
C14    C     0.09363   0.26709   0.12509   0.00000  Uiso   1.00
C15    C     0.40617   0.23277   0.12518   0.00000  Uiso   1.00
C16    C     0.40638   0.26722   0.20818   0.00000  Uiso   1.00
C17    C     0.09384   0.23289   0.20821   0.00000  Uiso   1.00
C18    C     0.11691   0.24999   0.16665   0.00000  Uiso   1.00
C19    C     0.38310   0.24999   0.16668   0.00000  Uiso   1.00
C20    C     0.02431   0.24999   0.16666   0.00000  Uiso   1.00
C21    C     0.47569   0.24999   0.16667   0.00000  Uiso   1.00
C22    C     0.11756   0.28464   0.07989   0.00000  Uiso   1.00
C23    C     0.28365   0.10467   0.18881   0.00000  Uiso   1.00
C24    C     0.38202   0.21510   0.08002   0.00000  Uiso   1.00
C25    C     0.38245   0.28490   0.25333   0.00000  Uiso   1.00
C26    C     0.11799   0.21537   0.25342   0.00000  Uiso   1.00
C27    C     0.22876   0.39531   0.13021   0.00000  Uiso   1.00
C28    C     0.21635   0.10467   0.14452   0.00000  Uiso   1.00
C29    C     0.27124   0.39531   0.20312   0.00000  Uiso   1.00
C30    C     0.28446   0.05396   0.18892   0.00000  Uiso   1.00
C31    C     0.22863   0.44602   0.12932   0.00000  Uiso   1.00
C32    C     0.21554   0.05396   0.14441   0.00000  Uiso   1.00
Cu33   Cu    0.25000   0.29822   0.16667   0.00000  Uiso   1.00
Cu34   Cu    0.25000   0.20179   0.16667   0.00000  Uiso   1.00
H35    H     0.31027   0.12425   0.20645   0.00000  Uiso   1.00
H36    H     0.21231   0.46397   0.09901   0.00000  Uiso   1.00
H37    H     0.18762   0.03601   0.12747   0.00000  Uiso   1.00
H38    H     0.28769   0.46397   0.23432   0.00000  Uiso   1.00
H39    H     0.13957   0.25578   0.06569   0.00000  Uiso   1.00
H40    H     0.09413   0.29474   0.05008   0.00000  Uiso   1.00
H41    H     0.13774   0.31686   0.08903   0.00000  Uiso   1.00
H42    H     0.36186   0.18292   0.08925   0.00000  Uiso   1.00
H43    H     0.35996   0.24393   0.06572   0.00000  Uiso   1.00
H44    H     0.40530   0.20489   0.05025   0.00000  Uiso   1.00
H45    H     0.36043   0.25610   0.26761   0.00000  Uiso   1.00
H46    H     0.21189   0.37569   0.10138   0.00000  Uiso   1.00
H47    H     0.40588   0.29508   0.28311   0.00000  Uiso   1.00
H48    H     0.36229   0.31711   0.24410   0.00000  Uiso   1.00
H49    H     0.13817   0.18317   0.24429   0.00000  Uiso   1.00
H50    H     0.14003   0.24424   0.26764   0.00000  Uiso   1.00
H51    H     0.09471   0.20522   0.28322   0.00000  Uiso   1.00
H52    H     0.18973   0.12425   0.12688   0.00000  Uiso   1.00
H53    H     0.28811   0.37569   0.23195   0.00000  Uiso   1.00
H54    H     0.02920   0.28043   0.09408   0.00000  Uiso   1.00
H55    H     0.47044   0.21933   0.09420   0.00000  Uiso   1.00
H56    H     0.47081   0.28065   0.23915   0.00000  Uiso   1.00
H57    H     0.02957   0.21956   0.23924   0.00000  Uiso   1.00
H58    H     0.31238   0.03601   0.20586   0.00000  Uiso   1.00
N59    N     0.25000   0.12935   0.16667   0.00000  Uiso   1.00
N60    N     0.25000   0.37066   0.16667   0.00000  Uiso   1.00
O61    O     0.18573   0.29072   0.16667   0.00000  Uiso   1.00
O62    O     0.31427   0.20929   0.16666   0.00000  Uiso   1.00
O63    O     0.31427   0.29072   0.16666   0.00000  Uiso   1.00
O64    O     0.18573   0.20929   0.16667   0.00000  Uiso   1.00
O65    O     0.25000   0.29071   0.09613   0.00000  Uiso   1.00
O66    O     0.25000   0.20929   0.23720   0.00000  Uiso   1.00
O67    O     0.25000   0.29071   0.23720   0.00000  Uiso   1.00
O68    O     0.25000   0.20929   0.09613   0.00000  Uiso   1.00
C69    C     0.66512   0.25000   0.16665   0.00000  Uiso   1.00
C70    C     0.77137   0.44602   0.20401   0.00000  Uiso   1.00
C71    C     0.74998   0.25000   0.07352   0.00000  Uiso   1.00
C72    C     0.75002   0.25000   0.25981   0.00000  Uiso   1.00
C73    C     0.75000   0.02733   0.16667   0.00000  Uiso   1.00
C74    C     0.75000   0.47265   0.16667   0.00000  Uiso   1.00
C75    C     0.74999   0.25001   0.02184   0.00000  Uiso   1.00
C76    C     0.75001   0.25001   0.31149   0.00000  Uiso   1.00
C77    C     0.54738   0.26692   0.12559   0.00000  Uiso   1.00
C78    C     0.95242   0.23293   0.12567   0.00000  Uiso   1.00
C79    C     0.95263   0.26705   0.20769   0.00000  Uiso   1.00
C80    C     0.83488   0.25000   0.16668   0.00000  Uiso   1.00
C81    C     0.54759   0.23306   0.20772   0.00000  Uiso   1.00
C82    C     0.59363   0.26709   0.12509   0.00000  Uiso   1.00
C83    C     0.90617   0.23277   0.12518   0.00000  Uiso   1.00
C84    C     0.90638   0.26722   0.20818   0.00000  Uiso   1.00
C85    C     0.59384   0.23289   0.20821   0.00000  Uiso   1.00
C86    C     0.61691   0.24999   0.16665   0.00000  Uiso   1.00
C87    C     0.88310   0.24999   0.16668   0.00000  Uiso   1.00
C88    C     0.52431   0.24999   0.16666   0.00000  Uiso   1.00
C89    C     0.97569   0.24999   0.16667   0.00000  Uiso   1.00
C90    C     0.61756   0.28464   0.07989   0.00000  Uiso   1.00
C91    C     0.78365   0.10467   0.18881   0.00000  Uiso   1.00
C92    C     0.88202   0.21510   0.08002   0.00000  Uiso   1.00
C93    C     0.88245   0.28490   0.25333   0.00000  Uiso   1.00
C94    C     0.61799   0.21537   0.25342   0.00000  Uiso   1.00
C95    C     0.72876   0.39531   0.13021   0.00000  Uiso   1.00
C96    C     0.71635   0.10467   0.14452   0.00000  Uiso   1.00
C97    C     0.77124   0.39531   0.20312   0.00000  Uiso   1.00
C98    C     0.78446   0.05396   0.18892   0.00000  Uiso   1.00
C99    C     0.72863   0.44602   0.12932   0.00000  Uiso   1.00
C100   C     0.71554   0.05396   0.14441   0.00000  Uiso   1.00
Cu101  Cu    0.75000   0.29822   0.16667   0.00000  Uiso   1.00
Cu102  Cu    0.75000   0.20179   0.16667   0.00000  Uiso   1.00
H103   H     0.81027   0.12425   0.20645   0.00000  Uiso   1.00
H104   H     0.71231   0.46397   0.09901   0.00000  Uiso   1.00
H105   H     0.68762   0.03601   0.12747   0.00000  Uiso   1.00
H106   H     0.78769   0.46397   0.23432   0.00000  Uiso   1.00
H107   H     0.63957   0.25578   0.06569   0.00000  Uiso   1.00
H108   H     0.59413   0.29474   0.05008   0.00000  Uiso   1.00
H109   H     0.63774   0.31686   0.08903   0.00000  Uiso   1.00
H110   H     0.86186   0.18292   0.08925   0.00000  Uiso   1.00
H111   H     0.85996   0.24393   0.06572   0.00000  Uiso   1.00
H112   H     0.90530   0.20489   0.05025   0.00000  Uiso   1.00
H113   H     0.86043   0.25610   0.26761   0.00000  Uiso   1.00
H114   H     0.71189   0.37569   0.10138   0.00000  Uiso   1.00
H115   H     0.90588   0.29508   0.28311   0.00000  Uiso   1.00
H116   H     0.86229   0.31711   0.24410   0.00000  Uiso   1.00
H117   H     0.63817   0.18317   0.24429   0.00000  Uiso   1.00
H118   H     0.64003   0.24424   0.26764   0.00000  Uiso   1.00
H119   H     0.59471   0.20522   0.28322   0.00000  Uiso   1.00
H120   H     0.68973   0.12425   0.12688   0.00000  Uiso   1.00
H121   H     0.78811   0.37569   0.23195   0.00000  Uiso   1.00
H122   H     0.52920   0.28043   0.09408   0.00000  Uiso   1.00
H123   H     0.97044   0.21933   0.09420   0.00000  Uiso   1.00
H124   H     0.97081   0.28065   0.23915   0.00000  Uiso   1.00
H125   H     0.52957   0.21956   0.23924   0.00000  Uiso   1.00
H126   H     0.81238   0.03601   0.20586   0.00000  Uiso   1.00
N127   N     0.75000   0.12935   0.16667   0.00000  Uiso   1.00
N128   N     0.75000   0.37066   0.16667   0.00000  Uiso   1.00
O129   O     0.68573   0.29072   0.16667   0.00000  Uiso   1.00
O130   O     0.81427   0.20929   0.16666   0.00000  Uiso   1.00
O131   O     0.81427   0.29072   0.16666   0.00000  Uiso   1.00
O132   O     0.68573   0.20929   0.16667   0.00000  Uiso   1.00
O133   O     0.75000   0.29071   0.09613   0.00000  Uiso   1.00
O134   O     0.75000   0.20929   0.23720   0.00000  Uiso   1.00
O135   O     0.75000   0.29071   0.23720   0.00000  Uiso   1.00
O136   O     0.75000   0.20929   0.09613   0.00000  Uiso   1.00
C137   C     0.16512   0.75000   0.16665   0.00000  Uiso   1.00
C138   C     0.27137   0.94602   0.20401   0.00000  Uiso   1.00
C139   C     0.24998   0.75000   0.07352   0.00000  Uiso   1.00
C140   C     0.25002   0.75000   0.25981   0.00000  Uiso   1.00
C141   C     0.25000   0.52733   0.16667   0.00000  Uiso   1.00
C142   C     0.25000   0.97265   0.16667   0.00000  Uiso   1.00
C143   C     0.24999   0.75001   0.02184   0.00000  Uiso   1.00
C144   C     0.25001   0.75001   0.31149   0.00000  Uiso   1.00
C145   C     0.04738   0.76692   0.12559   0.00000  Uiso   1.00
C146   C     0.45242   0.73293   0.12567   0.00000  Uiso   1.00
C147   C     0.45263   0.76705   0.20769   0.00000  Uiso   1.00
C148   C     0.33488   0.75000   0.16668   0.00000  Uiso   1.00
C149   C     0.04759   0.73306   0.20772   0.00000  Uiso   1.00
C150   C     0.09363   0.76709   0.12509   0.00000  Uiso   1.00
C151   C     0.40617   0.73277   0.12518   0.00000  Uiso   1.00
C152   C     0.40638   0.76722   0.20818   0.00000  Uiso   1.00
C153   C     0.09384   0.73289   0.20821   0.00000  Uiso   1.00
C154   C     0.11691   0.74999   0.16665   0.00000  Uiso   1.00
C155   C     0.38310   0.74999   0.16668   0.00000  Uiso   1.00
C156   C     0.02431   0.74999   0.16666   0.00000  Uiso   1.00
C157   C     0.47569   0.74999   0.16667   0.00000  Uiso   1.00
C158   C     0.11756   0.78464   0.07989   0.00000  Uiso   1.00
C159   C     0.28365   0.60467   0.18881   0.00000  Uiso   1.00
C160   C     0.38202   0.71510   0.08002   0.00000  Uiso   1.00
C161   C     0.38245   0.78490   0.25333   0.00000  Uiso   1.00
C162   C     0.11799   0.71537   0.25342   0.00000  Uiso   1.00
C163   C     0.22876   0.89531   0.13021   0.00000  Uiso   1.00
C164   C     0.21635   0.60467   0.14452   0.00000  Uiso   1.00
C165   C     0.27124   0.89531   0.20312   0.00000  Uiso   1.00
C166   C     0.28446   0.55396   0.18892   0.00000  Uiso   1.00
C167   C     0.22863   0.94602   0.12932   0.00000  Uiso   1.00
C168   C     0.21554   0.55396   0.14441   0.00000  Uiso   1.00
Cu169  Cu    0.25000   0.79822   0.16667   0.00000  Uiso   1.00
Cu170  Cu    0.25000   0.70179   0.16667   0.00000  Uiso   1.00
H171   H     0.31027   0.62425   0.20645   0.00000  Uiso   1.00
H172   H     0.21231   0.96397   0.09901   0.00000  Uiso   1.00
H173   H     0.18762   0.53601   0.12747   0.00000  Uiso   1.00
H174   H     0.28769   0.96397   0.23432   0.00000  Uiso   1.00
H175   H     0.13957   0.75578   0.06569   0.00000  Uiso   1.00
H176   H     0.09413   0.79474   0.05008   0.00000  Uiso   1.00
H177   H     0.13774   0.81686   0.08903   0.00000  Uiso   1.00
H178   H     0.36186   0.68292   0.08925   0.00000  Uiso   1.00
H179   H     0.35996   0.74393   0.06572   0.00000  Uiso   1.00
H180   H     0.40530   0.70489   0.05025   0.00000  Uiso   1.00
H181   H     0.36043   0.75610   0.26761   0.00000  Uiso   1.00
H182   H     0.21189   0.87569   0.10138   0.00000  Uiso   1.00
H183   H     0.40588   0.79508   0.28311   0.00000  Uiso   1.00
H184   H     0.36229   0.81711   0.24410   0.00000  Uiso   1.00
H185   H     0.13817   0.68317   0.24429   0.00000  Uiso   1.00
H186   H     0.14003   0.74424   0.26764   0.00000  Uiso   1.00
H187   H     0.09471   0.70522   0.28322   0.00000  Uiso   1.00
H188   H     0.18973   0.62425   0.12688   0.00000  Uiso   1.00
H189   H     0.28811   0.87569   0.23195   0.00000  Uiso   1.00
H190   H     0.02920   0.78043   0.09408   0.00000  Uiso   1.00
H191   H     0.47044   0.71933   0.09420   0.00000  Uiso   1.00
H192   H     0.47081   0.78065   0.23915   0.00000  Uiso   1.00
H193   H     0.02957   0.71956   0.23924   0.00000  Uiso   1.00
H194   H     0.31238   0.53601   0.20586   0.00000  Uiso   1.00
N195   N     0.25000   0.62935   0.16667   0.00000  Uiso   1.00
N196   N     0.25000   0.87066   0.16667   0.00000  Uiso   1.00
O197   O     0.18573   0.79072   0.16667   0.00000  Uiso   1.00
O198   O     0.31427   0.70929   0.16666   0.00000  Uiso   1.00
O199   O     0.31427   0.79072   0.16666   0.00000  Uiso   1.00
O200   O     0.18573   0.70929   0.16667   0.00000  Uiso   1.00
O201   O     0.25000   0.79071   0.09613   0.00000  Uiso   1.00
O202   O     0.25000   0.70929   0.23720   0.00000  Uiso   1.00
O203   O     0.25000   0.79071   0.23720   0.00000  Uiso   1.00
O204   O     0.25000   0.70929   0.09613   0.00000  Uiso   1.00
C205   C     0.66512   0.75000   0.16665   0.00000  Uiso   1.00
C206   C     0.77137   0.94602   0.20401   0.00000  Uiso   1.00
C207   C     0.74998   0.75000   0.07352   0.00000  Uiso   1.00
C208   C     0.75002   0.75000   0.25981   0.00000  Uiso   1.00
C209   C     0.75000   0.52733   0.16667   0.00000  Uiso   1.00
C210   C     0.75000   0.97265   0.16667   0.00000  Uiso   1.00
C211   C     0.74999   0.75001   0.02184   0.00000  Uiso   1.00
C212   C     0.75001   0.75001   0.31149   0.00000  Uiso   1.00
C213   C     0.54738   0.76692   0.12559   0.00000  Uiso   1.00
C214   C     0.95242   0.73293   0.12567   0.00000  Uiso   1.00
C215   C     0.95263   0.76705   0.20769   0.00000  Uiso   1.00
C216   C     0.83488   0.75000   0.16668   0.00000  Uiso   1.00
C217   C     0.54759   0.73306   0.20772   0.00000  Uiso   1.00
C218   C     0.59363   0.76709   0.12509   0.00000  Uiso   1.00
C219   C     0.90617   0.73277   0.12518   0.00000  Uiso   1.00
C220   C     0.90638   0.76722   0.20818   0.00000  Uiso   1.00
C221   C     0.59384   0.73289   0.20821   0.00000  Uiso   1.00
C222   C     0.61691   0.74999   0.16665   0.00000  Uiso   1.00
C223   C     0.88310   0.74999   0.16668   0.00000  Uiso   1.00
C224   C     0.52431   0.74999   0.16666   0.00000  Uiso   1.00
C225   C     0.97569   0.74999   0.16667   0.00000  Uiso   1.00
C226   C     0.61756   0.78464   0.07989   0.00000  Uiso   1.00
C227   C     0.78365   0.60467   0.18881   0.00000  Uiso   1.00
C228   C     0.88202   0.71510   0.08002   0.00000  Uiso   1.00
C229   C     0.88245   0.78490   0.25333   0.00000  Uiso   1.00
C230   C     0.61799   0.71537   0.25342   0.00000  Uiso   1.00
C231   C     0.72876   0.89531   0.13021   0.00000  Uiso   1.00
C232   C     0.71635   0.60467   0.14452   0.00000  Uiso   1.00
C233   C     0.77124   0.89531   0.20312   0.00000  Uiso   1.00
C234   C     0.78446   0.55396   0.18892   0.00000  Uiso   1.00
C235   C     0.72863   0.94602   0.12932   0.00000  Uiso   1.00
C236   C     0.71554   0.55396   0.14441   0.00000  Uiso   1.00
Cu237  Cu    0.75000   0.79822   0.16667   0.00000  Uiso   1.00
Cu238  Cu    0.75000   0.70179   0.16667   0.00000  Uiso   1.00
H239   H     0.81027   0.62425   0.20645   0.00000  Uiso   1.00
H240   H     0.71231   0.96397   0.09901   0.00000  Uiso   1.00
H241   H     0.68762   0.53601   0.12747   0.00000  Uiso   1.00
H242   H     0.78769   0.96397   0.23432   0.00000  Uiso   1.00
H243   H     0.63957   0.75578   0.06569   0.00000  Uiso   1.00
H244   H     0.59413   0.79474   0.05008   0.00000  Uiso   1.00
H245   H     0.63774   0.81686   0.08903   0.00000  Uiso   1.00
H246   H     0.86186   0.68292   0.08925   0.00000  Uiso   1.00
H247   H     0.85996   0.74393   0.06572   0.00000  Uiso   1.00
H248   H     0.90530   0.70489   0.05025   0.00000  Uiso   1.00
H249   H     0.86043   0.75610   0.26761   0.00000  Uiso   1.00
H250   H     0.71189   0.87569   0.10138   0.00000  Uiso   1.00
H251   H     0.90588   0.79508   0.28311   0.00000  Uiso   1.00
H252   H     0.86229   0.81711   0.24410   0.00000  Uiso   1.00
H253   H     0.63817   0.68317   0.24429   0.00000  Uiso   1.00
H254   H     0.64003   0.74424   0.26764   0.00000  Uiso   1.00
H255   H     0.59471   0.70522   0.28322   0.00000  Uiso   1.00
H256   H     0.68973   0.62425   0.12688   0.00000  Uiso   1.00
H257   H     0.78811   0.87569   0.23195   0.00000  Uiso   1.00
H258   H     0.52920   0.78043   0.09408   0.00000  Uiso   1.00
H259   H     0.97044   0.71933   0.09420   0.00000  Uiso   1.00
H260   H     0.97081   0.78065   0.23915   0.00000  Uiso   1.00
H261   H     0.52957   0.71956   0.23924   0.00000  Uiso   1.00
H262   H     0.81238   0.53601   0.20586   0.00000  Uiso   1.00
N263   N     0.75000   0.62935   0.16667   0.00000  Uiso   1.00
N264   N     0.75000   0.87066   0.16667   0.00000  Uiso   1.00
O265   O     0.68573   0.79072   0.16667   0.00000  Uiso   1.00
O266   O     0.81427   0.70929   0.16666   0.00000  Uiso   1.00
O267   O     0.81427   0.79072   0.16666   0.00000  Uiso   1.00
O268   O     0.68573   0.70929   0.16667   0.00000  Uiso   1.00
O269   O     0.75000   0.79071   0.09613   0.00000  Uiso   1.00
O270   O     0.75000   0.70929   0.23720   0.00000  Uiso   1.00
O271   O     0.75000   0.79071   0.23720   0.00000  Uiso   1.00
O272   O     0.75000   0.70929   0.09613   0.00000  Uiso   1.00
C273   C     0.16512   0.25000   0.49999   0.00000  Uiso   1.00
C274   C     0.27137   0.44602   0.53735   0.00000  Uiso   1.00
C275   C     0.24998   0.25000   0.40685   0.00000  Uiso   1.00
C276   C     0.25002   0.25000   0.59315   0.00000  Uiso   1.00
C277   C     0.25000   0.02733   0.50000   0.00000  Uiso   1.00
C278   C     0.25000   0.47265   0.50000   0.00000  Uiso   1.00
C279   C     0.24999   0.25001   0.35518   0.00000  Uiso   1.00
C280   C     0.25001   0.25001   0.64482   0.00000  Uiso   1.00
C281   C     0.04738   0.26692   0.45893   0.00000  Uiso   1.00
C282   C     0.45242   0.23293   0.45900   0.00000  Uiso   1.00
C283   C     0.45263   0.26705   0.54102   0.00000  Uiso   1.00
C284   C     0.33488   0.25000   0.50001   0.00000  Uiso   1.00
C285   C     0.04759   0.23306   0.54106   0.00000  Uiso   1.00
C286   C     0.09363   0.26709   0.45843   0.00000  Uiso   1.00
C287   C     0.40617   0.23277   0.45851   0.00000  Uiso   1.00
C288   C     0.40638   0.26722   0.54152   0.00000  Uiso   1.00
C289   C     0.09384   0.23289   0.54155   0.00000  Uiso   1.00
C290   C     0.11691   0.24999   0.49999   0.00000  Uiso   1.00
C291   C     0.38310   0.24999   0.50001   0.00000  Uiso   1.00
C292   C     0.02431   0.24999   0.50000   0.00000  Uiso   1.00
C293   C     0.47569   0.24999   0.50000   0.00000  Uiso   1.00
C294   C     0.11756   0.28464   0.41322   0.00000  Uiso   1.00
C295   C     0.28365   0.10467   0.52215   0.00000  Uiso   1.00
C296   C     0.38202   0.21510   0.41335   0.00000  Uiso   1.00
C297   C     0.38245   0.28490   0.58667   0.00000  Uiso   1.00
C298   C     0.11799   0.21537   0.58676   0.00000  Uiso   1.00
C299   C     0.22876   0.39531   0.46355   0.00000  Uiso   1.00
C300   C     0.21635   0.10467   0.47785   0.00000  Uiso   1.00
C301   C     0.27124   0.39531   0.53646   0.00000  Uiso   1.00
C302   C     0.28446   0.05396   0.52225   0.00000  Uiso   1.00
C303   C     0.22863   0.44602   0.46265   0.00000  Uiso   1.00
C304   C     0.21554   0.05396   0.47775   0.00000  Uiso   1.00
Cu305  Cu    0.25000   0.29822   0.50000   0.00000  Uiso   1.00
Cu306  Cu    0.25000   0.20179   0.50000   0.00000  Uiso   1.00
H307   H     0.31027   0.12425   0.53979   0.00000  Uiso   1.00
H308   H     0.21231   0.46397   0.43235   0.00000  Uiso   1.00
H309   H     0.18762   0.03601   0.46081   0.00000  Uiso   1.00
H310   H     0.28769   0.46397   0.56765   0.00000  Uiso   1.00
H311   H     0.13957   0.25578   0.39902   0.00000  Uiso   1.00
H312   H     0.09413   0.29474   0.38342   0.00000  Uiso   1.00
H313   H     0.13774   0.31686   0.42236   0.00000  Uiso   1.00
H314   H     0.36186   0.18292   0.42258   0.00000  Uiso   1.00
H315   H     0.35996   0.24393   0.39906   0.00000  Uiso   1.00
H316   H     0.40530   0.20489   0.38358   0.00000  Uiso   1.00
H317   H     0.36043   0.25610   0.60095   0.00000  Uiso   1.00
H318   H     0.21189   0.37569   0.43472   0.00000  Uiso   1.00
H319   H     0.40588   0.29508   0.61645   0.00000  Uiso   1.00
H320   H     0.36229   0.31711   0.57744   0.00000  Uiso   1.00
H321   H     0.13817   0.18317   0.57762   0.00000  Uiso   1.00
H322   H     0.14003   0.24424   0.60097   0.00000  Uiso   1.00
H323   H     0.09471   0.20522   0.61655   0.00000  Uiso   1.00
H324   H     0.18973   0.12425   0.46021   0.00000  Uiso   1.00
H325   H     0.28811   0.37569   0.56529   0.00000  Uiso   1.00
H326   H     0.02920   0.28043   0.42742   0.00000  Uiso   1.00
H327   H     0.47044   0.21933   0.42753   0.00000  Uiso   1.00
H328   H     0.47081   0.28065   0.57248   0.00000  Uiso   1.00
H329   H     0.02957   0.21956   0.57257   0.00000  Uiso   1.00
H330   H     0.31238   0.03601   0.53919   0.00000  Uiso   1.00
N331   N     0.25000   0.12935   0.50000   0.00000  Uiso   1.00
N332   N     0.25000   0.37066   0.50000   0.00000  Uiso   1.00
O333   O     0.18573   0.29072   0.50000   0.00000  Uiso   1.00
O334   O     0.31427   0.20929   0.50000   0.00000  Uiso   1.00
O335   O     0.31427   0.29072   0.50000   0.00000  Uiso   1.00
O336   O     0.18573   0.20929   0.50000   0.00000  Uiso   1.00
O337   O     0.25000   0.29071   0.42946   0.00000  Uiso   1.00
O338   O     0.25000   0.20929   0.57054   0.00000  Uiso   1.00
O339   O     0.25000   0.29071   0.57054   0.00000  Uiso   1.00
O340   O     0.25000   0.20929   0.42946   0.00000  Uiso   1.00
C341   C     0.66512   0.25000   0.49999   0.00000  Uiso   1.00
C342   C     0.77137   0.44602   0.53735   0.00000  Uiso   1.00
C343   C     0.74998   0.25000   0.40685   0.00000  Uiso   1.00
C344   C     0.75002   0.25000   0.59315   0.00000  Uiso   1.00
C345   C     0.75000   0.02733   0.50000   0.00000  Uiso   1.00
C346   C     0.75000   0.47265   0.50000   0.00000  Uiso   1.00
C347   C     0.74999   0.25001   0.35518   0.00000  Uiso   1.00
C348   C     0.75001   0.25001   0.64482   0.00000  Uiso   1.00
C349   C     0.54738   0.26692   0.45893   0.00000  Uiso   1.00
C350   C     0.95242   0.23293   0.45900   0.00000  Uiso   1.00
C351   C     0.95263   0.26705   0.54102   0.00000  Uiso   1.00
C352   C     0.83488   0.25000   0.50001   0.00000  Uiso   1.00
C353   C     0.54759   0.23306   0.54106   0.00000  Uiso   1.00
C354   C     0.59363   0.26709   0.45843   0.00000  Uiso   1.00
C355   C     0.90617   0.23277   0.45851   0.00000  Uiso   1.00
C356   C     0.90638   0.26722   0.54152   0.00000  Uiso   1.00
C357   C     0.59384   0.23289   0.54155   0.00000  Uiso   1.00
C358   C     0.61691   0.24999   0.49999   0.00000  Uiso   1.00
C359   C     0.88310   0.24999   0.50001   0.00000  Uiso   1.00
C360   C     0.52431   0.24999   0.50000   0.00000  Uiso   1.00
C361   C     0.97569   0.24999   0.50000   0.00000  Uiso   1.00
C362   C     0.61756   0.28464   0.41322   0.00000  Uiso   1.00
C363   C     0.78365   0.10467   0.52215   0.00000  Uiso   1.00
C364   C     0.88202   0.21510   0.41335   0.00000  Uiso   1.00
C365   C     0.88245   0.28490   0.58667   0.00000  Uiso   1.00
C366   C     0.61799   0.21537   0.58676   0.00000  Uiso   1.00
C367   C     0.72876   0.39531   0.46355   0.00000  Uiso   1.00
C368   C     0.71635   0.10467   0.47785   0.00000  Uiso   1.00
C369   C     0.77124   0.39531   0.53646   0.00000  Uiso   1.00
C370   C     0.78446   0.05396   0.52225   0.00000  Uiso   1.00
C371   C     0.72863   0.44602   0.46265   0.00000  Uiso   1.00
C372   C     0.71554   0.05396   0.47775   0.00000  Uiso   1.00
Cu373  Cu    0.75000   0.29822   0.50000   0.00000  Uiso   1.00
Cu374  Cu    0.75000   0.20179   0.50000   0.00000  Uiso   1.00
H375   H     0.81027   0.12425   0.53979   0.00000  Uiso   1.00
H376   H     0.71231   0.46397   0.43235   0.00000  Uiso   1.00
H377   H     0.68762   0.03601   0.46081   0.00000  Uiso   1.00
H378   H     0.78769   0.46397   0.56765   0.00000  Uiso   1.00
H379   H     0.63957   0.25578   0.39902   0.00000  Uiso   1.00
H380   H     0.59413   0.29474   0.38342   0.00000  Uiso   1.00
H381   H     0.63774   0.31686   0.42236   0.00000  Uiso   1.00
H382   H     0.86186   0.18292   0.42258   0.00000  Uiso   1.00
H383   H     0.85996   0.24393   0.39906   0.00000  Uiso   1.00
H384   H     0.90530   0.20489   0.38358   0.00000  Uiso   1.00
H385   H     0.86043   0.25610   0.60095   0.00000  Uiso   1.00
H386   H     0.71189   0.37569   0.43472   0.00000  Uiso   1.00
H387   H     0.90588   0.29508   0.61645   0.00000  Uiso   1.00
H388   H     0.86229   0.31711   0.57744   0.00000  Uiso   1.00
H389   H     0.63817   0.18317   0.57762   0.00000  Uiso   1.00
H390   H     0.64003   0.24424   0.60097   0.00000  Uiso   1.00
H391   H     0.59471   0.20522   0.61655   0.00000  Uiso   1.00
H392   H     0.68973   0.12425   0.46021   0.00000  Uiso   1.00
H393   H     0.78811   0.37569   0.56529   0.00000  Uiso   1.00
H394   H     0.52920   0.28043   0.42742   0.00000  Uiso   1.00
H395   H     0.97044   0.21933   0.42753   0.00000  Uiso   1.00
H396   H     0.97081   0.28065   0.57248   0.00000  Uiso   1.00
H397   H     0.52957   0.21956   0.57257   0.00000  Uiso   1.00
H398   H     0.81238   0.03601   0.53919   0.00000  Uiso   1.00
N399   N     0.75000   0.12935   0.50000   0.00000  Uiso   1.00
N400   N     0.75000   0.37066   0.50000   0.00000  Uiso   1.00
O401   O     0.68573   0.29072   0.50000   0.00000  Uiso   1.00
O402   O     0.81427   0.20929   0.50000   0.00000  Uiso   1.00
O403   O     0.81427   0.29072   0.50000   0.00000  Uiso   1.00
O404   O     0.68573   0.20929   0.50000   0.00000  Uiso   1.00
O405   O     0.75000   0.29071   0.42946   0.00000  Uiso   1.00
O406   O     0.75000   0.20929   0.57054   0.00000  Uiso   1.00
O407   O     0.75000   0.29071   0.57054   0.00000  Uiso   1.00
O408   O     0.75000   0.20929   0.42946   0.00000  Uiso   1.00
C409   C     0.16512   0.75000   0.49999   0.00000  Uiso   1.00
C410   C     0.27137   0.94602   0.53735   0.00000  Uiso   1.00
C411   C     0.24998   0.75000   0.40685   0.00000  Uiso   1.00
C412   C     0.25002   0.75000   0.59315   0.00000  Uiso   1.00
C413   C     0.25000   0.52733   0.50000   0.00000  Uiso   1.00
C414   C     0.25000   0.97265   0.50000   0.00000  Uiso   1.00
C415   C     0.24999   0.75001   0.35518   0.00000  Uiso   1.00
C416   C     0.25001   0.75001   0.64482   0.00000  Uiso   1.00
C417   C     0.04738   0.76692   0.45893   0.00000  Uiso   1.00
C418   C     0.45242   0.73293   0.45900   0.00000  Uiso   1.00
C419   C     0.45263   0.76705   0.54102   0.00000  Uiso   1.00
C420   C     0.33488   0.75000   0.50001   0.00000  Uiso   1.00
C421   C     0.04759   0.73306   0.54106   0.00000  Uiso   1.00
C422   C     0.09363   0.76709   0.45843   0.00000  Uiso   1.00
C423   C     0.40617   0.73277   0.45851   0.00000  Uiso   1.00
C424   C     0.40638   0.76722   0.54152   0.00000  Uiso   1.00
C425   C     0.09384   0.73289   0.54155   0.00000  Uiso   1.00
C426   C     0.11691   0.74999   0.49999   0.00000  Uiso   1.00
C427   C     0.38310   0.74999   0.50001   0.00000  Uiso   1.00
C428   C     0.02431   0.74999   0.50000   0.00000  Uiso   1.00
C429   C     0.47569   0.74999   0.50000   0.00000  Uiso   1.00
C430   C     0.11756   0.78464   0.41322   0.00000  Uiso   1.00
C431   C     0.28365   0.60467   0.52215   0.00000  Uiso   1.00
C432   C     0.38202   0.71510   0.41335   0.00000  Uiso   1.00
C433   C     0.38245   0.78490   0.58667   0.00000  Uiso   1.00
C434   C     0.11799   0.71537   0.58676   0.00000  Uiso   1.00
C435   C     0.22876   0.89531   0.46355   0.00000  Uiso   1.00
C436   C     0.21635   0.60467   0.47785   0.00000  Uiso   1.00
C437   C     0.27124   0.89531   0.53646   0.00000  Uiso   1.00
C438   C     0.28446   0.55396   0.52225   0.00000  Uiso   1.00
C439   C     0.22863   0.94602   0.46265   0.00000  Uiso   1.00
C440   C     0.21554   0.55396   0.47775   0.00000  Uiso   1.00
Cu441  Cu    0.25000   0.79822   0.50000   0.00000  Uiso   1.00
Cu442  Cu    0.25000   0.70179   0.50000   0.00000  Uiso   1.00
H443   H     0.31027   0.62425   0.53979   0.00000  Uiso   1.00
H444   H     0.21231   0.96397   0.43235   0.00000  Uiso   1.00
H445   H     0.18762   0.53601   0.46081   0.00000  Uiso   1.00
H446   H     0.28769   0.96397   0.56765   0.00000  Uiso   1.00
H447   H     0.13957   0.75578   0.39902   0.00000  Uiso   1.00
H448   H     0.09413   0.79474   0.38342   0.00000  Uiso   1.00
H449   H     0.13774   0.81686   0.42236   0.00000  Uiso   1.00
H450   H     0.36186   0.68292   0.42258   0.00000  Uiso   1.00
H451   H     0.35996   0.74393   0.39906   0.00000  Uiso   1.00
H452   H     0.40530   0.70489   0.38358   0.00000  Uiso   1.00
H453   H     0.36043   0.75610   0.60095   0.00000  Uiso   1.00
H454   H     0.21189   0.87569   0.43472   0.00000  Uiso   1.00
H455   H     0.40588   0.79508   0.61645   0.00000  Uiso   1.00
H456   H     0.36229   0.81711   0.57744   0.00000  Uiso   1.00
H457   H     0.13817   0.68317   0.57762   0.00000  Uiso   1.00
H458   H     0.14003   0.74424   0.60097   0.00000  Uiso   1.00
H459   H     0.09471   0.70522   0.61655   0.00000  Uiso   1.00
H460   H     0.18973   0.62425   0.46021   0.00000  Uiso   1.00
H461   H     0.28811   0.87569   0.56529   0.00000  Uiso   1.00
H462   H     0.02920   0.78043   0.42742   0.00000  Uiso   1.00
H463   H     0.47044   0.71933   0.42753   0.00000  Uiso   1.00
H464   H     0.47081   0.78065   0.57248   0.00000  Uiso   1.00
H465   H     0.02957   0.71956   0.57257   0.00000  Uiso   1.00
H466   H     0.31238   0.53601   0.53919   0.00000  Uiso   1.00
N467   N     0.25000   0.62935   0.50000   0.00000  Uiso   1.00
N468   N     0.25000   0.87066   0.50000   0.00000  Uiso   1.00
O469   O     0.18573   0.79072   0.50000   0.00000  Uiso   1.00
O470   O     0.31427   0.70929   0.50000   0.00000  Uiso   1.00
O471   O     0.31427   0.79072   0.50000   0.00000  Uiso   1.00
O472   O     0.18573   0.70929   0.50000   0.00000  Uiso   1.00
O473   O     0.25000   0.79071   0.42946   0.00000  Uiso   1.00
O474   O     0.25000   0.70929   0.57054   0.00000  Uiso   1.00
O475   O     0.25000   0.79071   0.57054   0.00000  Uiso   1.00
O476   O     0.25000   0.70929   0.42946   0.00000  Uiso   1.00
C477   C     0.66512   0.75000   0.49999   0.00000  Uiso   1.00
C478   C     0.77137   0.94602   0.53735   0.00000  Uiso   1.00
C479   C     0.74998   0.75000   0.40685   0.00000  Uiso   1.00
C480   C     0.75002   0.75000   0.59315   0.00000  Uiso   1.00
C481   C     0.75000   0.52733   0.50000   0.00000  Uiso   1.00
C482   C     0.75000   0.97265   0.50000   0.00000  Uiso   1.00
C483   C     0.74999   0.75001   0.35518   0.00000  Uiso   1.00
C484   C     0.75001   0.75001   0.64482   0.00000  Uiso   1.00
C485   C     0.54738   0.76692   0.45893   0.00000  Uiso   1.00
C486   C     0.95242   0.73293   0.45900   0.00000  Uiso   1.00
C487   C     0.95263   0.76705   0.54102   0.00000  Uiso   1.00
C488   C     0.83488   0.75000   0.50001   0.00000  Uiso   1.00
C489   C     0.54759   0.73306   0.54106   0.00000  Uiso   1.00
C490   C     0.59363   0.76709   0.45843   0.00000  Uiso   1.00
C491   C     0.90617   0.73277   0.45851   0.00000  Uiso   1.00
C492   C     0.90638   0.76722   0.54152   0.00000  Uiso   1.00
C493   C     0.59384   0.73289   0.54155   0.00000  Uiso   1.00
C494   C     0.61691   0.74999   0.49999   0.00000  Uiso   1.00
C495   C     0.88310   0.74999   0.50001   0.00000  Uiso   1.00
C496   C     0.52431   0.74999   0.50000   0.00000  Uiso   1.00
C497   C     0.97569   0.74999   0.50000   0.00000  Uiso   1.00
C498   C     0.61756   0.78464   0.41322   0.00000  Uiso   1.00
C499   C     0.78365   0.60467   0.52215   0.00000  Uiso   1.00
C500   C     0.88202   0.71510   0.41335   0.00000  Uiso   1.00
C501   C     0.88245   0.78490   0.58667   0.00000  Uiso   1.00
C502   C     0.61799   0.71537   0.58676   0.00000  Uiso   1.00
C503   C     0.72876   0.89531   0.46355   0.00000  Uiso   1.00
C504   C     0.71635   0.60467   0.47785   0.00000  Uiso   1.00
C505   C     0.77124   0.89531   0.53646   0.00000  Uiso   1.00
C506   C     0.78446   0.55396   0.52225   0.00000  Uiso   1.00
C507   C     0.72863   0.94602   0.46265   0.00000  Uiso   1.00
C508   C     0.71554   0.55396   0.47775   0.00000  Uiso   1.00
Cu509  Cu    0.75000   0.79822   0.50000   0.00000  Uiso   1.00
Cu510  Cu    0.75000   0.70179   0.50000   0.00000  Uiso   1.00
H511   H     0.81027   0.62425   0.53979   0.00000  Uiso   1.00
H512   H     0.71231   0.96397   0.43235   0.00000  Uiso   1.00
H513   H     0.68762   0.53601   0.46081   0.00000  Uiso   1.00
H514   H     0.78769   0.96397   0.56765   0.00000  Uiso   1.00
H515   H     0.63957   0.75578   0.39902   0.00000  Uiso   1.00
H516   H     0.59413   0.79474   0.38342   0.00000  Uiso   1.00
H517   H     0.63774   0.81686   0.42236   0.00000  Uiso   1.00
H518   H     0.86186   0.68292   0.42258   0.00000  Uiso   1.00
H519   H     0.85996   0.74393   0.39906   0.00000  Uiso   1.00
H520   H     0.90530   0.70489   0.38358   0.00000  Uiso   1.00
H521   H     0.86043   0.75610   0.60095   0.00000  Uiso   1.00
H522   H     0.71189   0.87569   0.43472   0.00000  Uiso   1.00
H523   H     0.90588   0.79508   0.61645   0.00000  Uiso   1.00
H524   H     0.86229   0.81711   0.57744   0.00000  Uiso   1.00
H525   H     0.63817   0.68317   0.57762   0.00000  Uiso   1.00
H526   H     0.64003   0.74424   0.60097   0.00000  Uiso   1.00
H527   H     0.59471   0.70522   0.61655   0.00000  Uiso   1.00
H528   H     0.68973   0.62425   0.46021   0.00000  Uiso   1.00
H529   H     0.78811   0.87569   0.56529   0.00000  Uiso   1.00
H530   H     0.52920   0.78043   0.42742   0.00000  Uiso   1.00
H531   H     0.97044   0.71933   0.42753   0.00000  Uiso   1.00
H532   H     0.97081   0.78065   0.57248   0.00000  Uiso   1.00
H533   H     0.52957   0.71956   0.57257   0.00000  Uiso   1.00
H534   H     0.81238   0.53601   0.53919   0.00000  Uiso   1.00
N535   N     0.75000   0.62935   0.50000   0.00000  Uiso   1.00
N536   N     0.75000   0.87066   0.50000   0.00000  Uiso   1.00
O537   O     0.68573   0.79072   0.50000   0.00000  Uiso   1.00
O538   O     0.81427   0.70929   0.50000   0.00000  Uiso   1.00
O539   O     0.81427   0.79072   0.50000   0.00000  Uiso   1.00
O540   O     0.68573   0.70929   0.50000   0.00000  Uiso   1.00
O541   O     0.75000   0.79071   0.42946   0.00000  Uiso   1.00
O542   O     0.75000   0.70929   0.57054   0.00000  Uiso   1.00
O543   O     0.75000   0.79071   0.57054   0.00000  Uiso   1.00
O544   O     0.75000   0.70929   0.42946   0.00000  Uiso   1.00
C545   C     0.16512   0.25000   0.83332   0.00000  Uiso   1.00
C546   C     0.27137   0.44602   0.87068   0.00000  Uiso   1.00
C547   C     0.24998   0.25000   0.74019   0.00000  Uiso   1.00
C548   C     0.25002   0.25000   0.92648   0.00000  Uiso   1.00
C549   C     0.25000   0.02733   0.83333   0.00000  Uiso   1.00
C550   C     0.25000   0.47265   0.83333   0.00000  Uiso   1.00
C551   C     0.24999   0.25001   0.68851   0.00000  Uiso   1.00
C552   C     0.25001   0.25001   0.97816   0.00000  Uiso   1.00
C553   C     0.04738   0.26692   0.79226   0.00000  Uiso   1.00
C554   C     0.45242   0.23293   0.79233   0.00000  Uiso   1.00
C555   C     0.45263   0.26705   0.87435   0.00000  Uiso   1.00
C556   C     0.33488   0.25000   0.83335   0.00000  Uiso   1.00
C557   C     0.04759   0.23306   0.87439   0.00000  Uiso   1.00
C558   C     0.09363   0.26709   0.79176   0.00000  Uiso   1.00
C559   C     0.40617   0.23277   0.79184   0.00000  Uiso   1.00
C560   C     0.40638   0.26722   0.87485   0.00000  Uiso   1.00
C561   C     0.09384   0.23289   0.87488   0.00000  Uiso   1.00
C562   C     0.11691   0.24999   0.83332   0.00000  Uiso   1.00
C563   C     0.38310   0.24999   0.83335   0.00000  Uiso   1.00
C564   C     0.02431   0.24999   0.83333   0.00000  Uiso   1.00
C565   C     0.47569   0.24999   0.83334   0.00000  Uiso   1.00
C566   C     0.11756   0.28464   0.74656   0.00000  Uiso   1.00
C567   C     0.28365   0.10467   0.85548   0.00000  Uiso   1.00
C568   C     0.38202   0.21510   0.74669   0.00000  Uiso   1.00
C569   C     0.38245   0.28490   0.92000   0.00000  Uiso   1.00
C570   C     0.11799   0.21537   0.92009   0.00000  Uiso   1.00
C571   C     0.22876   0.39531   0.79688   0.00000  Uiso   1.00
C572   C     0.21635   0.10467   0.81118   0.00000  Uiso   1.00
C573   C     0.27124   0.39531   0.86979   0.00000  Uiso   1.00
C574   C     0.28446   0.05396   0.85559   0.00000  Uiso   1.00
C575   C     0.22863   0.44602   0.79599   0.00000  Uiso   1.00
C576   C     0.21554   0.05396   0.81108   0.00000  Uiso   1.00
Cu577  Cu    0.25000   0.29822   0.83333   0.00000  Uiso   1.00
Cu578  Cu    0.25000   0.20179   0.83333   0.00000  Uiso   1.00
H579   H     0.31027   0.12425   0.87312   0.00000  Uiso   1.00
H580   H     0.21231   0.46397   0.76568   0.00000  Uiso   1.00
H581   H     0.18762   0.03601   0.79414   0.00000  Uiso   1.00
H582   H     0.28769   0.46397   0.90099   0.00000  Uiso   1.00
H583   H     0.13957   0.25578   0.73236   0.00000  Uiso   1.00
H584   H     0.09413   0.29474   0.71675   0.00000  Uiso   1.00
H585   H     0.13774   0.31686   0.75570   0.00000  Uiso   1.00
H586   H     0.36186   0.18292   0.75592   0.00000  Uiso   1.00
H587   H     0.35996   0.24393   0.73239   0.00000  Uiso   1.00
H588   H     0.40530   0.20489   0.71692   0.00000  Uiso   1.00
H589   H     0.36043   0.25610   0.93428   0.00000  Uiso   1.00
H590   H     0.21189   0.37569   0.76805   0.00000  Uiso   1.00
H591   H     0.40588   0.29508   0.94978   0.00000  Uiso   1.00
H592   H     0.36229   0.31711   0.91077   0.00000  Uiso   1.00
H593   H     0.13817   0.18317   0.91095   0.00000  Uiso   1.00
H594   H     0.14003   0.24424   0.93431   0.00000  Uiso   1.00
H595   H     0.09471   0.20522   0.94988   0.00000  Uiso   1.00
H596   H     0.18973   0.12425   0.79355   0.00000  Uiso   1.00
H597   H     0.28811   0.37569   0.89862   0.00000  Uiso   1.00
H598   H     0.02920   0.28043   0.76075   0.00000  Uiso   1.00
H599   H     0.47044   0.21933   0.76087   0.00000  Uiso   1.00
H600   H     0.47081   0.28065   0.90582   0.00000  Uiso   1.00
H601   H     0.02957   0.21956   0.90590   0.00000  Uiso   1.00
H602   H     0.31238   0.03601   0.87253   0.00000  Uiso   1.00
N603   N     0.25000   0.12935   0.83333   0.00000  Uiso   1.00
N604   N     0.25000   0.37066   0.83333   0.00000  Uiso   1.00
O605   O     0.18573   0.29072   0.83334   0.00000  Uiso   1.00
O606   O     0.31427   0.20929   0.83333   0.00000  Uiso   1.00
O607   O     0.31427   0.29072   0.83333   0.00000  Uiso   1.00
O608   O     0.18573   0.20929   0.83334   0.00000  Uiso   1.00
O609   O     0.25000   0.29071   0.76280   0.00000  Uiso   1.00
O610   O     0.25000   0.20929   0.90387   0.00000  Uiso   1.00
O611   O     0.25000   0.29071   0.90387   0.00000  Uiso   1.00
O612   O     0.25000   0.20929   0.76280   0.00000  Uiso   1.00
C613   C     0.66512   0.25000   0.83332   0.00000  Uiso   1.00
C614   C     0.77137   0.44602   0.87068   0.00000  Uiso   1.00
C615   C     0.74998   0.25000   0.74019   0.00000  Uiso   1.00
C616   C     0.75002   0.25000   0.92648   0.00000  Uiso   1.00
C617   C     0.75000   0.02733   0.83333   0.00000  Uiso   1.00
C618   C     0.75000   0.47265   0.83333   0.00000  Uiso   1.00
C619   C     0.74999   0.25001   0.68851   0.00000  Uiso   1.00
C620   C     0.75001   0.25001   0.97816   0.00000  Uiso   1.00
C621   C     0.54738   0.26692   0.79226   0.00000  Uiso   1.00
C622   C     0.95242   0.23293   0.79233   0.00000  Uiso   1.00
C623   C     0.95263   0.26705   0.87435   0.00000  Uiso   1.00
C624   C     0.83488   0.25000   0.83335   0.00000  Uiso   1.00
C625   C     0.54759   0.23306   0.87439   0.00000  Uiso   1.00
C626   C     0.59363   0.26709   0.79176   0.00000  Uiso   1.00
C627   C     0.90617   0.23277   0.79184   0.00000  Uiso   1.00
C628   C     0.90638   0.26722   0.87485   0.00000  Uiso   1.00
C629   C     0.59384   0.23289   0.87488   0.00000  Uiso   1.00
C630   C     0.61691   0.24999   0.83332   0.00000  Uiso   1.00
C631   C     0.88310   0.24999   0.83335   0.00000  Uiso   1.00
C632   C     0.52431   0.24999   0.83333   0.00000  Uiso   1.00
C633   C     0.97569   0.24999   0.83334   0.00000  Uiso   1.00
C634   C     0.61756   0.28464   0.74656   0.00000  Uiso   1.00
C635   C     0.78365   0.10467   0.85548   0.00000  Uiso   1.00
C636   C     0.88202   0.21510   0.74669   0.00000  Uiso   1.00
C637   C     0.88245   0.28490   0.92000   0.00000  Uiso   1.00
C638   C     0.61799   0.21537   0.92009   0.00000  Uiso   1.00
C639   C     0.72876   0.39531   0.79688   0.00000  Uiso   1.00
C640   C     0.71635   0.10467   0.81118   0.00000  Uiso   1.00
C641   C     0.77124   0.39531   0.86979   0.00000  Uiso   1.00
C642   C     0.78446   0.05396   0.85559   0.00000  Uiso   1.00
C643   C     0.72863   0.44602   0.79599   0.00000  Uiso   1.00
C644   C     0.71554   0.05396   0.81108   0.00000  Uiso   1.00
Cu645  Cu    0.75000   0.29822   0.83333   0.00000  Uiso   1.00
Cu646  Cu    0.75000   0.20179   0.83333   0.00000  Uiso   1.00
H647   H     0.81027   0.12425   0.87312   0.00000  Uiso   1.00
H648   H     0.71231   0.46397   0.76568   0.00000  Uiso   1.00
H649   H     0.68762   0.03601   0.79414   0.00000  Uiso   1.00
H650   H     0.78769   0.46397   0.90099   0.00000  Uiso   1.00
H651   H     0.63957   0.25578   0.73236   0.00000  Uiso   1.00
H652   H     0.59413   0.29474   0.71675   0.00000  Uiso   1.00
H653   H     0.63774   0.31686   0.75570   0.00000  Uiso   1.00
H654   H     0.86186   0.18292   0.75592   0.00000  Uiso   1.00
H655   H     0.85996   0.24393   0.73239   0.00000  Uiso   1.00
H656   H     0.90530   0.20489   0.71692   0.00000  Uiso   1.00
H657   H     0.86043   0.25610   0.93428   0.00000  Uiso   1.00
H658   H     0.71189   0.37569   0.76805   0.00000  Uiso   1.00
H659   H     0.90588   0.29508   0.94978   0.00000  Uiso   1.00
H660   H     0.86229   0.31711   0.91077   0.00000  Uiso   1.00
H661   H     0.63817   0.18317   0.91095   0.00000  Uiso   1.00
H662   H     0.64003   0.24424   0.93431   0.00000  Uiso   1.00
H663   H     0.59471   0.20522   0.94988   0.00000  Uiso   1.00
H664   H     0.68973   0.12425   0.79355   0.00000  Uiso   1.00
H665   H     0.78811   0.37569   0.89862   0.00000  Uiso   1.00
H666   H     0.52920   0.28043   0.76075   0.00000  Uiso   1.00
H667   H     0.97044   0.21933   0.76087   0.00000  Uiso   1.00
H668   H     0.97081   0.28065   0.90582   0.00000  Uiso   1.00
H669   H     0.52957   0.21956   0.90590   0.00000  Uiso   1.00
H670   H     0.81238   0.03601   0.87253   0.00000  Uiso   1.00
N671   N     0.75000   0.12935   0.83333   0.00000  Uiso   1.00
N672   N     0.75000   0.37066   0.83333   0.00000  Uiso   1.00
O673   O     0.68573   0.29072   0.83334   0.00000  Uiso   1.00
O674   O     0.81427   0.20929   0.83333   0.00000  Uiso   1.00
O675   O     0.81427   0.29072   0.83333   0.00000  Uiso   1.00
O676   O     0.68573   0.20929   0.83334   0.00000  Uiso   1.00
O677   O     0.75000   0.29071   0.76280   0.00000  Uiso   1.00
O678   O     0.75000   0.20929   0.90387   0.00000  Uiso   1.00
O679   O     0.75000   0.29071   0.90387   0.00000  Uiso   1.00
O680   O     0.75000   0.20929   0.76280   0.00000  Uiso   1.00
C681   C     0.16512   0.75000   0.83332   0.00000  Uiso   1.00
C682   C     0.27137   0.94602   0.87068   0.00000  Uiso   1.00
C683   C     0.24998   0.75000   0.74019   0.00000  Uiso   1.00
C684   C     0.25002   0.75000   0.92648   0.00000  Uiso   1.00
C685   C     0.25000   0.52733   0.83333   0.00000  Uiso   1.00
C686   C     0.25000   0.97265   0.83333   0.00000  Uiso   1.00
C687   C     0.24999   0.75001   0.68851   0.00000  Uiso   1.00
C688   C     0.25001   0.75001   0.97816   0.00000  Uiso   1.00
C689   C     0.04738   0.76692   0.79226   0.00000  Uiso   1.00
C690   C     0.45242   0.73293   0.79233   0.00000  Uiso   1.00
C691   C     0.45263   0.76705   0.87435   0.00000  Uiso   1.00
C692   C     0.33488   0.75000   0.83335   0.00000  Uiso   1.00
C693   C     0.04759   0.73306   0.87439   0.00000  Uiso   1.00
C694   C     0.09363   0.76709   0.79176   0.00000  Uiso   1.00
C695   C     0.40617   0.73277   0.79184   0.00000  Uiso   1.00
C696   C     0.40638   0.76722   0.87485   0.00000  Uiso   1.00
C697   C     0.09384   0.73289   0.87488   0.00000  Uiso   1.00
C698   C     0.11691   0.74999   0.83332   0.00000  Uiso   1.00
C699   C     0.38310   0.74999   0.83335   0.00000  Uiso   1.00
C700   C     0.02431   0.74999   0.83333   0.00000  Uiso   1.00
C701   C     0.47569   0.74999   0.83334   0.00000  Uiso   1.00
C702   C     0.11756   0.78464   0.74656   0.00000  Uiso   1.00
C703   C     0.28365   0.60467   0.85548   0.00000  Uiso   1.00
C704   C     0.38202   0.71510   0.74669   0.00000  Uiso   1.00
C705   C     0.38245   0.78490   0.92000   0.00000  Uiso   1.00
C706   C     0.11799   0.71537   0.92009   0.00000  Uiso   1.00
C707   C     0.22876   0.89531   0.79688   0.00000  Uiso   1.00
C708   C     0.21635   0.60467   0.81118   0.00000  Uiso   1.00
C709   C     0.27124   0.89531   0.86979   0.00000  Uiso   1.00
C710   C     0.28446   0.55396   0.85559   0.00000  Uiso   1.00
C711   C     0.22863   0.94602   0.79599   0.00000  Uiso   1.00
C712   C     0.21554   0.55396   0.81108   0.00000  Uiso   1.00
Cu713  Cu    0.25000   0.79822   0.83333   0.00000  Uiso   1.00
Cu714  Cu    0.25000   0.70179   0.83333   0.00000  Uiso   1.00
H715   H     0.31027   0.62425   0.87312   0.00000  Uiso   1.00
H716   H     0.21231   0.96397   0.76568   0.00000  Uiso   1.00
H717   H     0.18762   0.53601   0.79414   0.00000  Uiso   1.00
H718   H     0.28769   0.96397   0.90099   0.00000  Uiso   1.00
H719   H     0.13957   0.75578   0.73236   0.00000  Uiso   1.00
H720   H     0.09413   0.79474   0.71675   0.00000  Uiso   1.00
H721   H     0.13774   0.81686   0.75570   0.00000  Uiso   1.00
H722   H     0.36186   0.68292   0.75592   0.00000  Uiso   1.00
H723   H     0.35996   0.74393   0.73239   0.00000  Uiso   1.00
H724   H     0.40530   0.70489   0.71692   0.00000  Uiso   1.00
H725   H     0.36043   0.75610   0.93428   0.00000  Uiso   1.00
H726   H     0.21189   0.87569   0.76805   0.00000  Uiso   1.00
H727   H     0.40588   0.79508   0.94978   0.00000  Uiso   1.00
H728   H     0.36229   0.81711   0.91077   0.00000  Uiso   1.00
H729   H     0.13817   0.68317   0.91095   0.00000  Uiso   1.00
H730   H     0.14003   0.74424   0.93431   0.00000  Uiso   1.00
H731   H     0.09471   0.70522   0.94988   0.00000  Uiso   1.00
H732   H     0.18973   0.62425   0.79355   0.00000  Uiso   1.00
H733   H     0.28811   0.87569   0.89862   0.00000  Uiso   1.00
H734   H     0.02920   0.78043   0.76075   0.00000  Uiso   1.00
H735   H     0.47044   0.71933   0.76087   0.00000  Uiso   1.00
H736   H     0.47081   0.78065   0.90582   0.00000  Uiso   1.00
H737   H     0.02957   0.71956   0.90590   0.00000  Uiso   1.00
H738   H     0.31238   0.53601   0.87253   0.00000  Uiso   1.00
N739   N     0.25000   0.62935   0.83333   0.00000  Uiso   1.00
N740   N     0.25000   0.87066   0.83333   0.00000  Uiso   1.00
O741   O     0.18573   0.79072   0.83334   0.00000  Uiso   1.00
O742   O     0.31427   0.70929   0.83333   0.00000  Uiso   1.00
O743   O     0.31427   0.79072   0.83333   0.00000  Uiso   1.00
O744   O     0.18573   0.70929   0.83334   0.00000  Uiso   1.00
O745   O     0.25000   0.79071   0.76280   0.00000  Uiso   1.00
O746   O     0.25000   0.70929   0.90387   0.00000  Uiso   1.00
O747   O     0.25000   0.79071   0.90387   0.00000  Uiso   1.00
O748   O     0.25000   0.70929   0.76280   0.00000  Uiso   1.00
C749   C     0.66512   0.75000   0.83332   0.00000  Uiso   1.00
C750   C     0.77137   0.94602   0.87068   0.00000  Uiso   1.00
C751   C     0.74998   0.75000   0.74019   0.00000  Uiso   1.00
C752   C     0.75002   0.75000   0.92648   0.00000  Uiso   1.00
C753   C     0.75000   0.52733   0.83333   0.00000  Uiso   1.00
C754   C     0.75000   0.97265   0.83333   0.00000  Uiso   1.00
C755   C     0.74999   0.75001   0.68851   0.00000  Uiso   1.00
C756   C     0.75001   0.75001   0.97816   0.00000  Uiso   1.00
C757   C     0.54738   0.76692   0.79226   0.00000  Uiso   1.00
C758   C     0.95242   0.73293   0.79233   0.00000  Uiso   1.00
C759   C     0.95263   0.76705   0.87435   0.00000  Uiso   1.00
C760   C     0.83488   0.75000   0.83335   0.00000  Uiso   1.00
C761   C     0.54759   0.73306   0.87439   0.00000  Uiso   1.00
C762   C     0.59363   0.76709   0.79176   0.00000  Uiso   1.00
C763   C     0.90617   0.73277   0.79184   0.00000  Uiso   1.00
C764   C     0.90638   0.76722   0.87485   0.00000  Uiso   1.00
C765   C     0.59384   0.73289   0.87488   0.00000  Uiso   1.00
C766   C     0.61691   0.74999   0.83332   0.00000  Uiso   1.00
C767   C     0.88310   0.74999   0.83335   0.00000  Uiso   1.00
C768   C     0.52431   0.74999   0.83333   0.00000  Uiso   1.00
C769   C     0.97569   0.74999   0.83334   0.00000  Uiso   1.00
C770   C     0.61756   0.78464   0.74656   0.00000  Uiso   1.00
C771   C     0.78365   0.60467   0.85548   0.00000  Uiso   1.00
C772   C     0.88202   0.71510   0.74669   0.00000  Uiso   1.00
C773   C     0.88245   0.78490   0.92000   0.00000  Uiso   1.00
C774   C     0.61799   0.71537   0.92009   0.00000  Uiso   1.00
C775   C     0.72876   0.89531   0.79688   0.00000  Uiso   1.00
C776   C     0.71635   0.60467   0.81118   0.00000  Uiso   1.00
C777   C     0.77124   0.89531   0.86979   0.00000  Uiso   1.00
C778   C     0.78446   0.55396   0.85559   0.00000  Uiso   1.00
C779   C     0.72863   0.94602   0.79599   0.00000  Uiso   1.00
C780   C     0.71554   0.55396   0.81108   0.00000  Uiso   1.00
Cu781  Cu    0.75000   0.79822   0.83333   0.00000  Uiso   1.00
Cu782  Cu    0.75000   0.70179   0.83333   0.00000  Uiso   1.00
H783   H     0.81027   0.62425   0.87312   0.00000  Uiso   1.00
H784   H     0.71231   0.96397   0.76568   0.00000  Uiso   1.00
H785   H     0.68762   0.53601   0.79414   0.00000  Uiso   1.00
H786   H     0.78769   0.96397   0.90099   0.00000  Uiso   1.00
H787   H     0.63957   0.75578   0.73236   0.00000  Uiso   1.00
H788   H     0.59413   0.79474   0.71675   0.00000  Uiso   1.00
H789   H     0.63774   0.81686   0.75570   0.00000  Uiso   1.00
H790   H     0.86186   0.68292   0.75592   0.00000  Uiso   1.00
H791   H     0.85996   0.74393   0.73239   0.00000  Uiso   1.00
H792   H     0.90530   0.70489   0.71692   0.00000  Uiso   1.00
H793   H     0.86043   0.75610   0.93428   0.00000  Uiso   1.00
H794   H     0.71189   0.87569   0.76805   0.00000  Uiso   1.00
H795   H     0.90588   0.79508   0.94978   0.00000  Uiso   1.00
H796   H     0.86229   0.81711   0.91077   0.00000  Uiso   1.00
H797   H     0.63817   0.68317   0.91095   0.00000  Uiso   1.00
H798   H     0.64003   0.74424   0.93431   0.00000  Uiso   1.00
H799   H     0.59471   0.70522   0.94988   0.00000  Uiso   1.00
H800   H     0.68973   0.62425   0.79355   0.00000  Uiso   1.00
H801   H     0.78811   0.87569   0.89862   0.00000  Uiso   1.00
H802   H     0.52920   0.78043   0.76075   0.00000  Uiso   1.00
H803   H     0.97044   0.71933   0.76087   0.00000  Uiso   1.00
H804   H     0.97081   0.78065   0.90582   0.00000  Uiso   1.00
H805   H     0.52957   0.71956   0.90590   0.00000  Uiso   1.00
H806   H     0.81238   0.53601   0.87253   0.00000  Uiso   1.00
N807   N     0.75000   0.62935   0.83333   0.00000  Uiso   1.00
N808   N     0.75000   0.87066   0.83333   0.00000  Uiso   1.00
O809   O     0.68573   0.79072   0.83334   0.00000  Uiso   1.00
O810   O     0.81427   0.70929   0.83333   0.00000  Uiso   1.00
O811   O     0.81427   0.79072   0.83333   0.00000  Uiso   1.00
O812   O     0.68573   0.70929   0.83334   0.00000  Uiso   1.00
O813   O     0.75000   0.79071   0.76280   0.00000  Uiso   1.00
O814   O     0.75000   0.70929   0.90387   0.00000  Uiso   1.00
O815   O     0.75000   0.79071   0.90387   0.00000  Uiso   1.00
O816   O     0.75000   0.70929   0.76280   0.00000  Uiso   1.00
loop_
_geom_bond_atom_site_label_1
_geom_bond_atom_site_label_2
_geom_bond_distance
_geom_bond_site_symmetry_2
_ccdc_geom_bond_type
C1     O64     1.290   .     A
C1     C18     1.455   .     S
C1     O61     1.290   .     A
C2     H38     1.081   .     S
C2     C6      1.411   .     A
C2     C29     1.408   .     A
C3     C7      1.407   .     S
C3     O68     1.287   .     A
C3     O65     1.287   .     A
C4     O67     1.287   .     A
C4     O66     1.287   .     A
C4     C8      1.407   .     S
C5     C32     1.411   .     A
C5     C30     1.411   .     A
C5     C142    1.518   1_545 S
C6     C31     1.411   .     A
C6     C141    1.518   .     S
C7     C552    1.189   1_554 S
C8     C279    1.189   .     S
C9     C14     1.396   .     A
C9     C20     1.400   .     A
C9     H54     1.084   .     S
C10    H55     1.084   .     S
C10    C15     1.396   .     A
C10    C21     1.400   .     A
C11    C16     1.396   .     A
C11    C21     1.400   .     A
C11    H56     1.084   .     S
C12    C19     1.455   .     S
C12    O62     1.290   .     A
C12    O63     1.290   .     A
C13    C17     1.396   .     A
C13    H57     1.084   .     S
C13    C20     1.400   .     A
C14    C22     1.509   .     S
C14    C18     1.412   .     A
C15    C24     1.509   .     S
C15    C19     1.412   .     A
C16    C25     1.509   .     S
C16    C19     1.412   .     A
C17    C18     1.412   .     A
C17    C26     1.509   .     S
C20    C89     1.468   1_455 S
C21    C88     1.468   .     S
C22    H40     1.111   .     S
C22    H41     1.110   .     S
C22    H39     1.111   .     S
C23    N59     1.364   .     A
C23    H35     1.081   .     S
C23    C30     1.408   .     A
C24    H42     1.110   .     S
C24    H43     1.111   .     S
C24    H44     1.111   .     S
C25    H48     1.110   .     S
C25    H45     1.111   .     S
C25    H47     1.111   .     S
C26    H50     1.111   .     S
C26    H51     1.111   .     S
C26    H49     1.110   .     S
C27    N60     1.364   .     A
C27    C31     1.408   .     A
C27    H46     1.081   .     S
C28    H52     1.081   .     S
C28    N59     1.364   .     A
C28    C32     1.408   .     A
C29    N60     1.364   .     A
C29    H53     1.081   .     S
C30    H58     1.081   .     S
C31    H36     1.081   .     S
C32    H37     1.081   .     S
Cu33   O63     1.951   .     S
Cu33   O65     1.931   .     S
Cu33   O67     1.931   .     S
Cu33   Cu34    2.676   .     S
Cu33   N60     2.010   .     S
Cu33   O61     1.951   .     S
Cu34   O64     1.951   .     S
Cu34   O66     1.931   .     S
Cu34   N59     2.010   .     S
Cu34   O62     1.951   .     S
Cu34   O68     1.931   .     S
C69    O132    1.290   .     A
C69    C86     1.455   .     S
C69    O129    1.290   .     A
C70    H106    1.081   .     S
C70    C74     1.411   .     A
C70    C97     1.408   .     A
C71    C75     1.407   .     S
C71    O136    1.287   .     A
C71    O133    1.287   .     A
C72    O135    1.287   .     A
C72    O134    1.287   .     A
C72    C76     1.407   .     S
C73    C100    1.411   .     A
C73    C98     1.411   .     A
C73    C210    1.518   1_545 S
C74    C99     1.411   .     A
C74    C209    1.518   .     S
C75    C620    1.189   1_554 S
C76    C347    1.189   .     S
C77    C82     1.396   .     A
C77    C88     1.400   .     A
C77    H122    1.084   .     S
C78    H123    1.084   .     S
C78    C83     1.396   .     A
C78    C89     1.400   .     A
C79    C84     1.396   .     A
C79    C89     1.400   .     A
C79    H124    1.084   .     S
C80    C87     1.455   .     S
C80    O130    1.290   .     A
C80    O131    1.290   .     A
C81    C85     1.396   .     A
C81    H125    1.084   .     S
C81    C88     1.400   .     A
C82    C90     1.509   .     S
C82    C86     1.412   .     A
C83    C92     1.509   .     S
C83    C87     1.412   .     A
C84    C93     1.509   .     S
C84    C87     1.412   .     A
C85    C86     1.412   .     A
C85    C94     1.509   .     S
C89    C20     1.468   1_655 S
C90    H108    1.111   .     S
C90    H109    1.110   .     S
C90    H107    1.111   .     S
C91    N127    1.364   .     A
C91    H103    1.081   .     S
C91    C98     1.408   .     A
C92    H110    1.110   .     S
C92    H111    1.111   .     S
C92    H112    1.111   .     S
C93    H116    1.110   .     S
C93    H113    1.111   .     S
C93    H115    1.111   .     S
C94    H118    1.111   .     S
C94    H119    1.111   .     S
C94    H117    1.110   .     S
C95    N128    1.364   .     A
C95    C99     1.408   .     A
C95    H114    1.081   .     S
C96    H120    1.081   .     S
C96    N127    1.364   .     A
C96    C100    1.408   .     A
C97    N128    1.364   .     A
C97    H121    1.081   .     S
C98    H126    1.081   .     S
C99    H104    1.081   .     S
C100   H105    1.081   .     S
Cu101  O131    1.951   .     S
Cu101  O133    1.931   .     S
Cu101  O135    1.931   .     S
Cu101  Cu102   2.676   .     S
Cu101  N128    2.010   .     S
Cu101  O129    1.951   .     S
Cu102  O132    1.951   .     S
Cu102  O134    1.931   .     S
Cu102  N127    2.010   .     S
Cu102  O130    1.951   .     S
Cu102  O136    1.931   .     S
C137   O200    1.290   .     A
C137   C154    1.455   .     S
C137   O197    1.290   .     A
C138   H174    1.081   .     S
C138   C142    1.411   .     A
C138   C165    1.408   .     A
C139   C143    1.407   .     S
C139   O204    1.287   .     A
C139   O201    1.287   .     A
C140   O203    1.287   .     A
C140   O202    1.287   .     A
C140   C144    1.407   .     S
C141   C168    1.411   .     A
C141   C166    1.411   .     A
C142   C167    1.411   .     A
C142   C5      1.518   1_565 S
C143   C688    1.189   1_554 S
C144   C415    1.189   .     S
C145   C150    1.396   .     A
C145   C156    1.400   .     A
C145   H190    1.084   .     S
C146   H191    1.084   .     S
C146   C151    1.396   .     A
C146   C157    1.400   .     A
C147   C152    1.396   .     A
C147   C157    1.400   .     A
C147   H192    1.084   .     S
C148   C155    1.455   .     S
C148   O198    1.290   .     A
C148   O199    1.290   .     A
C149   C153    1.396   .     A
C149   H193    1.084   .     S
C149   C156    1.400   .     A
C150   C158    1.509   .     S
C150   C154    1.412   .     A
C151   C160    1.509   .     S
C151   C155    1.412   .     A
C152   C161    1.509   .     S
C152   C155    1.412   .     A
C153   C154    1.412   .     A
C153   C162    1.509   .     S
C156   C225    1.468   1_455 S
C157   C224    1.468   .     S
C158   H176    1.111   .     S
C158   H177    1.110   .     S
C158   H175    1.111   .     S
C159   N195    1.364   .     A
C159   H171    1.081   .     S
C159   C166    1.408   .     A
C160   H178    1.110   .     S
C160   H179    1.111   .     S
C160   H180    1.111   .     S
C161   H184    1.110   .     S
C161   H181    1.111   .     S
C161   H183    1.111   .     S
C162   H186    1.111   .     S
C162   H187    1.111   .     S
C162   H185    1.110   .     S
C163   N196    1.364   .     A
C163   C167    1.408   .     A
C163   H182    1.081   .     S
C164   H188    1.081   .     S
C164   N195    1.364   .     A
C164   C168    1.408   .     A
C165   N196    1.364   .     A
C165   H189    1.081   .     S
C166   H194    1.081   .     S
C167   H172    1.081   .     S
C168   H173    1.081   .     S
Cu169  O199    1.951   .     S
Cu169  O201    1.931   .     S
Cu169  O203    1.931   .     S
Cu169  Cu170   2.676   .     S
Cu169  N196    2.010   .     S
Cu169  O197    1.951   .     S
Cu170  O200    1.951   .     S
Cu170  O202    1.931   .     S
Cu170  N195    2.010   .     S
Cu170  O198    1.951   .     S
Cu170  O204    1.931   .     S
C205   O268    1.290   .     A
C205   C222    1.455   .     S
C205   O265    1.290   .     A
C206   H242    1.081   .     S
C206   C210    1.411   .     A
C206   C233    1.408   .     A
C207   C211    1.407   .     S
C207   O272    1.287   .     A
C207   O269    1.287   .     A
C208   O271    1.287   .     A
C208   O270    1.287   .     A
C208   C212    1.407   .     S
C209   C236    1.411   .     A
C209   C234    1.411   .     A
C210   C235    1.411   .     A
C210   C73     1.518   1_565 S
C211   C756    1.189   1_554 S
C212   C483    1.189   .     S
C213   C218    1.396   .     A
C213   C224    1.400   .     A
C213   H258    1.084   .     S
C214   H259    1.084   .     S
C214   C219    1.396   .     A
C214   C225    1.400   .     A
C215   C220    1.396   .     A
C215   C225    1.400   .     A
C215   H260    1.084   .     S
C216   C223    1.455   .     S
C216   O266    1.290   .     A
C216   O267    1.290   .     A
C217   C221    1.396   .     A
C217   H261    1.084   .     S
C217   C224    1.400   .     A
C218   C226    1.509   .     S
C218   C222    1.412   .     A
C219   C228    1.509   .     S
C219   C223    1.412   .     A
C220   C229    1.509   .     S
C220   C223    1.412   .     A
C221   C222    1.412   .     A
C221   C230    1.509   .     S
C225   C156    1.468   1_655 S
C226   H244    1.111   .     S
C226   H245    1.110   .     S
C226   H243    1.111   .     S
C227   N263    1.364   .     A
C227   H239    1.081   .     S
C227   C234    1.408   .     A
C228   H246    1.110   .     S
C228   H247    1.111   .     S
C228   H248    1.111   .     S
C229   H252    1.110   .     S
C229   H249    1.111   .     S
C229   H251    1.111   .     S
C230   H254    1.111   .     S
C230   H255    1.111   .     S
C230   H253    1.110   .     S
C231   N264    1.364   .     A
C231   C235    1.408   .     A
C231   H250    1.081   .     S
C232   H256    1.081   .     S
C232   N263    1.364   .     A
C232   C236    1.408   .     A
C233   N264    1.364   .     A
C233   H257    1.081   .     S
C234   H262    1.081   .     S
C235   H240    1.081   .     S
C236   H241    1.081   .     S
Cu237  O267    1.951   .     S
Cu237  O269    1.931   .     S
Cu237  O271    1.931   .     S
Cu237  Cu238   2.676   .     S
Cu237  N264    2.010   .     S
Cu237  O265    1.951   .     S
Cu238  O268    1.951   .     S
Cu238  O270    1.931   .     S
Cu238  N263    2.010   .     S
Cu238  O266    1.951   .     S
Cu238  O272    1.931   .     S
C273   O336    1.290   .     A
C273   C290    1.455   .     S
C273   O333    1.290   .     A
C274   H310    1.081   .     S
C274   C278    1.411   .     A
C274   C301    1.408   .     A
C275   C279    1.407   .     S
C275   O340    1.287   .     A
C275   O337    1.287   .     A
C276   O339    1.287   .     A
C276   O338    1.287   .     A
C276   C280    1.407   .     S
C277   C304    1.411   .     A
C277   C302    1.411   .     A
C277   C414    1.518   1_545 S
C278   C303    1.411   .     A
C278   C413    1.518   .     S
C280   C551    1.189   .     S
C281   C286    1.396   .     A
C281   C292    1.400   .     A
C281   H326    1.084   .     S
C282   H327    1.084   .     S
C282   C287    1.396   .     A
C282   C293    1.400   .     A
C283   C288    1.396   .     A
C283   C293    1.400   .     A
C283   H328    1.084   .     S
C284   C291    1.455   .     S
C284   O334    1.290   .     A
C284   O335    1.290   .     A
C285   C289    1.396   .     A
C285   H329    1.084   .     S
C285   C292    1.400   .     A
C286   C294    1.509   .     S
C286   C290    1.412   .     A
C287   C296    1.509   .     S
C287   C291    1.412   .     A
C288   C297    1.509   .     S
C288   C291    1.412   .     A
C289   C290    1.412   .     A
C289   C298    1.509   .     S
C292   C361    1.468   1_455 S
C293   C360    1.468   .     S
C294   H312    1.111   .     S
C294   H313    1.110   .     S
C294   H311    1.111   .     S
C295   N331    1.364   .     A
C295   H307    1.081   .     S
C295   C302    1.408   .     A
C296   H314    1.110   .     S
C296   H315    1.111   .     S
C296   H316    1.111   .     S
C297   H320    1.110   .     S
C297   H317    1.111   .     S
C297   H319    1.111   .     S
C298   H322    1.111   .     S
C298   H323    1.111   .     S
C298   H321    1.110   .     S
C299   N332    1.364   .     A
C299   C303    1.408   .     A
C299   H318    1.081   .     S
C300   H324    1.081   .     S
C300   N331    1.364   .     A
C300   C304    1.408   .     A
C301   N332    1.364   .     A
C301   H325    1.081   .     S
C302   H330    1.081   .     S
C303   H308    1.081   .     S
C304   H309    1.081   .     S
Cu305  O335    1.951   .     S
Cu305  O337    1.931   .     S
Cu305  O339    1.931   .     S
Cu305  Cu306   2.676   .     S
Cu305  N332    2.010   .     S
Cu305  O333    1.951   .     S
Cu306  O336    1.951   .     S
Cu306  O338    1.931   .     S
Cu306  N331    2.010   .     S
Cu306  O334    1.951   .     S
Cu306  O340    1.931   .     S
C341   O404    1.290   .     A
C341   C358    1.455   .     S
C341   O401    1.290   .     A
C342   H378    1.081   .     S
C342   C346    1.411   .     A
C342   C369    1.408   .     A
C343   C347    1.407   .     S
C343   O408    1.287   .     A
C343   O405    1.287   .     A
C344   O407    1.287   .     A
C344   O406    1.287   .     A
C344   C348    1.407   .     S
C345   C372    1.411   .     A
C345   C370    1.411   .     A
C345   C482    1.518   1_545 S
C346   C371    1.411   .     A
C346   C481    1.518   .     S
C348   C619    1.189   .     S
C349   C354    1.396   .     A
C349   C360    1.400   .     A
C349   H394    1.084   .     S
C350   H395    1.084   .     S
C350   C355    1.396   .     A
C350   C361    1.400   .     A
C351   C356    1.396   .     A
C351   C361    1.400   .     A
C351   H396    1.084   .     S
C352   C359    1.455   .     S
C352   O402    1.290   .     A
C352   O403    1.290   .     A
C353   C357    1.396   .     A
C353   H397    1.084   .     S
C353   C360    1.400   .     A
C354   C362    1.509   .     S
C354   C358    1.412   .     A
C355   C364    1.509   .     S
C355   C359    1.412   .     A
C356   C365    1.509   .     S
C356   C359    1.412   .     A
C357   C358    1.412   .     A
C357   C366    1.509   .     S
C361   C292    1.468   1_655 S
C362   H380    1.111   .     S
C362   H381    1.110   .     S
C362   H379    1.111   .     S
C363   N399    1.364   .     A
C363   H375    1.081   .     S
C363   C370    1.408   .     A
C364   H382    1.110   .     S
C364   H383    1.111   .     S
C364   H384    1.111   .     S
C365   H388    1.110   .     S
C365   H385    1.111   .     S
C365   H387    1.111   .     S
C366   H390    1.111   .     S
C366   H391    1.111   .     S
C366   H389    1.110   .     S
C367   N400    1.364   .     A
C367   C371    1.408   .     A
C367   H386    1.081   .     S
C368   H392    1.081   .     S
C368   N399    1.364   .     A
C368   C372    1.408   .     A
C369   N400    1.364   .     A
C369   H393    1.081   .     S
C370   H398    1.081   .     S
C371   H376    1.081   .     S
C372   H377    1.081   .     S
Cu373  O403    1.951   .     S
Cu373  O405    1.931   .     S
Cu373  O407    1.931   .     S
Cu373  Cu374   2.676   .     S
Cu373  N400    2.010   .     S
Cu373  O401    1.951   .     S
Cu374  O404    1.951   .     S
Cu374  O406    1.931   .     S
Cu374  N399    2.010   .     S
Cu374  O402    1.951   .     S
Cu374  O408    1.931   .     S
C409   O472    1.290   .     A
C409   C426    1.455   .     S
C409   O469    1.290   .     A
C410   H446    1.081   .     S
C410   C414    1.411   .     A
C410   C437    1.408   .     A
C411   C415    1.407   .     S
C411   O476    1.287   .     A
C411   O473    1.287   .     A
C412   O475    1.287   .     A
C412   O474    1.287   .     A
C412   C416    1.407   .     S
C413   C440    1.411   .     A
C413   C438    1.411   .     A
C414   C439    1.411   .     A
C414   C277    1.518   1_565 S
C416   C687    1.189   .     S
C417   C422    1.396   .     A
C417   C428    1.400   .     A
C417   H462    1.084   .     S
C418   H463    1.084   .     S
C418   C423    1.396   .     A
C418   C429    1.400   .     A
C419   C424    1.396   .     A
C419   C429    1.400   .     A
C419   H464    1.084   .     S
C420   C427    1.455   .     S
C420   O470    1.290   .     A
C420   O471    1.290   .     A
C421   C425    1.396   .     A
C421   H465    1.084   .     S
C421   C428    1.400   .     A
C422   C430    1.509   .     S
C422   C426    1.412   .     A
C423   C432    1.509   .     S
C423   C427    1.412   .     A
C424   C433    1.509   .     S
C424   C427    1.412   .     A
C425   C426    1.412   .     A
C425   C434    1.509   .     S
C428   C497    1.468   1_455 S
C429   C496    1.468   .     S
C430   H448    1.111   .     S
C430   H449    1.110   .     S
C430   H447    1.111   .     S
C431   N467    1.364   .     A
C431   H443    1.081   .     S
C431   C438    1.408   .     A
C432   H450    1.110   .     S
C432   H451    1.111   .     S
C432   H452    1.111   .     S
C433   H456    1.110   .     S
C433   H453    1.111   .     S
C433   H455    1.111   .     S
C434   H458    1.111   .     S
C434   H459    1.111   .     S
C434   H457    1.110   .     S
C435   N468    1.364   .     A
C435   C439    1.408   .     A
C435   H454    1.081   .     S
C436   H460    1.081   .     S
C436   N467    1.364   .     A
C436   C440    1.408   .     A
C437   N468    1.364   .     A
C437   H461    1.081   .     S
C438   H466    1.081   .     S
C439   H444    1.081   .     S
C440   H445    1.081   .     S
Cu441  O471    1.951   .     S
Cu441  O473    1.931   .     S
Cu441  O475    1.931   .     S
Cu441  Cu442   2.676   .     S
Cu441  N468    2.010   .     S
Cu441  O469    1.951   .     S
Cu442  O472    1.951   .     S
Cu442  O474    1.931   .     S
Cu442  N467    2.010   .     S
Cu442  O470    1.951   .     S
Cu442  O476    1.931   .     S
C477   O540    1.290   .     A
C477   C494    1.455   .     S
C477   O537    1.290   .     A
C478   H514    1.081   .     S
C478   C482    1.411   .     A
C478   C505    1.408   .     A
C479   C483    1.407   .     S
C479   O544    1.287   .     A
C479   O541    1.287   .     A
C480   O543    1.287   .     A
C480   O542    1.287   .     A
C480   C484    1.407   .     S
C481   C508    1.411   .     A
C481   C506    1.411   .     A
C482   C507    1.411   .     A
C482   C345    1.518   1_565 S
C484   C755    1.189   .     S
C485   C490    1.396   .     A
C485   C496    1.400   .     A
C485   H530    1.084   .     S
C486   H531    1.084   .     S
C486   C491    1.396   .     A
C486   C497    1.400   .     A
C487   C492    1.396   .     A
C487   C497    1.400   .     A
C487   H532    1.084   .     S
C488   C495    1.455   .     S
C488   O538    1.290   .     A
C488   O539    1.290   .     A
C489   C493    1.396   .     A
C489   H533    1.084   .     S
C489   C496    1.400   .     A
C490   C498    1.509   .     S
C490   C494    1.412   .     A
C491   C500    1.509   .     S
C491   C495    1.412   .     A
C492   C501    1.509   .     S
C492   C495    1.412   .     A
C493   C494    1.412   .     A
C493   C502    1.509   .     S
C497   C428    1.468   1_655 S
C498   H516    1.111   .     S
C498   H517    1.110   .     S
C498   H515    1.111   .     S
C499   N535    1.364   .     A
C499   H511    1.081   .     S
C499   C506    1.408   .     A
C500   H518    1.110   .     S
C500   H519    1.111   .     S
C500   H520    1.111   .     S
C501   H524    1.110   .     S
C501   H521    1.111   .     S
C501   H523    1.111   .     S
C502   H526    1.111   .     S
C502   H527    1.111   .     S
C502   H525    1.110   .     S
C503   N536    1.364   .     A
C503   C507    1.408   .     A
C503   H522    1.081   .     S
C504   H528    1.081   .     S
C504   N535    1.364   .     A
C504   C508    1.408   .     A
C505   N536    1.364   .     A
C505   H529    1.081   .     S
C506   H534    1.081   .     S
C507   H512    1.081   .     S
C508   H513    1.081   .     S
Cu509  O539    1.951   .     S
Cu509  O541    1.931   .     S
Cu509  O543    1.931   .     S
Cu509  Cu510   2.676   .     S
Cu509  N536    2.010   .     S
Cu509  O537    1.951   .     S
Cu510  O540    1.951   .     S
Cu510  O542    1.931   .     S
Cu510  N535    2.010   .     S
Cu510  O538    1.951   .     S
Cu510  O544    1.931   .     S
C545   O608    1.290   .     A
C545   C562    1.455   .     S
C545   O605    1.290   .     A
C546   H582    1.081   .     S
C546   C550    1.411   .     A
C546   C573    1.408   .     A
C547   C551    1.407   .     S
C547   O612    1.287   .     A
C547   O609    1.287   .     A
C548   O611    1.287   .     A
C548   O610    1.287   .     A
C548   C552    1.407   .     S
C549   C576    1.411   .     A
C549   C574    1.411   .     A
C549   C686    1.518   1_545 S
C550   C575    1.411   .     A
C550   C685    1.518   .     S
C552   C7      1.189   1_556 S
C553   C558    1.396   .     A
C553   C564    1.400   .     A
C553   H598    1.084   .     S
C554   H599    1.084   .     S
C554   C559    1.396   .     A
C554   C565    1.400   .     A
C555   C560    1.396   .     A
C555   C565    1.400   .     A
C555   H600    1.084   .     S
C556   C563    1.455   .     S
C556   O606    1.290   .     A
C556   O607    1.290   .     A
C557   C561    1.396   .     A
C557   H601    1.084   .     S
C557   C564    1.400   .     A
C558   C566    1.509   .     S
C558   C562    1.412   .     A
C559   C568    1.509   .     S
C559   C563    1.412   .     A
C560   C569    1.509   .     S
C560   C563    1.412   .     A
C561   C562    1.412   .     A
C561   C570    1.509   .     S
C564   C633    1.468   1_455 S
C565   C632    1.468   .     S
C566   H584    1.111   .     S
C566   H585    1.110   .     S
C566   H583    1.111   .     S
C567   N603    1.364   .     A
C567   H579    1.081   .     S
C567   C574    1.408   .     A
C568   H586    1.110   .     S
C568   H587    1.111   .     S
C568   H588    1.111   .     S
C569   H592    1.110   .     S
C569   H589    1.111   .     S
C569   H591    1.111   .     S
C570   H594    1.111   .     S
C570   H595    1.111   .     S
C570   H593    1.110   .     S
C571   N604    1.364   .     A
C571   C575    1.408   .     A
C571   H590    1.081   .     S
C572   H596    1.081   .     S
C572   N603    1.364   .     A
C572   C576    1.408   .     A
C573   N604    1.364   .     A
C573   H597    1.081   .     S
C574   H602    1.081   .     S
C575   H580    1.081   .     S
C576   H581    1.081   .     S
Cu577  O607    1.951   .     S
Cu577  O609    1.931   .     S
Cu577  O611    1.931   .     S
Cu577  Cu578   2.676   .     S
Cu577  N604    2.010   .     S
Cu577  O605    1.951   .     S
Cu578  O608    1.951   .     S
Cu578  O610    1.931   .     S
Cu578  N603    2.010   .     S
Cu578  O606    1.951   .     S
Cu578  O612    1.931   .     S
C613   O676    1.290   .     A
C613   C630    1.455   .     S
C613   O673    1.290   .     A
C614   H650    1.081   .     S
C614   C618    1.411   .     A
C614   C641    1.408   .     A
C615   C619    1.407   .     S
C615   O680    1.287   .     A
C615   O677    1.287   .     A
C616   O679    1.287   .     A
C616   O678    1.287   .     A
C616   C620    1.407   .     S
C617   C644    1.411   .     A
C617   C642    1.411   .     A
C617   C754    1.518   1_545 S
C618   C643    1.411   .     A
C618   C753    1.518   .     S
C620   C75     1.189   1_556 S
C621   C626    1.396   .     A
C621   C632    1.400   .     A
C621   H666    1.084   .     S
C622   H667    1.084   .     S
C622   C627    1.396   .     A
C622   C633    1.400   .     A
C623   C628    1.396   .     A
C623   C633    1.400   .     A
C623   H668    1.084   .     S
C624   C631    1.455   .     S
C624   O674    1.290   .     A
C624   O675    1.290   .     A
C625   C629    1.396   .     A
C625   H669    1.084   .     S
C625   C632    1.400   .     A
C626   C634    1.509   .     S
C626   C630    1.412   .     A
C627   C636    1.509   .     S
C627   C631    1.412   .     A
C628   C637    1.509   .     S
C628   C631    1.412   .     A
C629   C630    1.412   .     A
C629   C638    1.509   .     S
C633   C564    1.468   1_655 S
C634   H652    1.111   .     S
C634   H653    1.110   .     S
C634   H651    1.111   .     S
C635   N671    1.364   .     A
C635   H647    1.081   .     S
C635   C642    1.408   .     A
C636   H654    1.110   .     S
C636   H655    1.111   .     S
C636   H656    1.111   .     S
C637   H660    1.110   .     S
C637   H657    1.111   .     S
C637   H659    1.111   .     S
C638   H662    1.111   .     S
C638   H663    1.111   .     S
C638   H661    1.110   .     S
C639   N672    1.364   .     A
C639   C643    1.408   .     A
C639   H658    1.081   .     S
C640   H664    1.081   .     S
C640   N671    1.364   .     A
C640   C644    1.408   .     A
C641   N672    1.364   .     A
C641   H665    1.081   .     S
C642   H670    1.081   .     S
C643   H648    1.081   .     S
C644   H649    1.081   .     S
Cu645  O675    1.951   .     S
Cu645  O677    1.931   .     S
Cu645  O679    1.931   .     S
Cu645  Cu646   2.676   .     S
Cu645  N672    2.010   .     S
Cu645  O673    1.951   .     S
Cu646  O676    1.951   .     S
Cu646  O678    1.931   .     S
Cu646  N671    2.010   .     S
Cu646  O674    1.951   .     S
Cu646  O680    1.931   .     S
C681   O744    1.290   .     A
C681   C698    1.455   .     S
C681   O741    1.290   .     A
C682   H718    1.081   .     S
C682   C686    1.411   .     A
C682   C709    1.408   .     A
C683   C687    1.407   .     S
C683   O748    1.287   .     A
C683   O745    1.287   .     A
C684   O747    1.287   .     A
C684   O746    1.287   .     A
C684   C688    1.407   .     S
C685   C712    1.411   .     A
C685   C710    1.411   .     A
C686   C711    1.411   .     A
C686   C549    1.518   1_565 S
C688   C143    1.189   1_556 S
C689   C694    1.396   .     A
C689   C700    1.400   .     A
C689   H734    1.084   .     S
C690   H735    1.084   .     S
C690   C695    1.396   .     A
C690   C701    1.400   .     A
C691   C696    1.396   .     A
C691   C701    1.400   .     A
C691   H736    1.084   .     S
C692   C699    1.455   .     S
C692   O742    1.290   .     A
C692   O743    1.290   .     A
C693   C697    1.396   .     A
C693   H737    1.084   .     S
C693   C700    1.400   .     A
C694   C702    1.509   .     S
C694   C698    1.412   .     A
C695   C704    1.509   .     S
C695   C699    1.412   .     A
C696   C705    1.509   .     S
C696   C699    1.412   .     A
C697   C698    1.412   .     A
C697   C706    1.509   .     S
C700   C769    1.468   1_455 S
C701   C768    1.468   .     S
C702   H720    1.111   .     S
C702   H721    1.110   .     S
C702   H719    1.111   .     S
C703   N739    1.364   .     A
C703   H715    1.081   .     S
C703   C710    1.408   .     A
C704   H722    1.110   .     S
C704   H723    1.111   .     S
C704   H724    1.111   .     S
C705   H728    1.110   .     S
C705   H725    1.111   .     S
C705   H727    1.111   .     S
C706   H730    1.111   .     S
C706   H731    1.111   .     S
C706   H729    1.110   .     S
C707   N740    1.364   .     A
C707   C711    1.408   .     A
C707   H726    1.081   .     S
C708   H732    1.081   .     S
C708   N739    1.364   .     A
C708   C712    1.408   .     A
C709   N740    1.364   .     A
C709   H733    1.081   .     S
C710   H738    1.081   .     S
C711   H716    1.081   .     S
C712   H717    1.081   .     S
Cu713  O743    1.951   .     S
Cu713  O745    1.931   .     S
Cu713  O747    1.931   .     S
Cu713  Cu714   2.676   .     S
Cu713  N740    2.010   .     S
Cu713  O741    1.951   .     S
Cu714  O744    1.951   .     S
Cu714  O746    1.931   .     S
Cu714  N739    2.010   .     S
Cu714  O742    1.951   .     S
Cu714  O748    1.931   .     S
C749   O812    1.290   .     A
C749   C766    1.455   .     S
C749   O809    1.290   .     A
C750   H786    1.081   .     S
C750   C754    1.411   .     A
C750   C777    1.408   .     A
C751   C755    1.407   .     S
C751   O816    1.287   .     A
C751   O813    1.287   .     A
C752   O815    1.287   .     A
C752   O814    1.287   .     A
C752   C756    1.407   .     S
C753   C780    1.411   .     A
C753   C778    1.411   .     A
C754   C779    1.411   .     A
C754   C617    1.518   1_565 S
C756   C211    1.189   1_556 S
C757   C762    1.396   .     A
C757   C768    1.400   .     A
C757   H802    1.084   .     S
C758   H803    1.084   .     S
C758   C763    1.396   .     A
C758   C769    1.400   .     A
C759   C764    1.396   .     A
C759   C769    1.400   .     A
C759   H804    1.084   .     S
C760   C767    1.455   .     S
C760   O810    1.290   .     A
C760   O811    1.290   .     A
C761   C765    1.396   .     A
C761   H805    1.084   .     S
C761   C768    1.400   .     A
C762   C770    1.509   .     S
C762   C766    1.412   .     A
C763   C772    1.509   .     S
C763   C767    1.412   .     A
C764   C773    1.509   .     S
C764   C767    1.412   .     A
C765   C766    1.412   .     A
C765   C774    1.509   .     S
C769   C700    1.468   1_655 S
C770   H788    1.111   .     S
C770   H789    1.110   .     S
C770   H787    1.111   .     S
C771   N807    1.364   .     A
C771   H783    1.081   .     S
C771   C778    1.408   .     A
C772   H790    1.110   .     S
C772   H791    1.111   .     S
C772   H792    1.111   .     S
C773   H796    1.110   .     S
C773   H793    1.111   .     S
C773   H795    1.111   .     S
C774   H798    1.111   .     S
C774   H799    1.111   .     S
C774   H797    1.110   .     S
C775   N808    1.364   .     A
C775   C779    1.408   .     A
C775   H794    1.081   .     S
C776   H800    1.081   .     S
C776   N807    1.364   .     A
C776   C780    1.408   .     A
C777   N808    1.364   .     A
C777   H801    1.081   .     S
C778   H806    1.081   .     S
C779   H784    1.081   .     S
C780   H785    1.081   .     S
Cu781  O811    1.951   .     S
Cu781  O813    1.931   .     S
Cu781  O815    1.931   .     S
Cu781  Cu782   2.676   .     S
Cu781  N808    2.010   .     S
Cu781  O809    1.951   .     S
Cu782  O812    1.951   .     S
Cu782  O814    1.931   .     S
Cu782  N807    2.010   .     S
Cu782  O810    1.951   .     S
Cu782  O816    1.931   .     S
