data_str_m2_o2_o10_pcu_sym.165
_audit_creation_date              2020-01-03
_audit_creation_method            'Materials Studio'
_symmetry_space_group_name_H-M    'P1'
_symmetry_Int_Tables_number       1
_symmetry_cell_setting            triclinic
loop_
_symmetry_equiv_pos_as_xyz
  x,y,z
_cell_length_a                    26.1383
_cell_length_b                    30.1362
_cell_length_c                    27.9479
_cell_angle_alpha                 88.4953
_cell_angle_beta                  97.1956
_cell_angle_gamma                 93.0657
loop_
_atom_site_label
_atom_site_type_symbol
_atom_site_fract_x
_atom_site_fract_y
_atom_site_fract_z
_atom_site_U_iso_or_equiv
_atom_site_adp_type
_atom_site_occupancy
C1     C     0.16669   0.16514   0.25049   0.00000  Uiso   1.00
C2     C     0.16635   0.33511   0.24946   0.00000  Uiso   1.00
C3     C     0.20041   0.27613   0.05566   0.00000  Uiso   1.00
C4     C     0.14183   0.21729   0.44567   0.00000  Uiso   1.00
C5     C     0.20206   0.27640   0.10608   0.00000  Uiso   1.00
C6     C     0.14187   0.21587   0.39544   0.00000  Uiso   1.00
C7     C     0.12869   0.22608   0.10154   0.00000  Uiso   1.00
C8     C     0.18825   0.28578   0.39636   0.00000  Uiso   1.00
C9     C     0.12513   0.22748   0.05054   0.00000  Uiso   1.00
C10    C     0.18587   0.28856   0.44653   0.00000  Uiso   1.00
C11    C     0.16187   0.25276   0.02660   0.00000  Uiso   1.00
C12    C     0.16251   0.25356   0.47227   0.00000  Uiso   1.00
C13    C     0.06803   0.24923   0.23781   0.00000  Uiso   1.00
C14    C     0.26527   0.24969   0.26229   0.00000  Uiso   1.00
C15    C     0.01280   0.24695   0.23134   0.00000  Uiso   1.00
C16    C     0.32050   0.25030   0.26917   0.00000  Uiso   1.00
C17    C     0.20889   0.04986   0.28076   0.00000  Uiso   1.00
C18    C     0.18424   0.45454   0.20852   0.00000  Uiso   1.00
C19    C     0.20599   0.09598   0.28160   0.00000  Uiso   1.00
C20    C     0.18098   0.40812   0.20842   0.00000  Uiso   1.00
C21    C     0.16749   0.11711   0.25149   0.00000  Uiso   1.00
C22    C     0.16680   0.38372   0.24856   0.00000  Uiso   1.00
C23    C     0.13090   0.09244   0.22097   0.00000  Uiso   1.00
C24    C     0.15402   0.40605   0.28843   0.00000  Uiso   1.00
C25    C     0.13224   0.04649   0.22102   0.00000  Uiso   1.00
C26    C     0.15543   0.45213   0.28825   0.00000  Uiso   1.00
C27    C     0.17126   0.02501   0.25028   0.00000  Uiso   1.00
C28    C     0.17097   0.47656   0.24886   0.00000  Uiso   1.00
Cu29   Cu    0.16667   0.24999   0.29821   0.00000  Uiso   1.00
Cu30   Cu    0.16667   0.25000   0.20178   0.00000  Uiso   1.00
H31    H     0.32641   0.24206   0.19523   0.00000  Uiso   1.00
H32    H     0.00685   0.25418   0.30558   0.00000  Uiso   1.00
H33    H     0.23440   0.11570   0.30469   0.00000  Uiso   1.00
H34    H     0.19036   0.39104   0.17735   0.00000  Uiso   1.00
H35    H     0.10100   0.10874   0.19763   0.00000  Uiso   1.00
H36    H     0.14244   0.38791   0.31961   0.00000  Uiso   1.00
H37    H     0.10299   0.02753   0.19800   0.00000  Uiso   1.00
H38    H     0.14448   0.46889   0.31897   0.00000  Uiso   1.00
H39    H     0.23039   0.29454   0.03898   0.00000  Uiso   1.00
H40    H     0.12626   0.18898   0.46458   0.00000  Uiso   1.00
H41    H     0.10019   0.20625   0.11874   0.00000  Uiso   1.00
H42    H     0.20701   0.31292   0.37809   0.00000  Uiso   1.00
H43    H     0.09338   0.20896   0.03032   0.00000  Uiso   1.00
H44    H     0.20222   0.31826   0.46465   0.00000  Uiso   1.00
N45    N     0.16667   0.25001   0.12934   0.00000  Uiso   1.00
N46    N     0.16667   0.24999   0.37065   0.00000  Uiso   1.00
O47    O     0.16667   0.18572   0.29071   0.00000  Uiso   1.00
O48    O     0.16666   0.31427   0.20928   0.00000  Uiso   1.00
O49    O     0.16667   0.18573   0.20928   0.00000  Uiso   1.00
O50    O     0.16666   0.31427   0.29072   0.00000  Uiso   1.00
O51    O     0.09161   0.24999   0.28132   0.00000  Uiso   1.00
O52    O     0.24172   0.25000   0.21868   0.00000  Uiso   1.00
O53    O     0.09161   0.25000   0.19988   0.00000  Uiso   1.00
O54    O     0.24172   0.25000   0.30011   0.00000  Uiso   1.00
S55    S     0.26041   0.02462   0.31686   0.00000  Uiso   1.00
O56    O     0.28190   0.48975   0.28863   0.00000  Uiso   1.00
O57    O     0.30261   0.05886   0.33290   0.00000  Uiso   1.00
O58    O     0.23810   0.00072   0.36571   0.00000  Uiso   1.00
H59    H     0.26738   0.48440   0.38227   0.00000  Uiso   1.00
S60    S     0.20591   0.48384   0.15843   0.00000  Uiso   1.00
O61    O     0.24222   0.02217   0.17548   0.00000  Uiso   1.00
O62    O     0.23330   0.45354   0.12939   0.00000  Uiso   1.00
O63    O     0.15462   0.00330   0.12337   0.00000  Uiso   1.00
H64    H     0.16942   0.02211   0.09841   0.00000  Uiso   1.00
S65    S     0.25335   0.31346   0.13240   0.00000  Uiso   1.00
O66    O     0.30315   0.29338   0.12520   0.00000  Uiso   1.00
O67    O     0.25011   0.35602   0.10311   0.00000  Uiso   1.00
O68    O     0.25686   0.32773   0.19025   0.00000  Uiso   1.00
H69    H     0.28874   0.34710   0.19633   0.00000  Uiso   1.00
S70    S     0.11037   0.16610   0.37006   0.00000  Uiso   1.00
O71    O     0.15078   0.13342   0.36517   0.00000  Uiso   1.00
O72    O     0.07479   0.14575   0.40388   0.00000  Uiso   1.00
O73    O     0.07416   0.17342   0.31681   0.00000  Uiso   1.00
H74    H     0.06303   0.14306   0.30573   0.00000  Uiso   1.00
C75    C     0.50002   0.16514   0.25049   0.00000  Uiso   1.00
C76    C     0.49969   0.33511   0.24946   0.00000  Uiso   1.00
C77    C     0.53374   0.27613   0.05566   0.00000  Uiso   1.00
C78    C     0.47516   0.21729   0.44567   0.00000  Uiso   1.00
C79    C     0.53539   0.27640   0.10608   0.00000  Uiso   1.00
C80    C     0.47521   0.21587   0.39544   0.00000  Uiso   1.00
C81    C     0.46202   0.22608   0.10154   0.00000  Uiso   1.00
C82    C     0.52158   0.28578   0.39636   0.00000  Uiso   1.00
C83    C     0.45847   0.22748   0.05054   0.00000  Uiso   1.00
C84    C     0.51920   0.28856   0.44653   0.00000  Uiso   1.00
C85    C     0.49520   0.25276   0.02660   0.00000  Uiso   1.00
C86    C     0.49585   0.25356   0.47227   0.00000  Uiso   1.00
C87    C     0.40137   0.24923   0.23781   0.00000  Uiso   1.00
C88    C     0.59861   0.24969   0.26229   0.00000  Uiso   1.00
C89    C     0.34613   0.24695   0.23134   0.00000  Uiso   1.00
C90    C     0.65384   0.25030   0.26917   0.00000  Uiso   1.00
C91    C     0.54222   0.04986   0.28076   0.00000  Uiso   1.00
C92    C     0.51757   0.45454   0.20852   0.00000  Uiso   1.00
C93    C     0.53932   0.09598   0.28160   0.00000  Uiso   1.00
C94    C     0.51431   0.40812   0.20842   0.00000  Uiso   1.00
C95    C     0.50082   0.11711   0.25149   0.00000  Uiso   1.00
C96    C     0.50013   0.38372   0.24856   0.00000  Uiso   1.00
C97    C     0.46423   0.09244   0.22097   0.00000  Uiso   1.00
C98    C     0.48735   0.40605   0.28843   0.00000  Uiso   1.00
C99    C     0.46557   0.04649   0.22102   0.00000  Uiso   1.00
C100   C     0.48876   0.45213   0.28825   0.00000  Uiso   1.00
C101   C     0.50459   0.02501   0.25028   0.00000  Uiso   1.00
C102   C     0.50430   0.47656   0.24886   0.00000  Uiso   1.00
Cu103  Cu    0.50000   0.24999   0.29821   0.00000  Uiso   1.00
Cu104  Cu    0.50000   0.25000   0.20178   0.00000  Uiso   1.00
H105   H     0.65974   0.24206   0.19523   0.00000  Uiso   1.00
H106   H     0.34018   0.25418   0.30558   0.00000  Uiso   1.00
H107   H     0.56774   0.11570   0.30469   0.00000  Uiso   1.00
H108   H     0.52370   0.39104   0.17735   0.00000  Uiso   1.00
H109   H     0.43433   0.10874   0.19763   0.00000  Uiso   1.00
H110   H     0.47577   0.38791   0.31961   0.00000  Uiso   1.00
H111   H     0.43633   0.02753   0.19800   0.00000  Uiso   1.00
H112   H     0.47781   0.46889   0.31897   0.00000  Uiso   1.00
H113   H     0.56372   0.29454   0.03898   0.00000  Uiso   1.00
H114   H     0.45960   0.18898   0.46458   0.00000  Uiso   1.00
H115   H     0.43352   0.20625   0.11874   0.00000  Uiso   1.00
H116   H     0.54035   0.31292   0.37809   0.00000  Uiso   1.00
H117   H     0.42672   0.20896   0.03032   0.00000  Uiso   1.00
H118   H     0.53556   0.31826   0.46465   0.00000  Uiso   1.00
N119   N     0.50000   0.25001   0.12934   0.00000  Uiso   1.00
N120   N     0.50000   0.24999   0.37065   0.00000  Uiso   1.00
O121   O     0.50000   0.18572   0.29071   0.00000  Uiso   1.00
O122   O     0.50000   0.31427   0.20928   0.00000  Uiso   1.00
O123   O     0.50000   0.18573   0.20928   0.00000  Uiso   1.00
O124   O     0.50000   0.31427   0.29072   0.00000  Uiso   1.00
O125   O     0.42495   0.24999   0.28132   0.00000  Uiso   1.00
O126   O     0.57505   0.25000   0.21868   0.00000  Uiso   1.00
O127   O     0.42495   0.25000   0.19988   0.00000  Uiso   1.00
O128   O     0.57505   0.25000   0.30011   0.00000  Uiso   1.00
S129   S     0.59374   0.02462   0.31686   0.00000  Uiso   1.00
O130   O     0.61523   0.48975   0.28863   0.00000  Uiso   1.00
O131   O     0.63594   0.05886   0.33290   0.00000  Uiso   1.00
O132   O     0.57143   0.00072   0.36571   0.00000  Uiso   1.00
H133   H     0.60071   0.48440   0.38227   0.00000  Uiso   1.00
S134   S     0.53924   0.48384   0.15843   0.00000  Uiso   1.00
O135   O     0.57555   0.02217   0.17548   0.00000  Uiso   1.00
O136   O     0.56664   0.45354   0.12939   0.00000  Uiso   1.00
O137   O     0.48795   0.00330   0.12337   0.00000  Uiso   1.00
H138   H     0.50275   0.02211   0.09841   0.00000  Uiso   1.00
S139   S     0.58668   0.31346   0.13240   0.00000  Uiso   1.00
O140   O     0.63648   0.29338   0.12520   0.00000  Uiso   1.00
O141   O     0.58344   0.35602   0.10311   0.00000  Uiso   1.00
O142   O     0.59020   0.32773   0.19025   0.00000  Uiso   1.00
H143   H     0.62207   0.34710   0.19633   0.00000  Uiso   1.00
S144   S     0.44371   0.16610   0.37006   0.00000  Uiso   1.00
O145   O     0.48411   0.13342   0.36517   0.00000  Uiso   1.00
O146   O     0.40812   0.14575   0.40388   0.00000  Uiso   1.00
O147   O     0.40749   0.17342   0.31681   0.00000  Uiso   1.00
H148   H     0.39636   0.14306   0.30573   0.00000  Uiso   1.00
C149   C     0.83335   0.16514   0.25049   0.00000  Uiso   1.00
C150   C     0.83302   0.33511   0.24946   0.00000  Uiso   1.00
C151   C     0.86708   0.27613   0.05566   0.00000  Uiso   1.00
C152   C     0.80850   0.21729   0.44567   0.00000  Uiso   1.00
C153   C     0.86873   0.27640   0.10608   0.00000  Uiso   1.00
C154   C     0.80854   0.21587   0.39544   0.00000  Uiso   1.00
C155   C     0.79535   0.22608   0.10154   0.00000  Uiso   1.00
C156   C     0.85492   0.28578   0.39636   0.00000  Uiso   1.00
C157   C     0.79180   0.22748   0.05054   0.00000  Uiso   1.00
C158   C     0.85254   0.28856   0.44653   0.00000  Uiso   1.00
C159   C     0.82853   0.25276   0.02660   0.00000  Uiso   1.00
C160   C     0.82918   0.25356   0.47227   0.00000  Uiso   1.00
C161   C     0.73470   0.24923   0.23781   0.00000  Uiso   1.00
C162   C     0.93194   0.24969   0.26229   0.00000  Uiso   1.00
C163   C     0.67947   0.24695   0.23134   0.00000  Uiso   1.00
C164   C     0.98717   0.25030   0.26917   0.00000  Uiso   1.00
C165   C     0.87556   0.04986   0.28076   0.00000  Uiso   1.00
C166   C     0.85091   0.45454   0.20852   0.00000  Uiso   1.00
C167   C     0.87266   0.09598   0.28160   0.00000  Uiso   1.00
C168   C     0.84764   0.40812   0.20842   0.00000  Uiso   1.00
C169   C     0.83416   0.11711   0.25149   0.00000  Uiso   1.00
C170   C     0.83346   0.38372   0.24856   0.00000  Uiso   1.00
C171   C     0.79757   0.09244   0.22097   0.00000  Uiso   1.00
C172   C     0.82069   0.40605   0.28843   0.00000  Uiso   1.00
C173   C     0.79891   0.04649   0.22102   0.00000  Uiso   1.00
C174   C     0.82209   0.45213   0.28825   0.00000  Uiso   1.00
C175   C     0.83792   0.02501   0.25028   0.00000  Uiso   1.00
C176   C     0.83763   0.47656   0.24886   0.00000  Uiso   1.00
Cu177  Cu    0.83333   0.24999   0.29821   0.00000  Uiso   1.00
Cu178  Cu    0.83333   0.25000   0.20178   0.00000  Uiso   1.00
H179   H     0.99307   0.24206   0.19523   0.00000  Uiso   1.00
H180   H     0.67352   0.25418   0.30558   0.00000  Uiso   1.00
H181   H     0.90107   0.11570   0.30469   0.00000  Uiso   1.00
H182   H     0.85703   0.39104   0.17735   0.00000  Uiso   1.00
H183   H     0.76767   0.10874   0.19763   0.00000  Uiso   1.00
H184   H     0.80910   0.38791   0.31961   0.00000  Uiso   1.00
H185   H     0.76966   0.02753   0.19800   0.00000  Uiso   1.00
H186   H     0.81114   0.46889   0.31897   0.00000  Uiso   1.00
H187   H     0.89705   0.29454   0.03898   0.00000  Uiso   1.00
H188   H     0.79293   0.18898   0.46458   0.00000  Uiso   1.00
H189   H     0.76686   0.20625   0.11874   0.00000  Uiso   1.00
H190   H     0.87368   0.31292   0.37809   0.00000  Uiso   1.00
H191   H     0.76005   0.20896   0.03032   0.00000  Uiso   1.00
H192   H     0.86889   0.31826   0.46465   0.00000  Uiso   1.00
N193   N     0.83333   0.25001   0.12934   0.00000  Uiso   1.00
N194   N     0.83333   0.24999   0.37065   0.00000  Uiso   1.00
O195   O     0.83334   0.18572   0.29071   0.00000  Uiso   1.00
O196   O     0.83333   0.31427   0.20928   0.00000  Uiso   1.00
O197   O     0.83334   0.18573   0.20928   0.00000  Uiso   1.00
O198   O     0.83333   0.31427   0.29072   0.00000  Uiso   1.00
O199   O     0.75828   0.24999   0.28132   0.00000  Uiso   1.00
O200   O     0.90839   0.25000   0.21868   0.00000  Uiso   1.00
O201   O     0.75828   0.25000   0.19988   0.00000  Uiso   1.00
O202   O     0.90839   0.25000   0.30011   0.00000  Uiso   1.00
S203   S     0.92708   0.02462   0.31686   0.00000  Uiso   1.00
O204   O     0.94857   0.48975   0.28863   0.00000  Uiso   1.00
O205   O     0.96927   0.05886   0.33290   0.00000  Uiso   1.00
O206   O     0.90477   0.00072   0.36571   0.00000  Uiso   1.00
H207   H     0.93404   0.48440   0.38227   0.00000  Uiso   1.00
S208   S     0.87258   0.48384   0.15843   0.00000  Uiso   1.00
O209   O     0.90889   0.02217   0.17548   0.00000  Uiso   1.00
O210   O     0.89997   0.45354   0.12939   0.00000  Uiso   1.00
O211   O     0.82128   0.00330   0.12337   0.00000  Uiso   1.00
H212   H     0.83608   0.02211   0.09841   0.00000  Uiso   1.00
S213   S     0.92001   0.31346   0.13240   0.00000  Uiso   1.00
O214   O     0.96982   0.29338   0.12520   0.00000  Uiso   1.00
O215   O     0.91678   0.35602   0.10311   0.00000  Uiso   1.00
O216   O     0.92353   0.32773   0.19025   0.00000  Uiso   1.00
H217   H     0.95540   0.34710   0.19633   0.00000  Uiso   1.00
S218   S     0.77704   0.16610   0.37006   0.00000  Uiso   1.00
O219   O     0.81744   0.13342   0.36517   0.00000  Uiso   1.00
O220   O     0.74146   0.14575   0.40388   0.00000  Uiso   1.00
O221   O     0.74083   0.17342   0.31681   0.00000  Uiso   1.00
H222   H     0.72970   0.14306   0.30573   0.00000  Uiso   1.00
C223   C     0.16669   0.66514   0.25049   0.00000  Uiso   1.00
C224   C     0.16635   0.83511   0.24946   0.00000  Uiso   1.00
C225   C     0.20041   0.77613   0.05566   0.00000  Uiso   1.00
C226   C     0.14183   0.71729   0.44567   0.00000  Uiso   1.00
C227   C     0.20206   0.77640   0.10608   0.00000  Uiso   1.00
C228   C     0.14187   0.71587   0.39544   0.00000  Uiso   1.00
C229   C     0.12869   0.72608   0.10154   0.00000  Uiso   1.00
C230   C     0.18825   0.78578   0.39636   0.00000  Uiso   1.00
C231   C     0.12513   0.72748   0.05054   0.00000  Uiso   1.00
C232   C     0.18587   0.78856   0.44653   0.00000  Uiso   1.00
C233   C     0.16187   0.75276   0.02660   0.00000  Uiso   1.00
C234   C     0.16251   0.75356   0.47227   0.00000  Uiso   1.00
C235   C     0.06803   0.74923   0.23781   0.00000  Uiso   1.00
C236   C     0.26527   0.74969   0.26229   0.00000  Uiso   1.00
C237   C     0.01280   0.74695   0.23134   0.00000  Uiso   1.00
C238   C     0.32050   0.75030   0.26917   0.00000  Uiso   1.00
C239   C     0.20889   0.54986   0.28076   0.00000  Uiso   1.00
C240   C     0.18424   0.95454   0.20852   0.00000  Uiso   1.00
C241   C     0.20599   0.59598   0.28160   0.00000  Uiso   1.00
C242   C     0.18098   0.90812   0.20842   0.00000  Uiso   1.00
C243   C     0.16749   0.61711   0.25149   0.00000  Uiso   1.00
C244   C     0.16680   0.88372   0.24856   0.00000  Uiso   1.00
C245   C     0.13090   0.59244   0.22097   0.00000  Uiso   1.00
C246   C     0.15402   0.90605   0.28843   0.00000  Uiso   1.00
C247   C     0.13224   0.54649   0.22102   0.00000  Uiso   1.00
C248   C     0.15543   0.95213   0.28825   0.00000  Uiso   1.00
C249   C     0.17126   0.52501   0.25028   0.00000  Uiso   1.00
C250   C     0.17097   0.97656   0.24886   0.00000  Uiso   1.00
Cu251  Cu    0.16667   0.74999   0.29821   0.00000  Uiso   1.00
Cu252  Cu    0.16667   0.75000   0.20178   0.00000  Uiso   1.00
H253   H     0.32641   0.74206   0.19523   0.00000  Uiso   1.00
H254   H     0.00685   0.75418   0.30558   0.00000  Uiso   1.00
H255   H     0.23440   0.61570   0.30469   0.00000  Uiso   1.00
H256   H     0.19036   0.89104   0.17735   0.00000  Uiso   1.00
H257   H     0.10100   0.60874   0.19763   0.00000  Uiso   1.00
H258   H     0.14244   0.88791   0.31961   0.00000  Uiso   1.00
H259   H     0.10299   0.52753   0.19800   0.00000  Uiso   1.00
H260   H     0.14448   0.96889   0.31897   0.00000  Uiso   1.00
H261   H     0.23039   0.79454   0.03898   0.00000  Uiso   1.00
H262   H     0.12626   0.68898   0.46458   0.00000  Uiso   1.00
H263   H     0.10019   0.70625   0.11874   0.00000  Uiso   1.00
H264   H     0.20701   0.81292   0.37809   0.00000  Uiso   1.00
H265   H     0.09338   0.70896   0.03032   0.00000  Uiso   1.00
H266   H     0.20222   0.81826   0.46465   0.00000  Uiso   1.00
N267   N     0.16667   0.75001   0.12934   0.00000  Uiso   1.00
N268   N     0.16667   0.74999   0.37065   0.00000  Uiso   1.00
O269   O     0.16667   0.68572   0.29071   0.00000  Uiso   1.00
O270   O     0.16666   0.81427   0.20928   0.00000  Uiso   1.00
O271   O     0.16667   0.68573   0.20928   0.00000  Uiso   1.00
O272   O     0.16666   0.81427   0.29072   0.00000  Uiso   1.00
O273   O     0.09161   0.74999   0.28132   0.00000  Uiso   1.00
O274   O     0.24172   0.75000   0.21868   0.00000  Uiso   1.00
O275   O     0.09161   0.75000   0.19988   0.00000  Uiso   1.00
O276   O     0.24172   0.75000   0.30011   0.00000  Uiso   1.00
S277   S     0.26041   0.52462   0.31686   0.00000  Uiso   1.00
O278   O     0.28190   0.98975   0.28863   0.00000  Uiso   1.00
O279   O     0.30261   0.55886   0.33290   0.00000  Uiso   1.00
O280   O     0.23810   0.50072   0.36571   0.00000  Uiso   1.00
H281   H     0.26738   0.98440   0.38227   0.00000  Uiso   1.00
S282   S     0.20591   0.98384   0.15843   0.00000  Uiso   1.00
O283   O     0.24222   0.52217   0.17548   0.00000  Uiso   1.00
O284   O     0.23330   0.95354   0.12939   0.00000  Uiso   1.00
O285   O     0.15462   0.50330   0.12337   0.00000  Uiso   1.00
H286   H     0.16942   0.52211   0.09841   0.00000  Uiso   1.00
S287   S     0.25335   0.81346   0.13240   0.00000  Uiso   1.00
O288   O     0.30315   0.79338   0.12520   0.00000  Uiso   1.00
O289   O     0.25011   0.85602   0.10311   0.00000  Uiso   1.00
O290   O     0.25686   0.82773   0.19025   0.00000  Uiso   1.00
H291   H     0.28874   0.84710   0.19633   0.00000  Uiso   1.00
S292   S     0.11037   0.66610   0.37006   0.00000  Uiso   1.00
O293   O     0.15078   0.63342   0.36517   0.00000  Uiso   1.00
O294   O     0.07479   0.64575   0.40388   0.00000  Uiso   1.00
O295   O     0.07416   0.67342   0.31681   0.00000  Uiso   1.00
H296   H     0.06303   0.64306   0.30573   0.00000  Uiso   1.00
C297   C     0.50002   0.66514   0.25049   0.00000  Uiso   1.00
C298   C     0.49969   0.83511   0.24946   0.00000  Uiso   1.00
C299   C     0.53374   0.77613   0.05566   0.00000  Uiso   1.00
C300   C     0.47516   0.71729   0.44567   0.00000  Uiso   1.00
C301   C     0.53539   0.77640   0.10608   0.00000  Uiso   1.00
C302   C     0.47521   0.71587   0.39544   0.00000  Uiso   1.00
C303   C     0.46202   0.72608   0.10154   0.00000  Uiso   1.00
C304   C     0.52158   0.78578   0.39636   0.00000  Uiso   1.00
C305   C     0.45847   0.72748   0.05054   0.00000  Uiso   1.00
C306   C     0.51920   0.78856   0.44653   0.00000  Uiso   1.00
C307   C     0.49520   0.75276   0.02660   0.00000  Uiso   1.00
C308   C     0.49585   0.75356   0.47227   0.00000  Uiso   1.00
C309   C     0.40137   0.74923   0.23781   0.00000  Uiso   1.00
C310   C     0.59861   0.74969   0.26229   0.00000  Uiso   1.00
C311   C     0.34613   0.74695   0.23134   0.00000  Uiso   1.00
C312   C     0.65384   0.75030   0.26917   0.00000  Uiso   1.00
C313   C     0.54222   0.54986   0.28076   0.00000  Uiso   1.00
C314   C     0.51757   0.95454   0.20852   0.00000  Uiso   1.00
C315   C     0.53932   0.59598   0.28160   0.00000  Uiso   1.00
C316   C     0.51431   0.90812   0.20842   0.00000  Uiso   1.00
C317   C     0.50082   0.61711   0.25149   0.00000  Uiso   1.00
C318   C     0.50013   0.88372   0.24856   0.00000  Uiso   1.00
C319   C     0.46423   0.59244   0.22097   0.00000  Uiso   1.00
C320   C     0.48735   0.90605   0.28843   0.00000  Uiso   1.00
C321   C     0.46557   0.54649   0.22102   0.00000  Uiso   1.00
C322   C     0.48876   0.95213   0.28825   0.00000  Uiso   1.00
C323   C     0.50459   0.52501   0.25028   0.00000  Uiso   1.00
C324   C     0.50430   0.97656   0.24886   0.00000  Uiso   1.00
Cu325  Cu    0.50000   0.74999   0.29821   0.00000  Uiso   1.00
Cu326  Cu    0.50000   0.75000   0.20178   0.00000  Uiso   1.00
H327   H     0.65974   0.74206   0.19523   0.00000  Uiso   1.00
H328   H     0.34018   0.75418   0.30558   0.00000  Uiso   1.00
H329   H     0.56774   0.61570   0.30469   0.00000  Uiso   1.00
H330   H     0.52370   0.89104   0.17735   0.00000  Uiso   1.00
H331   H     0.43433   0.60874   0.19763   0.00000  Uiso   1.00
H332   H     0.47577   0.88791   0.31961   0.00000  Uiso   1.00
H333   H     0.43633   0.52753   0.19800   0.00000  Uiso   1.00
H334   H     0.47781   0.96889   0.31897   0.00000  Uiso   1.00
H335   H     0.56372   0.79454   0.03898   0.00000  Uiso   1.00
H336   H     0.45960   0.68898   0.46458   0.00000  Uiso   1.00
H337   H     0.43352   0.70625   0.11874   0.00000  Uiso   1.00
H338   H     0.54035   0.81292   0.37809   0.00000  Uiso   1.00
H339   H     0.42672   0.70896   0.03032   0.00000  Uiso   1.00
H340   H     0.53556   0.81826   0.46465   0.00000  Uiso   1.00
N341   N     0.50000   0.75001   0.12934   0.00000  Uiso   1.00
N342   N     0.50000   0.74999   0.37065   0.00000  Uiso   1.00
O343   O     0.50000   0.68572   0.29071   0.00000  Uiso   1.00
O344   O     0.50000   0.81427   0.20928   0.00000  Uiso   1.00
O345   O     0.50000   0.68573   0.20928   0.00000  Uiso   1.00
O346   O     0.50000   0.81427   0.29072   0.00000  Uiso   1.00
O347   O     0.42495   0.74999   0.28132   0.00000  Uiso   1.00
O348   O     0.57505   0.75000   0.21868   0.00000  Uiso   1.00
O349   O     0.42495   0.75000   0.19988   0.00000  Uiso   1.00
O350   O     0.57505   0.75000   0.30011   0.00000  Uiso   1.00
S351   S     0.59374   0.52462   0.31686   0.00000  Uiso   1.00
O352   O     0.61523   0.98975   0.28863   0.00000  Uiso   1.00
O353   O     0.63594   0.55886   0.33290   0.00000  Uiso   1.00
O354   O     0.57143   0.50072   0.36571   0.00000  Uiso   1.00
H355   H     0.60071   0.98440   0.38227   0.00000  Uiso   1.00
S356   S     0.53924   0.98384   0.15843   0.00000  Uiso   1.00
O357   O     0.57555   0.52217   0.17548   0.00000  Uiso   1.00
O358   O     0.56664   0.95354   0.12939   0.00000  Uiso   1.00
O359   O     0.48795   0.50330   0.12337   0.00000  Uiso   1.00
H360   H     0.50275   0.52211   0.09841   0.00000  Uiso   1.00
S361   S     0.58668   0.81346   0.13240   0.00000  Uiso   1.00
O362   O     0.63648   0.79338   0.12520   0.00000  Uiso   1.00
O363   O     0.58344   0.85602   0.10311   0.00000  Uiso   1.00
O364   O     0.59020   0.82773   0.19025   0.00000  Uiso   1.00
H365   H     0.62207   0.84710   0.19633   0.00000  Uiso   1.00
S366   S     0.44371   0.66610   0.37006   0.00000  Uiso   1.00
O367   O     0.48411   0.63342   0.36517   0.00000  Uiso   1.00
O368   O     0.40812   0.64575   0.40388   0.00000  Uiso   1.00
O369   O     0.40749   0.67342   0.31681   0.00000  Uiso   1.00
H370   H     0.39636   0.64306   0.30573   0.00000  Uiso   1.00
C371   C     0.83335   0.66514   0.25049   0.00000  Uiso   1.00
C372   C     0.83302   0.83511   0.24946   0.00000  Uiso   1.00
C373   C     0.86708   0.77613   0.05566   0.00000  Uiso   1.00
C374   C     0.80850   0.71729   0.44567   0.00000  Uiso   1.00
C375   C     0.86873   0.77640   0.10608   0.00000  Uiso   1.00
C376   C     0.80854   0.71587   0.39544   0.00000  Uiso   1.00
C377   C     0.79535   0.72608   0.10154   0.00000  Uiso   1.00
C378   C     0.85492   0.78578   0.39636   0.00000  Uiso   1.00
C379   C     0.79180   0.72748   0.05054   0.00000  Uiso   1.00
C380   C     0.85254   0.78856   0.44653   0.00000  Uiso   1.00
C381   C     0.82853   0.75276   0.02660   0.00000  Uiso   1.00
C382   C     0.82918   0.75356   0.47227   0.00000  Uiso   1.00
C383   C     0.73470   0.74923   0.23781   0.00000  Uiso   1.00
C384   C     0.93194   0.74969   0.26229   0.00000  Uiso   1.00
C385   C     0.67947   0.74695   0.23134   0.00000  Uiso   1.00
C386   C     0.98717   0.75030   0.26917   0.00000  Uiso   1.00
C387   C     0.87556   0.54986   0.28076   0.00000  Uiso   1.00
C388   C     0.85091   0.95454   0.20852   0.00000  Uiso   1.00
C389   C     0.87266   0.59598   0.28160   0.00000  Uiso   1.00
C390   C     0.84764   0.90812   0.20842   0.00000  Uiso   1.00
C391   C     0.83416   0.61711   0.25149   0.00000  Uiso   1.00
C392   C     0.83346   0.88372   0.24856   0.00000  Uiso   1.00
C393   C     0.79757   0.59244   0.22097   0.00000  Uiso   1.00
C394   C     0.82069   0.90605   0.28843   0.00000  Uiso   1.00
C395   C     0.79891   0.54649   0.22102   0.00000  Uiso   1.00
C396   C     0.82209   0.95213   0.28825   0.00000  Uiso   1.00
C397   C     0.83792   0.52501   0.25028   0.00000  Uiso   1.00
C398   C     0.83763   0.97656   0.24886   0.00000  Uiso   1.00
Cu399  Cu    0.83333   0.74999   0.29821   0.00000  Uiso   1.00
Cu400  Cu    0.83333   0.75000   0.20178   0.00000  Uiso   1.00
H401   H     0.99307   0.74206   0.19523   0.00000  Uiso   1.00
H402   H     0.67352   0.75418   0.30558   0.00000  Uiso   1.00
H403   H     0.90107   0.61570   0.30469   0.00000  Uiso   1.00
H404   H     0.85703   0.89104   0.17735   0.00000  Uiso   1.00
H405   H     0.76767   0.60874   0.19763   0.00000  Uiso   1.00
H406   H     0.80910   0.88791   0.31961   0.00000  Uiso   1.00
H407   H     0.76966   0.52753   0.19800   0.00000  Uiso   1.00
H408   H     0.81114   0.96889   0.31897   0.00000  Uiso   1.00
H409   H     0.89705   0.79454   0.03898   0.00000  Uiso   1.00
H410   H     0.79293   0.68898   0.46458   0.00000  Uiso   1.00
H411   H     0.76686   0.70625   0.11874   0.00000  Uiso   1.00
H412   H     0.87368   0.81292   0.37809   0.00000  Uiso   1.00
H413   H     0.76005   0.70896   0.03032   0.00000  Uiso   1.00
H414   H     0.86889   0.81826   0.46465   0.00000  Uiso   1.00
N415   N     0.83333   0.75001   0.12934   0.00000  Uiso   1.00
N416   N     0.83333   0.74999   0.37065   0.00000  Uiso   1.00
O417   O     0.83334   0.68572   0.29071   0.00000  Uiso   1.00
O418   O     0.83333   0.81427   0.20928   0.00000  Uiso   1.00
O419   O     0.83334   0.68573   0.20928   0.00000  Uiso   1.00
O420   O     0.83333   0.81427   0.29072   0.00000  Uiso   1.00
O421   O     0.75828   0.74999   0.28132   0.00000  Uiso   1.00
O422   O     0.90839   0.75000   0.21868   0.00000  Uiso   1.00
O423   O     0.75828   0.75000   0.19988   0.00000  Uiso   1.00
O424   O     0.90839   0.75000   0.30011   0.00000  Uiso   1.00
S425   S     0.92708   0.52462   0.31686   0.00000  Uiso   1.00
O426   O     0.94857   0.98975   0.28863   0.00000  Uiso   1.00
O427   O     0.96927   0.55886   0.33290   0.00000  Uiso   1.00
O428   O     0.90477   0.50072   0.36571   0.00000  Uiso   1.00
H429   H     0.93404   0.98440   0.38227   0.00000  Uiso   1.00
S430   S     0.87258   0.98384   0.15843   0.00000  Uiso   1.00
O431   O     0.90889   0.52217   0.17548   0.00000  Uiso   1.00
O432   O     0.89997   0.95354   0.12939   0.00000  Uiso   1.00
O433   O     0.82128   0.50330   0.12337   0.00000  Uiso   1.00
H434   H     0.83608   0.52211   0.09841   0.00000  Uiso   1.00
S435   S     0.92001   0.81346   0.13240   0.00000  Uiso   1.00
O436   O     0.96982   0.79338   0.12520   0.00000  Uiso   1.00
O437   O     0.91678   0.85602   0.10311   0.00000  Uiso   1.00
O438   O     0.92353   0.82773   0.19025   0.00000  Uiso   1.00
H439   H     0.95540   0.84710   0.19633   0.00000  Uiso   1.00
S440   S     0.77704   0.66610   0.37006   0.00000  Uiso   1.00
O441   O     0.81744   0.63342   0.36517   0.00000  Uiso   1.00
O442   O     0.74146   0.64575   0.40388   0.00000  Uiso   1.00
O443   O     0.74083   0.67342   0.31681   0.00000  Uiso   1.00
H444   H     0.72970   0.64306   0.30573   0.00000  Uiso   1.00
C445   C     0.16669   0.16514   0.75049   0.00000  Uiso   1.00
C446   C     0.16635   0.33511   0.74946   0.00000  Uiso   1.00
C447   C     0.20041   0.27613   0.55566   0.00000  Uiso   1.00
C448   C     0.14183   0.21729   0.94567   0.00000  Uiso   1.00
C449   C     0.20206   0.27640   0.60608   0.00000  Uiso   1.00
C450   C     0.14187   0.21587   0.89544   0.00000  Uiso   1.00
C451   C     0.12869   0.22608   0.60154   0.00000  Uiso   1.00
C452   C     0.18825   0.28578   0.89636   0.00000  Uiso   1.00
C453   C     0.12513   0.22748   0.55054   0.00000  Uiso   1.00
C454   C     0.18587   0.28856   0.94653   0.00000  Uiso   1.00
C455   C     0.16187   0.25276   0.52660   0.00000  Uiso   1.00
C456   C     0.16251   0.25356   0.97227   0.00000  Uiso   1.00
C457   C     0.06803   0.24923   0.73781   0.00000  Uiso   1.00
C458   C     0.26527   0.24969   0.76229   0.00000  Uiso   1.00
C459   C     0.01280   0.24695   0.73134   0.00000  Uiso   1.00
C460   C     0.32050   0.25030   0.76917   0.00000  Uiso   1.00
C461   C     0.20889   0.04986   0.78076   0.00000  Uiso   1.00
C462   C     0.18424   0.45454   0.70852   0.00000  Uiso   1.00
C463   C     0.20599   0.09598   0.78160   0.00000  Uiso   1.00
C464   C     0.18098   0.40812   0.70842   0.00000  Uiso   1.00
C465   C     0.16749   0.11711   0.75149   0.00000  Uiso   1.00
C466   C     0.16680   0.38372   0.74856   0.00000  Uiso   1.00
C467   C     0.13090   0.09244   0.72097   0.00000  Uiso   1.00
C468   C     0.15402   0.40605   0.78843   0.00000  Uiso   1.00
C469   C     0.13224   0.04649   0.72102   0.00000  Uiso   1.00
C470   C     0.15543   0.45213   0.78825   0.00000  Uiso   1.00
C471   C     0.17126   0.02501   0.75028   0.00000  Uiso   1.00
C472   C     0.17097   0.47656   0.74886   0.00000  Uiso   1.00
Cu473  Cu    0.16667   0.24999   0.79821   0.00000  Uiso   1.00
Cu474  Cu    0.16667   0.25000   0.70178   0.00000  Uiso   1.00
H475   H     0.32641   0.24206   0.69523   0.00000  Uiso   1.00
H476   H     0.00685   0.25418   0.80558   0.00000  Uiso   1.00
H477   H     0.23440   0.11570   0.80469   0.00000  Uiso   1.00
H478   H     0.19036   0.39104   0.67735   0.00000  Uiso   1.00
H479   H     0.10100   0.10874   0.69763   0.00000  Uiso   1.00
H480   H     0.14244   0.38791   0.81961   0.00000  Uiso   1.00
H481   H     0.10299   0.02753   0.69800   0.00000  Uiso   1.00
H482   H     0.14448   0.46889   0.81897   0.00000  Uiso   1.00
H483   H     0.23039   0.29454   0.53898   0.00000  Uiso   1.00
H484   H     0.12626   0.18898   0.96458   0.00000  Uiso   1.00
H485   H     0.10019   0.20625   0.61874   0.00000  Uiso   1.00
H486   H     0.20701   0.31292   0.87809   0.00000  Uiso   1.00
H487   H     0.09338   0.20896   0.53032   0.00000  Uiso   1.00
H488   H     0.20222   0.31826   0.96465   0.00000  Uiso   1.00
N489   N     0.16667   0.25001   0.62934   0.00000  Uiso   1.00
N490   N     0.16667   0.24999   0.87065   0.00000  Uiso   1.00
O491   O     0.16667   0.18572   0.79071   0.00000  Uiso   1.00
O492   O     0.16666   0.31427   0.70928   0.00000  Uiso   1.00
O493   O     0.16667   0.18573   0.70928   0.00000  Uiso   1.00
O494   O     0.16666   0.31427   0.79072   0.00000  Uiso   1.00
O495   O     0.09161   0.24999   0.78132   0.00000  Uiso   1.00
O496   O     0.24172   0.25000   0.71868   0.00000  Uiso   1.00
O497   O     0.09161   0.25000   0.69988   0.00000  Uiso   1.00
O498   O     0.24172   0.25000   0.80011   0.00000  Uiso   1.00
S499   S     0.26041   0.02462   0.81686   0.00000  Uiso   1.00
O500   O     0.28190   0.48975   0.78863   0.00000  Uiso   1.00
O501   O     0.30261   0.05886   0.83290   0.00000  Uiso   1.00
O502   O     0.23810   0.00072   0.86571   0.00000  Uiso   1.00
H503   H     0.26738   0.48440   0.88227   0.00000  Uiso   1.00
S504   S     0.20591   0.48384   0.65843   0.00000  Uiso   1.00
O505   O     0.24222   0.02217   0.67548   0.00000  Uiso   1.00
O506   O     0.23330   0.45354   0.62939   0.00000  Uiso   1.00
O507   O     0.15462   0.00330   0.62337   0.00000  Uiso   1.00
H508   H     0.16942   0.02211   0.59841   0.00000  Uiso   1.00
S509   S     0.25335   0.31346   0.63240   0.00000  Uiso   1.00
O510   O     0.30315   0.29338   0.62520   0.00000  Uiso   1.00
O511   O     0.25011   0.35602   0.60311   0.00000  Uiso   1.00
O512   O     0.25686   0.32773   0.69025   0.00000  Uiso   1.00
H513   H     0.28874   0.34710   0.69633   0.00000  Uiso   1.00
S514   S     0.11037   0.16610   0.87006   0.00000  Uiso   1.00
O515   O     0.15078   0.13342   0.86517   0.00000  Uiso   1.00
O516   O     0.07479   0.14575   0.90388   0.00000  Uiso   1.00
O517   O     0.07416   0.17342   0.81681   0.00000  Uiso   1.00
H518   H     0.06303   0.14306   0.80573   0.00000  Uiso   1.00
C519   C     0.50002   0.16514   0.75049   0.00000  Uiso   1.00
C520   C     0.49969   0.33511   0.74946   0.00000  Uiso   1.00
C521   C     0.53374   0.27613   0.55566   0.00000  Uiso   1.00
C522   C     0.47516   0.21729   0.94567   0.00000  Uiso   1.00
C523   C     0.53539   0.27640   0.60608   0.00000  Uiso   1.00
C524   C     0.47521   0.21587   0.89544   0.00000  Uiso   1.00
C525   C     0.46202   0.22608   0.60154   0.00000  Uiso   1.00
C526   C     0.52158   0.28578   0.89636   0.00000  Uiso   1.00
C527   C     0.45847   0.22748   0.55054   0.00000  Uiso   1.00
C528   C     0.51920   0.28856   0.94653   0.00000  Uiso   1.00
C529   C     0.49520   0.25276   0.52660   0.00000  Uiso   1.00
C530   C     0.49585   0.25356   0.97227   0.00000  Uiso   1.00
C531   C     0.40137   0.24923   0.73781   0.00000  Uiso   1.00
C532   C     0.59861   0.24969   0.76229   0.00000  Uiso   1.00
C533   C     0.34613   0.24695   0.73134   0.00000  Uiso   1.00
C534   C     0.65384   0.25030   0.76917   0.00000  Uiso   1.00
C535   C     0.54222   0.04986   0.78076   0.00000  Uiso   1.00
C536   C     0.51757   0.45454   0.70852   0.00000  Uiso   1.00
C537   C     0.53932   0.09598   0.78160   0.00000  Uiso   1.00
C538   C     0.51431   0.40812   0.70842   0.00000  Uiso   1.00
C539   C     0.50082   0.11711   0.75149   0.00000  Uiso   1.00
C540   C     0.50013   0.38372   0.74856   0.00000  Uiso   1.00
C541   C     0.46423   0.09244   0.72097   0.00000  Uiso   1.00
C542   C     0.48735   0.40605   0.78843   0.00000  Uiso   1.00
C543   C     0.46557   0.04649   0.72102   0.00000  Uiso   1.00
C544   C     0.48876   0.45213   0.78825   0.00000  Uiso   1.00
C545   C     0.50459   0.02501   0.75028   0.00000  Uiso   1.00
C546   C     0.50430   0.47656   0.74886   0.00000  Uiso   1.00
Cu547  Cu    0.50000   0.24999   0.79821   0.00000  Uiso   1.00
Cu548  Cu    0.50000   0.25000   0.70178   0.00000  Uiso   1.00
H549   H     0.65974   0.24206   0.69523   0.00000  Uiso   1.00
H550   H     0.34018   0.25418   0.80558   0.00000  Uiso   1.00
H551   H     0.56774   0.11570   0.80469   0.00000  Uiso   1.00
H552   H     0.52370   0.39104   0.67735   0.00000  Uiso   1.00
H553   H     0.43433   0.10874   0.69763   0.00000  Uiso   1.00
H554   H     0.47577   0.38791   0.81961   0.00000  Uiso   1.00
H555   H     0.43633   0.02753   0.69800   0.00000  Uiso   1.00
H556   H     0.47781   0.46889   0.81897   0.00000  Uiso   1.00
H557   H     0.56372   0.29454   0.53898   0.00000  Uiso   1.00
H558   H     0.45960   0.18898   0.96458   0.00000  Uiso   1.00
H559   H     0.43352   0.20625   0.61874   0.00000  Uiso   1.00
H560   H     0.54035   0.31292   0.87809   0.00000  Uiso   1.00
H561   H     0.42672   0.20896   0.53032   0.00000  Uiso   1.00
H562   H     0.53556   0.31826   0.96465   0.00000  Uiso   1.00
N563   N     0.50000   0.25001   0.62934   0.00000  Uiso   1.00
N564   N     0.50000   0.24999   0.87065   0.00000  Uiso   1.00
O565   O     0.50000   0.18572   0.79071   0.00000  Uiso   1.00
O566   O     0.50000   0.31427   0.70928   0.00000  Uiso   1.00
O567   O     0.50000   0.18573   0.70928   0.00000  Uiso   1.00
O568   O     0.50000   0.31427   0.79072   0.00000  Uiso   1.00
O569   O     0.42495   0.24999   0.78132   0.00000  Uiso   1.00
O570   O     0.57505   0.25000   0.71868   0.00000  Uiso   1.00
O571   O     0.42495   0.25000   0.69988   0.00000  Uiso   1.00
O572   O     0.57505   0.25000   0.80011   0.00000  Uiso   1.00
S573   S     0.59374   0.02462   0.81686   0.00000  Uiso   1.00
O574   O     0.61523   0.48975   0.78863   0.00000  Uiso   1.00
O575   O     0.63594   0.05886   0.83290   0.00000  Uiso   1.00
O576   O     0.57143   0.00072   0.86571   0.00000  Uiso   1.00
H577   H     0.60071   0.48440   0.88227   0.00000  Uiso   1.00
S578   S     0.53924   0.48384   0.65843   0.00000  Uiso   1.00
O579   O     0.57555   0.02217   0.67548   0.00000  Uiso   1.00
O580   O     0.56664   0.45354   0.62939   0.00000  Uiso   1.00
O581   O     0.48795   0.00330   0.62337   0.00000  Uiso   1.00
H582   H     0.50275   0.02211   0.59841   0.00000  Uiso   1.00
S583   S     0.58668   0.31346   0.63240   0.00000  Uiso   1.00
O584   O     0.63648   0.29338   0.62520   0.00000  Uiso   1.00
O585   O     0.58344   0.35602   0.60311   0.00000  Uiso   1.00
O586   O     0.59020   0.32773   0.69025   0.00000  Uiso   1.00
H587   H     0.62207   0.34710   0.69633   0.00000  Uiso   1.00
S588   S     0.44371   0.16610   0.87006   0.00000  Uiso   1.00
O589   O     0.48411   0.13342   0.86517   0.00000  Uiso   1.00
O590   O     0.40812   0.14575   0.90388   0.00000  Uiso   1.00
O591   O     0.40749   0.17342   0.81681   0.00000  Uiso   1.00
H592   H     0.39636   0.14306   0.80573   0.00000  Uiso   1.00
C593   C     0.83335   0.16514   0.75049   0.00000  Uiso   1.00
C594   C     0.83302   0.33511   0.74946   0.00000  Uiso   1.00
C595   C     0.86708   0.27613   0.55566   0.00000  Uiso   1.00
C596   C     0.80850   0.21729   0.94567   0.00000  Uiso   1.00
C597   C     0.86873   0.27640   0.60608   0.00000  Uiso   1.00
C598   C     0.80854   0.21587   0.89544   0.00000  Uiso   1.00
C599   C     0.79535   0.22608   0.60154   0.00000  Uiso   1.00
C600   C     0.85492   0.28578   0.89636   0.00000  Uiso   1.00
C601   C     0.79180   0.22748   0.55054   0.00000  Uiso   1.00
C602   C     0.85254   0.28856   0.94653   0.00000  Uiso   1.00
C603   C     0.82853   0.25276   0.52660   0.00000  Uiso   1.00
C604   C     0.82918   0.25356   0.97227   0.00000  Uiso   1.00
C605   C     0.73470   0.24923   0.73781   0.00000  Uiso   1.00
C606   C     0.93194   0.24969   0.76229   0.00000  Uiso   1.00
C607   C     0.67947   0.24695   0.73134   0.00000  Uiso   1.00
C608   C     0.98717   0.25030   0.76917   0.00000  Uiso   1.00
C609   C     0.87556   0.04986   0.78076   0.00000  Uiso   1.00
C610   C     0.85091   0.45454   0.70852   0.00000  Uiso   1.00
C611   C     0.87266   0.09598   0.78160   0.00000  Uiso   1.00
C612   C     0.84764   0.40812   0.70842   0.00000  Uiso   1.00
C613   C     0.83416   0.11711   0.75149   0.00000  Uiso   1.00
C614   C     0.83346   0.38372   0.74856   0.00000  Uiso   1.00
C615   C     0.79757   0.09244   0.72097   0.00000  Uiso   1.00
C616   C     0.82069   0.40605   0.78843   0.00000  Uiso   1.00
C617   C     0.79891   0.04649   0.72102   0.00000  Uiso   1.00
C618   C     0.82209   0.45213   0.78825   0.00000  Uiso   1.00
C619   C     0.83792   0.02501   0.75028   0.00000  Uiso   1.00
C620   C     0.83763   0.47656   0.74886   0.00000  Uiso   1.00
Cu621  Cu    0.83333   0.24999   0.79821   0.00000  Uiso   1.00
Cu622  Cu    0.83333   0.25000   0.70178   0.00000  Uiso   1.00
H623   H     0.99307   0.24206   0.69523   0.00000  Uiso   1.00
H624   H     0.67352   0.25418   0.80558   0.00000  Uiso   1.00
H625   H     0.90107   0.11570   0.80469   0.00000  Uiso   1.00
H626   H     0.85703   0.39104   0.67735   0.00000  Uiso   1.00
H627   H     0.76767   0.10874   0.69763   0.00000  Uiso   1.00
H628   H     0.80910   0.38791   0.81961   0.00000  Uiso   1.00
H629   H     0.76966   0.02753   0.69800   0.00000  Uiso   1.00
H630   H     0.81114   0.46889   0.81897   0.00000  Uiso   1.00
H631   H     0.89705   0.29454   0.53898   0.00000  Uiso   1.00
H632   H     0.79293   0.18898   0.96458   0.00000  Uiso   1.00
H633   H     0.76686   0.20625   0.61874   0.00000  Uiso   1.00
H634   H     0.87368   0.31292   0.87809   0.00000  Uiso   1.00
H635   H     0.76005   0.20896   0.53032   0.00000  Uiso   1.00
H636   H     0.86889   0.31826   0.96465   0.00000  Uiso   1.00
N637   N     0.83333   0.25001   0.62934   0.00000  Uiso   1.00
N638   N     0.83333   0.24999   0.87065   0.00000  Uiso   1.00
O639   O     0.83334   0.18572   0.79071   0.00000  Uiso   1.00
O640   O     0.83333   0.31427   0.70928   0.00000  Uiso   1.00
O641   O     0.83334   0.18573   0.70928   0.00000  Uiso   1.00
O642   O     0.83333   0.31427   0.79072   0.00000  Uiso   1.00
O643   O     0.75828   0.24999   0.78132   0.00000  Uiso   1.00
O644   O     0.90839   0.25000   0.71868   0.00000  Uiso   1.00
O645   O     0.75828   0.25000   0.69988   0.00000  Uiso   1.00
O646   O     0.90839   0.25000   0.80011   0.00000  Uiso   1.00
S647   S     0.92708   0.02462   0.81686   0.00000  Uiso   1.00
O648   O     0.94857   0.48975   0.78863   0.00000  Uiso   1.00
O649   O     0.96927   0.05886   0.83290   0.00000  Uiso   1.00
O650   O     0.90477   0.00072   0.86571   0.00000  Uiso   1.00
H651   H     0.93404   0.48440   0.88227   0.00000  Uiso   1.00
S652   S     0.87258   0.48384   0.65843   0.00000  Uiso   1.00
O653   O     0.90889   0.02217   0.67548   0.00000  Uiso   1.00
O654   O     0.89997   0.45354   0.62939   0.00000  Uiso   1.00
O655   O     0.82128   0.00330   0.62337   0.00000  Uiso   1.00
H656   H     0.83608   0.02211   0.59841   0.00000  Uiso   1.00
S657   S     0.92001   0.31346   0.63240   0.00000  Uiso   1.00
O658   O     0.96982   0.29338   0.62520   0.00000  Uiso   1.00
O659   O     0.91678   0.35602   0.60311   0.00000  Uiso   1.00
O660   O     0.92353   0.32773   0.69025   0.00000  Uiso   1.00
H661   H     0.95540   0.34710   0.69633   0.00000  Uiso   1.00
S662   S     0.77704   0.16610   0.87006   0.00000  Uiso   1.00
O663   O     0.81744   0.13342   0.86517   0.00000  Uiso   1.00
O664   O     0.74146   0.14575   0.90388   0.00000  Uiso   1.00
O665   O     0.74083   0.17342   0.81681   0.00000  Uiso   1.00
H666   H     0.72970   0.14306   0.80573   0.00000  Uiso   1.00
C667   C     0.16669   0.66514   0.75049   0.00000  Uiso   1.00
C668   C     0.16635   0.83511   0.74946   0.00000  Uiso   1.00
C669   C     0.20041   0.77613   0.55566   0.00000  Uiso   1.00
C670   C     0.14183   0.71729   0.94567   0.00000  Uiso   1.00
C671   C     0.20206   0.77640   0.60608   0.00000  Uiso   1.00
C672   C     0.14187   0.71587   0.89544   0.00000  Uiso   1.00
C673   C     0.12869   0.72608   0.60154   0.00000  Uiso   1.00
C674   C     0.18825   0.78578   0.89636   0.00000  Uiso   1.00
C675   C     0.12513   0.72748   0.55054   0.00000  Uiso   1.00
C676   C     0.18587   0.78856   0.94653   0.00000  Uiso   1.00
C677   C     0.16187   0.75276   0.52660   0.00000  Uiso   1.00
C678   C     0.16251   0.75356   0.97227   0.00000  Uiso   1.00
C679   C     0.06803   0.74923   0.73781   0.00000  Uiso   1.00
C680   C     0.26527   0.74969   0.76229   0.00000  Uiso   1.00
C681   C     0.01280   0.74695   0.73134   0.00000  Uiso   1.00
C682   C     0.32050   0.75030   0.76917   0.00000  Uiso   1.00
C683   C     0.20889   0.54986   0.78076   0.00000  Uiso   1.00
C684   C     0.18424   0.95454   0.70852   0.00000  Uiso   1.00
C685   C     0.20599   0.59598   0.78160   0.00000  Uiso   1.00
C686   C     0.18098   0.90812   0.70842   0.00000  Uiso   1.00
C687   C     0.16749   0.61711   0.75149   0.00000  Uiso   1.00
C688   C     0.16680   0.88372   0.74856   0.00000  Uiso   1.00
C689   C     0.13090   0.59244   0.72097   0.00000  Uiso   1.00
C690   C     0.15402   0.90605   0.78843   0.00000  Uiso   1.00
C691   C     0.13224   0.54649   0.72102   0.00000  Uiso   1.00
C692   C     0.15543   0.95213   0.78825   0.00000  Uiso   1.00
C693   C     0.17126   0.52501   0.75028   0.00000  Uiso   1.00
C694   C     0.17097   0.97656   0.74886   0.00000  Uiso   1.00
Cu695  Cu    0.16667   0.74999   0.79821   0.00000  Uiso   1.00
Cu696  Cu    0.16667   0.75000   0.70178   0.00000  Uiso   1.00
H697   H     0.32641   0.74206   0.69523   0.00000  Uiso   1.00
H698   H     0.00685   0.75418   0.80558   0.00000  Uiso   1.00
H699   H     0.23440   0.61570   0.80469   0.00000  Uiso   1.00
H700   H     0.19036   0.89104   0.67735   0.00000  Uiso   1.00
H701   H     0.10100   0.60874   0.69763   0.00000  Uiso   1.00
H702   H     0.14244   0.88791   0.81961   0.00000  Uiso   1.00
H703   H     0.10299   0.52753   0.69800   0.00000  Uiso   1.00
H704   H     0.14448   0.96889   0.81897   0.00000  Uiso   1.00
H705   H     0.23039   0.79454   0.53898   0.00000  Uiso   1.00
H706   H     0.12626   0.68898   0.96458   0.00000  Uiso   1.00
H707   H     0.10019   0.70625   0.61874   0.00000  Uiso   1.00
H708   H     0.20701   0.81292   0.87809   0.00000  Uiso   1.00
H709   H     0.09338   0.70896   0.53032   0.00000  Uiso   1.00
H710   H     0.20222   0.81826   0.96465   0.00000  Uiso   1.00
N711   N     0.16667   0.75001   0.62934   0.00000  Uiso   1.00
N712   N     0.16667   0.74999   0.87065   0.00000  Uiso   1.00
O713   O     0.16667   0.68572   0.79071   0.00000  Uiso   1.00
O714   O     0.16666   0.81427   0.70928   0.00000  Uiso   1.00
O715   O     0.16667   0.68573   0.70928   0.00000  Uiso   1.00
O716   O     0.16666   0.81427   0.79072   0.00000  Uiso   1.00
O717   O     0.09161   0.74999   0.78132   0.00000  Uiso   1.00
O718   O     0.24172   0.75000   0.71868   0.00000  Uiso   1.00
O719   O     0.09161   0.75000   0.69988   0.00000  Uiso   1.00
O720   O     0.24172   0.75000   0.80011   0.00000  Uiso   1.00
S721   S     0.26041   0.52462   0.81686   0.00000  Uiso   1.00
O722   O     0.28190   0.98975   0.78863   0.00000  Uiso   1.00
O723   O     0.30261   0.55886   0.83290   0.00000  Uiso   1.00
O724   O     0.23810   0.50072   0.86571   0.00000  Uiso   1.00
H725   H     0.26738   0.98440   0.88227   0.00000  Uiso   1.00
S726   S     0.20591   0.98384   0.65843   0.00000  Uiso   1.00
O727   O     0.24222   0.52217   0.67548   0.00000  Uiso   1.00
O728   O     0.23330   0.95354   0.62939   0.00000  Uiso   1.00
O729   O     0.15462   0.50330   0.62337   0.00000  Uiso   1.00
H730   H     0.16942   0.52211   0.59841   0.00000  Uiso   1.00
S731   S     0.25335   0.81346   0.63240   0.00000  Uiso   1.00
O732   O     0.30315   0.79338   0.62520   0.00000  Uiso   1.00
O733   O     0.25011   0.85602   0.60311   0.00000  Uiso   1.00
O734   O     0.25686   0.82773   0.69025   0.00000  Uiso   1.00
H735   H     0.28874   0.84710   0.69633   0.00000  Uiso   1.00
S736   S     0.11037   0.66610   0.87006   0.00000  Uiso   1.00
O737   O     0.15078   0.63342   0.86517   0.00000  Uiso   1.00
O738   O     0.07479   0.64575   0.90388   0.00000  Uiso   1.00
O739   O     0.07416   0.67342   0.81681   0.00000  Uiso   1.00
H740   H     0.06303   0.64306   0.80573   0.00000  Uiso   1.00
C741   C     0.50002   0.66514   0.75049   0.00000  Uiso   1.00
C742   C     0.49969   0.83511   0.74946   0.00000  Uiso   1.00
C743   C     0.53374   0.77613   0.55566   0.00000  Uiso   1.00
C744   C     0.47516   0.71729   0.94567   0.00000  Uiso   1.00
C745   C     0.53539   0.77640   0.60608   0.00000  Uiso   1.00
C746   C     0.47521   0.71587   0.89544   0.00000  Uiso   1.00
C747   C     0.46202   0.72608   0.60154   0.00000  Uiso   1.00
C748   C     0.52158   0.78578   0.89636   0.00000  Uiso   1.00
C749   C     0.45847   0.72748   0.55054   0.00000  Uiso   1.00
C750   C     0.51920   0.78856   0.94653   0.00000  Uiso   1.00
C751   C     0.49520   0.75276   0.52660   0.00000  Uiso   1.00
C752   C     0.49585   0.75356   0.97227   0.00000  Uiso   1.00
C753   C     0.40137   0.74923   0.73781   0.00000  Uiso   1.00
C754   C     0.59861   0.74969   0.76229   0.00000  Uiso   1.00
C755   C     0.34613   0.74695   0.73134   0.00000  Uiso   1.00
C756   C     0.65384   0.75030   0.76917   0.00000  Uiso   1.00
C757   C     0.54222   0.54986   0.78076   0.00000  Uiso   1.00
C758   C     0.51757   0.95454   0.70852   0.00000  Uiso   1.00
C759   C     0.53932   0.59598   0.78160   0.00000  Uiso   1.00
C760   C     0.51431   0.90812   0.70842   0.00000  Uiso   1.00
C761   C     0.50082   0.61711   0.75149   0.00000  Uiso   1.00
C762   C     0.50013   0.88372   0.74856   0.00000  Uiso   1.00
C763   C     0.46423   0.59244   0.72097   0.00000  Uiso   1.00
C764   C     0.48735   0.90605   0.78843   0.00000  Uiso   1.00
C765   C     0.46557   0.54649   0.72102   0.00000  Uiso   1.00
C766   C     0.48876   0.95213   0.78825   0.00000  Uiso   1.00
C767   C     0.50459   0.52501   0.75028   0.00000  Uiso   1.00
C768   C     0.50430   0.97656   0.74886   0.00000  Uiso   1.00
Cu769  Cu    0.50000   0.74999   0.79821   0.00000  Uiso   1.00
Cu770  Cu    0.50000   0.75000   0.70178   0.00000  Uiso   1.00
H771   H     0.65974   0.74206   0.69523   0.00000  Uiso   1.00
H772   H     0.34018   0.75418   0.80558   0.00000  Uiso   1.00
H773   H     0.56774   0.61570   0.80469   0.00000  Uiso   1.00
H774   H     0.52370   0.89104   0.67735   0.00000  Uiso   1.00
H775   H     0.43433   0.60874   0.69763   0.00000  Uiso   1.00
H776   H     0.47577   0.88791   0.81961   0.00000  Uiso   1.00
H777   H     0.43633   0.52753   0.69800   0.00000  Uiso   1.00
H778   H     0.47781   0.96889   0.81897   0.00000  Uiso   1.00
H779   H     0.56372   0.79454   0.53898   0.00000  Uiso   1.00
H780   H     0.45960   0.68898   0.96458   0.00000  Uiso   1.00
H781   H     0.43352   0.70625   0.61874   0.00000  Uiso   1.00
H782   H     0.54035   0.81292   0.87809   0.00000  Uiso   1.00
H783   H     0.42672   0.70896   0.53032   0.00000  Uiso   1.00
H784   H     0.53556   0.81826   0.96465   0.00000  Uiso   1.00
N785   N     0.50000   0.75001   0.62934   0.00000  Uiso   1.00
N786   N     0.50000   0.74999   0.87065   0.00000  Uiso   1.00
O787   O     0.50000   0.68572   0.79071   0.00000  Uiso   1.00
O788   O     0.50000   0.81427   0.70928   0.00000  Uiso   1.00
O789   O     0.50000   0.68573   0.70928   0.00000  Uiso   1.00
O790   O     0.50000   0.81427   0.79072   0.00000  Uiso   1.00
O791   O     0.42495   0.74999   0.78132   0.00000  Uiso   1.00
O792   O     0.57505   0.75000   0.71868   0.00000  Uiso   1.00
O793   O     0.42495   0.75000   0.69988   0.00000  Uiso   1.00
O794   O     0.57505   0.75000   0.80011   0.00000  Uiso   1.00
S795   S     0.59374   0.52462   0.81686   0.00000  Uiso   1.00
O796   O     0.61523   0.98975   0.78863   0.00000  Uiso   1.00
O797   O     0.63594   0.55886   0.83290   0.00000  Uiso   1.00
O798   O     0.57143   0.50072   0.86571   0.00000  Uiso   1.00
H799   H     0.60071   0.98440   0.88227   0.00000  Uiso   1.00
S800   S     0.53924   0.98384   0.65843   0.00000  Uiso   1.00
O801   O     0.57555   0.52217   0.67548   0.00000  Uiso   1.00
O802   O     0.56664   0.95354   0.62939   0.00000  Uiso   1.00
O803   O     0.48795   0.50330   0.62337   0.00000  Uiso   1.00
H804   H     0.50275   0.52211   0.59841   0.00000  Uiso   1.00
S805   S     0.58668   0.81346   0.63240   0.00000  Uiso   1.00
O806   O     0.63648   0.79338   0.62520   0.00000  Uiso   1.00
O807   O     0.58344   0.85602   0.60311   0.00000  Uiso   1.00
O808   O     0.59020   0.82773   0.69025   0.00000  Uiso   1.00
H809   H     0.62207   0.84710   0.69633   0.00000  Uiso   1.00
S810   S     0.44371   0.66610   0.87006   0.00000  Uiso   1.00
O811   O     0.48411   0.63342   0.86517   0.00000  Uiso   1.00
O812   O     0.40812   0.64575   0.90388   0.00000  Uiso   1.00
O813   O     0.40749   0.67342   0.81681   0.00000  Uiso   1.00
H814   H     0.39636   0.64306   0.80573   0.00000  Uiso   1.00
C815   C     0.83335   0.66514   0.75049   0.00000  Uiso   1.00
C816   C     0.83302   0.83511   0.74946   0.00000  Uiso   1.00
C817   C     0.86708   0.77613   0.55566   0.00000  Uiso   1.00
C818   C     0.80850   0.71729   0.94567   0.00000  Uiso   1.00
C819   C     0.86873   0.77640   0.60608   0.00000  Uiso   1.00
C820   C     0.80854   0.71587   0.89544   0.00000  Uiso   1.00
C821   C     0.79535   0.72608   0.60154   0.00000  Uiso   1.00
C822   C     0.85492   0.78578   0.89636   0.00000  Uiso   1.00
C823   C     0.79180   0.72748   0.55054   0.00000  Uiso   1.00
C824   C     0.85254   0.78856   0.94653   0.00000  Uiso   1.00
C825   C     0.82853   0.75276   0.52660   0.00000  Uiso   1.00
C826   C     0.82918   0.75356   0.97227   0.00000  Uiso   1.00
C827   C     0.73470   0.74923   0.73781   0.00000  Uiso   1.00
C828   C     0.93194   0.74969   0.76229   0.00000  Uiso   1.00
C829   C     0.67947   0.74695   0.73134   0.00000  Uiso   1.00
C830   C     0.98717   0.75030   0.76917   0.00000  Uiso   1.00
C831   C     0.87556   0.54986   0.78076   0.00000  Uiso   1.00
C832   C     0.85091   0.95454   0.70852   0.00000  Uiso   1.00
C833   C     0.87266   0.59598   0.78160   0.00000  Uiso   1.00
C834   C     0.84764   0.90812   0.70842   0.00000  Uiso   1.00
C835   C     0.83416   0.61711   0.75149   0.00000  Uiso   1.00
C836   C     0.83346   0.88372   0.74856   0.00000  Uiso   1.00
C837   C     0.79757   0.59244   0.72097   0.00000  Uiso   1.00
C838   C     0.82069   0.90605   0.78843   0.00000  Uiso   1.00
C839   C     0.79891   0.54649   0.72102   0.00000  Uiso   1.00
C840   C     0.82209   0.95213   0.78825   0.00000  Uiso   1.00
C841   C     0.83792   0.52501   0.75028   0.00000  Uiso   1.00
C842   C     0.83763   0.97656   0.74886   0.00000  Uiso   1.00
Cu843  Cu    0.83333   0.74999   0.79821   0.00000  Uiso   1.00
Cu844  Cu    0.83333   0.75000   0.70178   0.00000  Uiso   1.00
H845   H     0.99307   0.74206   0.69523   0.00000  Uiso   1.00
H846   H     0.67352   0.75418   0.80558   0.00000  Uiso   1.00
H847   H     0.90107   0.61570   0.80469   0.00000  Uiso   1.00
H848   H     0.85703   0.89104   0.67735   0.00000  Uiso   1.00
H849   H     0.76767   0.60874   0.69763   0.00000  Uiso   1.00
H850   H     0.80910   0.88791   0.81961   0.00000  Uiso   1.00
H851   H     0.76966   0.52753   0.69800   0.00000  Uiso   1.00
H852   H     0.81114   0.96889   0.81897   0.00000  Uiso   1.00
H853   H     0.89705   0.79454   0.53898   0.00000  Uiso   1.00
H854   H     0.79293   0.68898   0.96458   0.00000  Uiso   1.00
H855   H     0.76686   0.70625   0.61874   0.00000  Uiso   1.00
H856   H     0.87368   0.81292   0.87809   0.00000  Uiso   1.00
H857   H     0.76005   0.70896   0.53032   0.00000  Uiso   1.00
H858   H     0.86889   0.81826   0.96465   0.00000  Uiso   1.00
N859   N     0.83333   0.75001   0.62934   0.00000  Uiso   1.00
N860   N     0.83333   0.74999   0.87065   0.00000  Uiso   1.00
O861   O     0.83334   0.68572   0.79071   0.00000  Uiso   1.00
O862   O     0.83333   0.81427   0.70928   0.00000  Uiso   1.00
O863   O     0.83334   0.68573   0.70928   0.00000  Uiso   1.00
O864   O     0.83333   0.81427   0.79072   0.00000  Uiso   1.00
O865   O     0.75828   0.74999   0.78132   0.00000  Uiso   1.00
O866   O     0.90839   0.75000   0.71868   0.00000  Uiso   1.00
O867   O     0.75828   0.75000   0.69988   0.00000  Uiso   1.00
O868   O     0.90839   0.75000   0.80011   0.00000  Uiso   1.00
S869   S     0.92708   0.52462   0.81686   0.00000  Uiso   1.00
O870   O     0.94857   0.98975   0.78863   0.00000  Uiso   1.00
O871   O     0.96927   0.55886   0.83290   0.00000  Uiso   1.00
O872   O     0.90477   0.50072   0.86571   0.00000  Uiso   1.00
H873   H     0.93404   0.98440   0.88227   0.00000  Uiso   1.00
S874   S     0.87258   0.98384   0.65843   0.00000  Uiso   1.00
O875   O     0.90889   0.52217   0.67548   0.00000  Uiso   1.00
O876   O     0.89997   0.95354   0.62939   0.00000  Uiso   1.00
O877   O     0.82128   0.50330   0.62337   0.00000  Uiso   1.00
H878   H     0.83608   0.52211   0.59841   0.00000  Uiso   1.00
S879   S     0.92001   0.81346   0.63240   0.00000  Uiso   1.00
O880   O     0.96982   0.79338   0.62520   0.00000  Uiso   1.00
O881   O     0.91678   0.85602   0.60311   0.00000  Uiso   1.00
O882   O     0.92353   0.82773   0.69025   0.00000  Uiso   1.00
H883   H     0.95540   0.84710   0.69633   0.00000  Uiso   1.00
S884   S     0.77704   0.66610   0.87006   0.00000  Uiso   1.00
O885   O     0.81744   0.63342   0.86517   0.00000  Uiso   1.00
O886   O     0.74146   0.64575   0.90388   0.00000  Uiso   1.00
O887   O     0.74083   0.67342   0.81681   0.00000  Uiso   1.00
H888   H     0.72970   0.64306   0.80573   0.00000  Uiso   1.00
loop_
_geom_bond_atom_site_label_1
_geom_bond_atom_site_label_2
_geom_bond_distance
_geom_bond_site_symmetry_2
_ccdc_geom_bond_type
C1     C21     1.448   .     S
C1     O49     1.294   .     A
C1     O47     1.298   .     A
C2     C22     1.464   .     S
C2     O50     1.298   .     A
C2     O48     1.302   .     A
C3     C5      1.405   .     A
C3     H39     1.082   .     S
C3     C11     1.386   .     A
C4     C12     1.385   .     A
C4     H40     1.080   .     S
C4     C6      1.406   .     A
C5     N45     1.399   .     A
C5     S65     1.795   .     S
C6     S70     1.791   .     S
C6     N46     1.400   .     A
C7     N45     1.367   .     A
C7     C9      1.416   .     A
C7     H41     1.082   .     S
C8     H42     1.081   .     S
C8     N46     1.368   .     A
C8     C10     1.416   .     A
C9     C11     1.416   .     A
C9     H43     1.081   .     S
C10    H44     1.081   .     S
C10    C12     1.416   .     A
C11    C456    1.520   1_554 S
C12    C455    1.520   .     S
C13    C15     1.431   .     S
C13    O53     1.290   .     A
C13    O51     1.293   .     A
C14    O54     1.289   .     A
C14    C16     1.431   .     S
C14    O52     1.295   .     A
C15    C164    1.329   1_455 S
C15    H179    1.084   1_455 S
C16    C89     1.329   .     S
C16    H106    1.087   .     S
C17    S55     1.772   .     S
C17    C19     1.397   .     A
C17    C27     1.414   .     A
C18    C28     1.412   .     A
C18    C20     1.397   .     A
C18    S60     1.772   .     S
C19    C21     1.398   .     A
C19    H33     1.083   .     S
C20    C22     1.403   .     A
C20    H34     1.082   .     S
C21    C23     1.396   .     A
C22    C24     1.401   .     A
C23    H35     1.084   .     S
C23    C25     1.387   .     A
C24    H36     1.083   .     S
C24    C26     1.387   .     A
C25    C27     1.401   .     A
C25    H37     1.083   .     S
C26    C28     1.399   .     A
C26    H38     1.084   .     S
C27    C250    1.461   1_545 S
C28    C249    1.461   .     S
Cu29   Cu30    2.695   .     S
Cu29   N46     2.025   .     S
Cu29   O47     1.954   .     S
Cu29   O50     1.943   .     S
Cu29   O51     1.959   .     S
Cu29   O54     1.956   .     S
Cu30   N45     2.025   .     S
Cu30   O53     1.956   .     S
Cu30   O48     1.954   .     S
Cu30   O49     1.943   .     S
Cu30   O52     1.959   .     S
H31    C89     1.084   .     S
H32    C164    1.087   1_455 S
S55    O57     1.504   .     D
S55    O58     1.681   .     S
S55    O278    1.503   1_545 S
O56    S277    1.503   .     S
O58    H281    0.991   1_545 S
H59    O280    0.991   .     S
S60    O62     1.503   .     D
S60    O283    1.503   .     S
S60    O285    1.681   .     S
O61    S282    1.503   1_545 S
O63    H64     0.991   .     S
O63    S282    1.681   1_545 S
S65    O68     1.674   .     S
S65    O66     1.503   .     D
S65    O67     1.504   .     D
O68    H69     0.991   .     S
S70    O73     1.677   .     S
S70    O71     1.503   .     D
S70    O72     1.504   .     D
O73    H74     0.991   .     S
C75    C95     1.448   .     S
C75    O123    1.294   .     A
C75    O121    1.298   .     A
C76    C96     1.464   .     S
C76    O124    1.298   .     A
C76    O122    1.302   .     A
C77    C79     1.405   .     A
C77    H113    1.082   .     S
C77    C85     1.386   .     A
C78    C86     1.385   .     A
C78    H114    1.080   .     S
C78    C80     1.406   .     A
C79    N119    1.399   .     A
C79    S139    1.795   .     S
C80    S144    1.791   .     S
C80    N120    1.400   .     A
C81    N119    1.367   .     A
C81    C83     1.416   .     A
C81    H115    1.082   .     S
C82    H116    1.081   .     S
C82    N120    1.368   .     A
C82    C84     1.416   .     A
C83    C85     1.416   .     A
C83    H117    1.081   .     S
C84    H118    1.081   .     S
C84    C86     1.416   .     A
C85    C530    1.520   1_554 S
C86    C529    1.520   .     S
C87    C89     1.431   .     S
C87    O127    1.290   .     A
C87    O125    1.293   .     A
C88    O128    1.289   .     A
C88    C90     1.431   .     S
C88    O126    1.295   .     A
C90    C163    1.329   .     S
C90    H180    1.087   .     S
C91    S129    1.772   .     S
C91    C93     1.397   .     A
C91    C101    1.414   .     A
C92    C102    1.412   .     A
C92    C94     1.397   .     A
C92    S134    1.772   .     S
C93    C95     1.398   .     A
C93    H107    1.083   .     S
C94    C96     1.403   .     A
C94    H108    1.082   .     S
C95    C97     1.396   .     A
C96    C98     1.401   .     A
C97    H109    1.084   .     S
C97    C99     1.387   .     A
C98    H110    1.083   .     S
C98    C100    1.387   .     A
C99    C101    1.401   .     A
C99    H111    1.083   .     S
C100   C102    1.399   .     A
C100   H112    1.084   .     S
C101   C324    1.461   1_545 S
C102   C323    1.461   .     S
Cu103  Cu104   2.695   .     S
Cu103  N120    2.025   .     S
Cu103  O121    1.954   .     S
Cu103  O124    1.943   .     S
Cu103  O125    1.959   .     S
Cu103  O128    1.956   .     S
Cu104  N119    2.025   .     S
Cu104  O127    1.956   .     S
Cu104  O122    1.954   .     S
Cu104  O123    1.943   .     S
Cu104  O126    1.959   .     S
H105   C163    1.084   .     S
S129   O131    1.504   .     D
S129   O132    1.681   .     S
S129   O352    1.503   1_545 S
O130   S351    1.503   .     S
O132   H355    0.991   1_545 S
H133   O354    0.991   .     S
S134   O136    1.503   .     D
S134   O357    1.503   .     S
S134   O359    1.681   .     S
O135   S356    1.503   1_545 S
O137   H138    0.991   .     S
O137   S356    1.681   1_545 S
S139   O142    1.674   .     S
S139   O140    1.503   .     D
S139   O141    1.504   .     D
O142   H143    0.991   .     S
S144   O147    1.677   .     S
S144   O145    1.503   .     D
S144   O146    1.504   .     D
O147   H148    0.991   .     S
C149   C169    1.448   .     S
C149   O197    1.294   .     A
C149   O195    1.298   .     A
C150   C170    1.464   .     S
C150   O198    1.298   .     A
C150   O196    1.302   .     A
C151   C153    1.405   .     A
C151   H187    1.082   .     S
C151   C159    1.386   .     A
C152   C160    1.385   .     A
C152   H188    1.080   .     S
C152   C154    1.406   .     A
C153   N193    1.399   .     A
C153   S213    1.795   .     S
C154   S218    1.791   .     S
C154   N194    1.400   .     A
C155   N193    1.367   .     A
C155   C157    1.416   .     A
C155   H189    1.082   .     S
C156   H190    1.081   .     S
C156   N194    1.368   .     A
C156   C158    1.416   .     A
C157   C159    1.416   .     A
C157   H191    1.081   .     S
C158   H192    1.081   .     S
C158   C160    1.416   .     A
C159   C604    1.520   1_554 S
C160   C603    1.520   .     S
C161   C163    1.431   .     S
C161   O201    1.290   .     A
C161   O199    1.293   .     A
C162   O202    1.289   .     A
C162   C164    1.431   .     S
C162   O200    1.295   .     A
C164   C15     1.329   1_655 S
C164   H32     1.087   1_655 S
C165   S203    1.772   .     S
C165   C167    1.397   .     A
C165   C175    1.414   .     A
C166   C176    1.412   .     A
C166   C168    1.397   .     A
C166   S208    1.772   .     S
C167   C169    1.398   .     A
C167   H181    1.083   .     S
C168   C170    1.403   .     A
C168   H182    1.082   .     S
C169   C171    1.396   .     A
C170   C172    1.401   .     A
C171   H183    1.084   .     S
C171   C173    1.387   .     A
C172   H184    1.083   .     S
C172   C174    1.387   .     A
C173   C175    1.401   .     A
C173   H185    1.083   .     S
C174   C176    1.399   .     A
C174   H186    1.084   .     S
C175   C398    1.461   1_545 S
C176   C397    1.461   .     S
Cu177  Cu178   2.695   .     S
Cu177  N194    2.025   .     S
Cu177  O195    1.954   .     S
Cu177  O198    1.943   .     S
Cu177  O199    1.959   .     S
Cu177  O202    1.956   .     S
Cu178  N193    2.025   .     S
Cu178  O201    1.956   .     S
Cu178  O196    1.954   .     S
Cu178  O197    1.943   .     S
Cu178  O200    1.959   .     S
H179   C15     1.084   1_655 S
S203   O205    1.504   .     D
S203   O206    1.681   .     S
S203   O426    1.503   1_545 S
O204   S425    1.503   .     S
O206   H429    0.991   1_545 S
H207   O428    0.991   .     S
S208   O210    1.503   .     D
S208   O431    1.503   .     S
S208   O433    1.681   .     S
O209   S430    1.503   1_545 S
O211   H212    0.991   .     S
O211   S430    1.681   1_545 S
S213   O216    1.674   .     S
S213   O214    1.503   .     D
S213   O215    1.504   .     D
O216   H217    0.991   .     S
S218   O221    1.677   .     S
S218   O219    1.503   .     D
S218   O220    1.504   .     D
O221   H222    0.991   .     S
C223   C243    1.448   .     S
C223   O271    1.294   .     A
C223   O269    1.298   .     A
C224   C244    1.464   .     S
C224   O272    1.298   .     A
C224   O270    1.302   .     A
C225   C227    1.405   .     A
C225   H261    1.082   .     S
C225   C233    1.386   .     A
C226   C234    1.385   .     A
C226   H262    1.080   .     S
C226   C228    1.406   .     A
C227   N267    1.399   .     A
C227   S287    1.795   .     S
C228   S292    1.791   .     S
C228   N268    1.400   .     A
C229   N267    1.367   .     A
C229   C231    1.416   .     A
C229   H263    1.082   .     S
C230   H264    1.081   .     S
C230   N268    1.368   .     A
C230   C232    1.416   .     A
C231   C233    1.416   .     A
C231   H265    1.081   .     S
C232   H266    1.081   .     S
C232   C234    1.416   .     A
C233   C678    1.520   1_554 S
C234   C677    1.520   .     S
C235   C237    1.431   .     S
C235   O275    1.290   .     A
C235   O273    1.293   .     A
C236   O276    1.289   .     A
C236   C238    1.431   .     S
C236   O274    1.295   .     A
C237   C386    1.329   1_455 S
C237   H401    1.084   1_455 S
C238   C311    1.329   .     S
C238   H328    1.087   .     S
C239   S277    1.772   .     S
C239   C241    1.397   .     A
C239   C249    1.414   .     A
C240   C250    1.412   .     A
C240   C242    1.397   .     A
C240   S282    1.772   .     S
C241   C243    1.398   .     A
C241   H255    1.083   .     S
C242   C244    1.403   .     A
C242   H256    1.082   .     S
C243   C245    1.396   .     A
C244   C246    1.401   .     A
C245   H257    1.084   .     S
C245   C247    1.387   .     A
C246   H258    1.083   .     S
C246   C248    1.387   .     A
C247   C249    1.401   .     A
C247   H259    1.083   .     S
C248   C250    1.399   .     A
C248   H260    1.084   .     S
C250   C27     1.461   1_565 S
Cu251  Cu252   2.695   .     S
Cu251  N268    2.025   .     S
Cu251  O269    1.954   .     S
Cu251  O272    1.943   .     S
Cu251  O273    1.959   .     S
Cu251  O276    1.956   .     S
Cu252  N267    2.025   .     S
Cu252  O275    1.956   .     S
Cu252  O270    1.954   .     S
Cu252  O271    1.943   .     S
Cu252  O274    1.959   .     S
H253   C311    1.084   .     S
H254   C386    1.087   1_455 S
S277   O279    1.504   .     D
S277   O280    1.681   .     S
O278   S55     1.503   1_565 S
H281   O58     0.991   1_565 S
S282   O284    1.503   .     D
S282   O61     1.503   1_565 S
S282   O63     1.681   1_565 S
O285   H286    0.991   .     S
S287   O290    1.674   .     S
S287   O288    1.503   .     D
S287   O289    1.504   .     D
O290   H291    0.991   .     S
S292   O295    1.677   .     S
S292   O293    1.503   .     D
S292   O294    1.504   .     D
O295   H296    0.991   .     S
C297   C317    1.448   .     S
C297   O345    1.294   .     A
C297   O343    1.298   .     A
C298   C318    1.464   .     S
C298   O346    1.298   .     A
C298   O344    1.302   .     A
C299   C301    1.405   .     A
C299   H335    1.082   .     S
C299   C307    1.386   .     A
C300   C308    1.385   .     A
C300   H336    1.080   .     S
C300   C302    1.406   .     A
C301   N341    1.399   .     A
C301   S361    1.795   .     S
C302   S366    1.791   .     S
C302   N342    1.400   .     A
C303   N341    1.367   .     A
C303   C305    1.416   .     A
C303   H337    1.082   .     S
C304   H338    1.081   .     S
C304   N342    1.368   .     A
C304   C306    1.416   .     A
C305   C307    1.416   .     A
C305   H339    1.081   .     S
C306   H340    1.081   .     S
C306   C308    1.416   .     A
C307   C752    1.520   1_554 S
C308   C751    1.520   .     S
C309   C311    1.431   .     S
C309   O349    1.290   .     A
C309   O347    1.293   .     A
C310   O350    1.289   .     A
C310   C312    1.431   .     S
C310   O348    1.295   .     A
C312   C385    1.329   .     S
C312   H402    1.087   .     S
C313   S351    1.772   .     S
C313   C315    1.397   .     A
C313   C323    1.414   .     A
C314   C324    1.412   .     A
C314   C316    1.397   .     A
C314   S356    1.772   .     S
C315   C317    1.398   .     A
C315   H329    1.083   .     S
C316   C318    1.403   .     A
C316   H330    1.082   .     S
C317   C319    1.396   .     A
C318   C320    1.401   .     A
C319   H331    1.084   .     S
C319   C321    1.387   .     A
C320   H332    1.083   .     S
C320   C322    1.387   .     A
C321   C323    1.401   .     A
C321   H333    1.083   .     S
C322   C324    1.399   .     A
C322   H334    1.084   .     S
C324   C101    1.461   1_565 S
Cu325  Cu326   2.695   .     S
Cu325  N342    2.025   .     S
Cu325  O343    1.954   .     S
Cu325  O346    1.943   .     S
Cu325  O347    1.959   .     S
Cu325  O350    1.956   .     S
Cu326  N341    2.025   .     S
Cu326  O349    1.956   .     S
Cu326  O344    1.954   .     S
Cu326  O345    1.943   .     S
Cu326  O348    1.959   .     S
H327   C385    1.084   .     S
S351   O353    1.504   .     D
S351   O354    1.681   .     S
O352   S129    1.503   1_565 S
H355   O132    0.991   1_565 S
S356   O358    1.503   .     D
S356   O135    1.503   1_565 S
S356   O137    1.681   1_565 S
O359   H360    0.991   .     S
S361   O364    1.674   .     S
S361   O362    1.503   .     D
S361   O363    1.504   .     D
O364   H365    0.991   .     S
S366   O369    1.677   .     S
S366   O367    1.503   .     D
S366   O368    1.504   .     D
O369   H370    0.991   .     S
C371   C391    1.448   .     S
C371   O419    1.294   .     A
C371   O417    1.298   .     A
C372   C392    1.464   .     S
C372   O420    1.298   .     A
C372   O418    1.302   .     A
C373   C375    1.405   .     A
C373   H409    1.082   .     S
C373   C381    1.386   .     A
C374   C382    1.385   .     A
C374   H410    1.080   .     S
C374   C376    1.406   .     A
C375   N415    1.399   .     A
C375   S435    1.795   .     S
C376   S440    1.791   .     S
C376   N416    1.400   .     A
C377   N415    1.367   .     A
C377   C379    1.416   .     A
C377   H411    1.082   .     S
C378   H412    1.081   .     S
C378   N416    1.368   .     A
C378   C380    1.416   .     A
C379   C381    1.416   .     A
C379   H413    1.081   .     S
C380   H414    1.081   .     S
C380   C382    1.416   .     A
C381   C826    1.520   1_554 S
C382   C825    1.520   .     S
C383   C385    1.431   .     S
C383   O423    1.290   .     A
C383   O421    1.293   .     A
C384   O424    1.289   .     A
C384   C386    1.431   .     S
C384   O422    1.295   .     A
C386   C237    1.329   1_655 S
C386   H254    1.087   1_655 S
C387   S425    1.772   .     S
C387   C389    1.397   .     A
C387   C397    1.414   .     A
C388   C398    1.412   .     A
C388   C390    1.397   .     A
C388   S430    1.772   .     S
C389   C391    1.398   .     A
C389   H403    1.083   .     S
C390   C392    1.403   .     A
C390   H404    1.082   .     S
C391   C393    1.396   .     A
C392   C394    1.401   .     A
C393   H405    1.084   .     S
C393   C395    1.387   .     A
C394   H406    1.083   .     S
C394   C396    1.387   .     A
C395   C397    1.401   .     A
C395   H407    1.083   .     S
C396   C398    1.399   .     A
C396   H408    1.084   .     S
C398   C175    1.461   1_565 S
Cu399  Cu400   2.695   .     S
Cu399  N416    2.025   .     S
Cu399  O417    1.954   .     S
Cu399  O420    1.943   .     S
Cu399  O421    1.959   .     S
Cu399  O424    1.956   .     S
Cu400  N415    2.025   .     S
Cu400  O423    1.956   .     S
Cu400  O418    1.954   .     S
Cu400  O419    1.943   .     S
Cu400  O422    1.959   .     S
H401   C237    1.084   1_655 S
S425   O427    1.504   .     D
S425   O428    1.681   .     S
O426   S203    1.503   1_565 S
H429   O206    0.991   1_565 S
S430   O432    1.503   .     D
S430   O209    1.503   1_565 S
S430   O211    1.681   1_565 S
O433   H434    0.991   .     S
S435   O438    1.674   .     S
S435   O436    1.503   .     D
S435   O437    1.504   .     D
O438   H439    0.991   .     S
S440   O443    1.677   .     S
S440   O441    1.503   .     D
S440   O442    1.504   .     D
O443   H444    0.991   .     S
C445   C465    1.448   .     S
C445   O493    1.294   .     A
C445   O491    1.298   .     A
C446   C466    1.464   .     S
C446   O494    1.298   .     A
C446   O492    1.302   .     A
C447   C449    1.405   .     A
C447   H483    1.082   .     S
C447   C455    1.386   .     A
C448   C456    1.385   .     A
C448   H484    1.080   .     S
C448   C450    1.406   .     A
C449   N489    1.399   .     A
C449   S509    1.795   .     S
C450   S514    1.791   .     S
C450   N490    1.400   .     A
C451   N489    1.367   .     A
C451   C453    1.416   .     A
C451   H485    1.082   .     S
C452   H486    1.081   .     S
C452   N490    1.368   .     A
C452   C454    1.416   .     A
C453   C455    1.416   .     A
C453   H487    1.081   .     S
C454   H488    1.081   .     S
C454   C456    1.416   .     A
C456   C11     1.520   1_556 S
C457   C459    1.431   .     S
C457   O497    1.290   .     A
C457   O495    1.293   .     A
C458   O498    1.289   .     A
C458   C460    1.431   .     S
C458   O496    1.295   .     A
C459   C608    1.329   1_455 S
C459   H623    1.084   1_455 S
C460   C533    1.329   .     S
C460   H550    1.087   .     S
C461   S499    1.772   .     S
C461   C463    1.397   .     A
C461   C471    1.414   .     A
C462   C472    1.412   .     A
C462   C464    1.397   .     A
C462   S504    1.772   .     S
C463   C465    1.398   .     A
C463   H477    1.083   .     S
C464   C466    1.403   .     A
C464   H478    1.082   .     S
C465   C467    1.396   .     A
C466   C468    1.401   .     A
C467   H479    1.084   .     S
C467   C469    1.387   .     A
C468   H480    1.083   .     S
C468   C470    1.387   .     A
C469   C471    1.401   .     A
C469   H481    1.083   .     S
C470   C472    1.399   .     A
C470   H482    1.084   .     S
C471   C694    1.461   1_545 S
C472   C693    1.461   .     S
Cu473  Cu474   2.695   .     S
Cu473  N490    2.025   .     S
Cu473  O491    1.954   .     S
Cu473  O494    1.943   .     S
Cu473  O495    1.959   .     S
Cu473  O498    1.956   .     S
Cu474  N489    2.025   .     S
Cu474  O497    1.956   .     S
Cu474  O492    1.954   .     S
Cu474  O493    1.943   .     S
Cu474  O496    1.959   .     S
H475   C533    1.084   .     S
H476   C608    1.087   1_455 S
S499   O501    1.504   .     D
S499   O502    1.681   .     S
S499   O722    1.503   1_545 S
O500   S721    1.503   .     S
O502   H725    0.991   1_545 S
H503   O724    0.991   .     S
S504   O506    1.503   .     D
S504   O727    1.503   .     S
S504   O729    1.681   .     S
O505   S726    1.503   1_545 S
O507   H508    0.991   .     S
O507   S726    1.681   1_545 S
S509   O512    1.674   .     S
S509   O510    1.503   .     D
S509   O511    1.504   .     D
O512   H513    0.991   .     S
S514   O517    1.677   .     S
S514   O515    1.503   .     D
S514   O516    1.504   .     D
O517   H518    0.991   .     S
C519   C539    1.448   .     S
C519   O567    1.294   .     A
C519   O565    1.298   .     A
C520   C540    1.464   .     S
C520   O568    1.298   .     A
C520   O566    1.302   .     A
C521   C523    1.405   .     A
C521   H557    1.082   .     S
C521   C529    1.386   .     A
C522   C530    1.385   .     A
C522   H558    1.080   .     S
C522   C524    1.406   .     A
C523   N563    1.399   .     A
C523   S583    1.795   .     S
C524   S588    1.791   .     S
C524   N564    1.400   .     A
C525   N563    1.367   .     A
C525   C527    1.416   .     A
C525   H559    1.082   .     S
C526   H560    1.081   .     S
C526   N564    1.368   .     A
C526   C528    1.416   .     A
C527   C529    1.416   .     A
C527   H561    1.081   .     S
C528   H562    1.081   .     S
C528   C530    1.416   .     A
C530   C85     1.520   1_556 S
C531   C533    1.431   .     S
C531   O571    1.290   .     A
C531   O569    1.293   .     A
C532   O572    1.289   .     A
C532   C534    1.431   .     S
C532   O570    1.295   .     A
C534   C607    1.329   .     S
C534   H624    1.087   .     S
C535   S573    1.772   .     S
C535   C537    1.397   .     A
C535   C545    1.414   .     A
C536   C546    1.412   .     A
C536   C538    1.397   .     A
C536   S578    1.772   .     S
C537   C539    1.398   .     A
C537   H551    1.083   .     S
C538   C540    1.403   .     A
C538   H552    1.082   .     S
C539   C541    1.396   .     A
C540   C542    1.401   .     A
C541   H553    1.084   .     S
C541   C543    1.387   .     A
C542   H554    1.083   .     S
C542   C544    1.387   .     A
C543   C545    1.401   .     A
C543   H555    1.083   .     S
C544   C546    1.399   .     A
C544   H556    1.084   .     S
C545   C768    1.461   1_545 S
C546   C767    1.461   .     S
Cu547  Cu548   2.695   .     S
Cu547  N564    2.025   .     S
Cu547  O565    1.954   .     S
Cu547  O568    1.943   .     S
Cu547  O569    1.959   .     S
Cu547  O572    1.956   .     S
Cu548  N563    2.025   .     S
Cu548  O571    1.956   .     S
Cu548  O566    1.954   .     S
Cu548  O567    1.943   .     S
Cu548  O570    1.959   .     S
H549   C607    1.084   .     S
S573   O575    1.504   .     D
S573   O576    1.681   .     S
S573   O796    1.503   1_545 S
O574   S795    1.503   .     S
O576   H799    0.991   1_545 S
H577   O798    0.991   .     S
S578   O580    1.503   .     D
S578   O801    1.503   .     S
S578   O803    1.681   .     S
O579   S800    1.503   1_545 S
O581   H582    0.991   .     S
O581   S800    1.681   1_545 S
S583   O586    1.674   .     S
S583   O584    1.503   .     D
S583   O585    1.504   .     D
O586   H587    0.991   .     S
S588   O591    1.677   .     S
S588   O589    1.503   .     D
S588   O590    1.504   .     D
O591   H592    0.991   .     S
C593   C613    1.448   .     S
C593   O641    1.294   .     A
C593   O639    1.298   .     A
C594   C614    1.464   .     S
C594   O642    1.298   .     A
C594   O640    1.302   .     A
C595   C597    1.405   .     A
C595   H631    1.082   .     S
C595   C603    1.386   .     A
C596   C604    1.385   .     A
C596   H632    1.080   .     S
C596   C598    1.406   .     A
C597   N637    1.399   .     A
C597   S657    1.795   .     S
C598   S662    1.791   .     S
C598   N638    1.400   .     A
C599   N637    1.367   .     A
C599   C601    1.416   .     A
C599   H633    1.082   .     S
C600   H634    1.081   .     S
C600   N638    1.368   .     A
C600   C602    1.416   .     A
C601   C603    1.416   .     A
C601   H635    1.081   .     S
C602   H636    1.081   .     S
C602   C604    1.416   .     A
C604   C159    1.520   1_556 S
C605   C607    1.431   .     S
C605   O645    1.290   .     A
C605   O643    1.293   .     A
C606   O646    1.289   .     A
C606   C608    1.431   .     S
C606   O644    1.295   .     A
C608   C459    1.329   1_655 S
C608   H476    1.087   1_655 S
C609   S647    1.772   .     S
C609   C611    1.397   .     A
C609   C619    1.414   .     A
C610   C620    1.412   .     A
C610   C612    1.397   .     A
C610   S652    1.772   .     S
C611   C613    1.398   .     A
C611   H625    1.083   .     S
C612   C614    1.403   .     A
C612   H626    1.082   .     S
C613   C615    1.396   .     A
C614   C616    1.401   .     A
C615   H627    1.084   .     S
C615   C617    1.387   .     A
C616   H628    1.083   .     S
C616   C618    1.387   .     A
C617   C619    1.401   .     A
C617   H629    1.083   .     S
C618   C620    1.399   .     A
C618   H630    1.084   .     S
C619   C842    1.461   1_545 S
C620   C841    1.461   .     S
Cu621  Cu622   2.695   .     S
Cu621  N638    2.025   .     S
Cu621  O639    1.954   .     S
Cu621  O642    1.943   .     S
Cu621  O643    1.959   .     S
Cu621  O646    1.956   .     S
Cu622  N637    2.025   .     S
Cu622  O645    1.956   .     S
Cu622  O640    1.954   .     S
Cu622  O641    1.943   .     S
Cu622  O644    1.959   .     S
H623   C459    1.084   1_655 S
S647   O649    1.504   .     D
S647   O650    1.681   .     S
S647   O870    1.503   1_545 S
O648   S869    1.503   .     S
O650   H873    0.991   1_545 S
H651   O872    0.991   .     S
S652   O654    1.503   .     D
S652   O875    1.503   .     S
S652   O877    1.681   .     S
O653   S874    1.503   1_545 S
O655   H656    0.991   .     S
O655   S874    1.681   1_545 S
S657   O660    1.674   .     S
S657   O658    1.503   .     D
S657   O659    1.504   .     D
O660   H661    0.991   .     S
S662   O665    1.677   .     S
S662   O663    1.503   .     D
S662   O664    1.504   .     D
O665   H666    0.991   .     S
C667   C687    1.448   .     S
C667   O715    1.294   .     A
C667   O713    1.298   .     A
C668   C688    1.464   .     S
C668   O716    1.298   .     A
C668   O714    1.302   .     A
C669   C671    1.405   .     A
C669   H705    1.082   .     S
C669   C677    1.386   .     A
C670   C678    1.385   .     A
C670   H706    1.080   .     S
C670   C672    1.406   .     A
C671   N711    1.399   .     A
C671   S731    1.795   .     S
C672   S736    1.791   .     S
C672   N712    1.400   .     A
C673   N711    1.367   .     A
C673   C675    1.416   .     A
C673   H707    1.082   .     S
C674   H708    1.081   .     S
C674   N712    1.368   .     A
C674   C676    1.416   .     A
C675   C677    1.416   .     A
C675   H709    1.081   .     S
C676   H710    1.081   .     S
C676   C678    1.416   .     A
C678   C233    1.520   1_556 S
C679   C681    1.431   .     S
C679   O719    1.290   .     A
C679   O717    1.293   .     A
C680   O720    1.289   .     A
C680   C682    1.431   .     S
C680   O718    1.295   .     A
C681   C830    1.329   1_455 S
C681   H845    1.084   1_455 S
C682   C755    1.329   .     S
C682   H772    1.087   .     S
C683   S721    1.772   .     S
C683   C685    1.397   .     A
C683   C693    1.414   .     A
C684   C694    1.412   .     A
C684   C686    1.397   .     A
C684   S726    1.772   .     S
C685   C687    1.398   .     A
C685   H699    1.083   .     S
C686   C688    1.403   .     A
C686   H700    1.082   .     S
C687   C689    1.396   .     A
C688   C690    1.401   .     A
C689   H701    1.084   .     S
C689   C691    1.387   .     A
C690   H702    1.083   .     S
C690   C692    1.387   .     A
C691   C693    1.401   .     A
C691   H703    1.083   .     S
C692   C694    1.399   .     A
C692   H704    1.084   .     S
C694   C471    1.461   1_565 S
Cu695  Cu696   2.695   .     S
Cu695  N712    2.025   .     S
Cu695  O713    1.954   .     S
Cu695  O716    1.943   .     S
Cu695  O717    1.959   .     S
Cu695  O720    1.956   .     S
Cu696  N711    2.025   .     S
Cu696  O719    1.956   .     S
Cu696  O714    1.954   .     S
Cu696  O715    1.943   .     S
Cu696  O718    1.959   .     S
H697   C755    1.084   .     S
H698   C830    1.087   1_455 S
S721   O723    1.504   .     D
S721   O724    1.681   .     S
O722   S499    1.503   1_565 S
H725   O502    0.991   1_565 S
S726   O728    1.503   .     D
S726   O505    1.503   1_565 S
S726   O507    1.681   1_565 S
O729   H730    0.991   .     S
S731   O734    1.674   .     S
S731   O732    1.503   .     D
S731   O733    1.504   .     D
O734   H735    0.991   .     S
S736   O739    1.677   .     S
S736   O737    1.503   .     D
S736   O738    1.504   .     D
O739   H740    0.991   .     S
C741   C761    1.448   .     S
C741   O789    1.294   .     A
C741   O787    1.298   .     A
C742   C762    1.464   .     S
C742   O790    1.298   .     A
C742   O788    1.302   .     A
C743   C745    1.405   .     A
C743   H779    1.082   .     S
C743   C751    1.386   .     A
C744   C752    1.385   .     A
C744   H780    1.080   .     S
C744   C746    1.406   .     A
C745   N785    1.399   .     A
C745   S805    1.795   .     S
C746   S810    1.791   .     S
C746   N786    1.400   .     A
C747   N785    1.367   .     A
C747   C749    1.416   .     A
C747   H781    1.082   .     S
C748   H782    1.081   .     S
C748   N786    1.368   .     A
C748   C750    1.416   .     A
C749   C751    1.416   .     A
C749   H783    1.081   .     S
C750   H784    1.081   .     S
C750   C752    1.416   .     A
C752   C307    1.520   1_556 S
C753   C755    1.431   .     S
C753   O793    1.290   .     A
C753   O791    1.293   .     A
C754   O794    1.289   .     A
C754   C756    1.431   .     S
C754   O792    1.295   .     A
C756   C829    1.329   .     S
C756   H846    1.087   .     S
C757   S795    1.772   .     S
C757   C759    1.397   .     A
C757   C767    1.414   .     A
C758   C768    1.412   .     A
C758   C760    1.397   .     A
C758   S800    1.772   .     S
C759   C761    1.398   .     A
C759   H773    1.083   .     S
C760   C762    1.403   .     A
C760   H774    1.082   .     S
C761   C763    1.396   .     A
C762   C764    1.401   .     A
C763   H775    1.084   .     S
C763   C765    1.387   .     A
C764   H776    1.083   .     S
C764   C766    1.387   .     A
C765   C767    1.401   .     A
C765   H777    1.083   .     S
C766   C768    1.399   .     A
C766   H778    1.084   .     S
C768   C545    1.461   1_565 S
Cu769  Cu770   2.695   .     S
Cu769  N786    2.025   .     S
Cu769  O787    1.954   .     S
Cu769  O790    1.943   .     S
Cu769  O791    1.959   .     S
Cu769  O794    1.956   .     S
Cu770  N785    2.025   .     S
Cu770  O793    1.956   .     S
Cu770  O788    1.954   .     S
Cu770  O789    1.943   .     S
Cu770  O792    1.959   .     S
H771   C829    1.084   .     S
S795   O797    1.504   .     D
S795   O798    1.681   .     S
O796   S573    1.503   1_565 S
H799   O576    0.991   1_565 S
S800   O802    1.503   .     D
S800   O579    1.503   1_565 S
S800   O581    1.681   1_565 S
O803   H804    0.991   .     S
S805   O808    1.674   .     S
S805   O806    1.503   .     D
S805   O807    1.504   .     D
O808   H809    0.991   .     S
S810   O813    1.677   .     S
S810   O811    1.503   .     D
S810   O812    1.504   .     D
O813   H814    0.991   .     S
C815   C835    1.448   .     S
C815   O863    1.294   .     A
C815   O861    1.298   .     A
C816   C836    1.464   .     S
C816   O864    1.298   .     A
C816   O862    1.302   .     A
C817   C819    1.405   .     A
C817   H853    1.082   .     S
C817   C825    1.386   .     A
C818   C826    1.385   .     A
C818   H854    1.080   .     S
C818   C820    1.406   .     A
C819   N859    1.399   .     A
C819   S879    1.795   .     S
C820   S884    1.791   .     S
C820   N860    1.400   .     A
C821   N859    1.367   .     A
C821   C823    1.416   .     A
C821   H855    1.082   .     S
C822   H856    1.081   .     S
C822   N860    1.368   .     A
C822   C824    1.416   .     A
C823   C825    1.416   .     A
C823   H857    1.081   .     S
C824   H858    1.081   .     S
C824   C826    1.416   .     A
C826   C381    1.520   1_556 S
C827   C829    1.431   .     S
C827   O867    1.290   .     A
C827   O865    1.293   .     A
C828   O868    1.289   .     A
C828   C830    1.431   .     S
C828   O866    1.295   .     A
C830   C681    1.329   1_655 S
C830   H698    1.087   1_655 S
C831   S869    1.772   .     S
C831   C833    1.397   .     A
C831   C841    1.414   .     A
C832   C842    1.412   .     A
C832   C834    1.397   .     A
C832   S874    1.772   .     S
C833   C835    1.398   .     A
C833   H847    1.083   .     S
C834   C836    1.403   .     A
C834   H848    1.082   .     S
C835   C837    1.396   .     A
C836   C838    1.401   .     A
C837   H849    1.084   .     S
C837   C839    1.387   .     A
C838   H850    1.083   .     S
C838   C840    1.387   .     A
C839   C841    1.401   .     A
C839   H851    1.083   .     S
C840   C842    1.399   .     A
C840   H852    1.084   .     S
C842   C619    1.461   1_565 S
Cu843  Cu844   2.695   .     S
Cu843  N860    2.025   .     S
Cu843  O861    1.954   .     S
Cu843  O864    1.943   .     S
Cu843  O865    1.959   .     S
Cu843  O868    1.956   .     S
Cu844  N859    2.025   .     S
Cu844  O867    1.956   .     S
Cu844  O862    1.954   .     S
Cu844  O863    1.943   .     S
Cu844  O866    1.959   .     S
H845   C681    1.084   1_655 S
S869   O871    1.504   .     D
S869   O872    1.681   .     S
O870   S647    1.503   1_565 S
H873   O650    0.991   1_565 S
S874   O876    1.503   .     D
S874   O653    1.503   1_565 S
S874   O655    1.681   1_565 S
O877   H878    0.991   .     S
S879   O882    1.674   .     S
S879   O880    1.503   .     D
S879   O881    1.504   .     D
O882   H883    0.991   .     S
S884   O887    1.677   .     S
S884   O885    1.503   .     D
S884   O886    1.504   .     D
O887   H888    0.991   .     S
