data_str_m2_o1_o17_pcu_sym.103
_audit_creation_date              2020-01-03
_audit_creation_method            'Materials Studio'
_symmetry_space_group_name_H-M    'P1'
_symmetry_Int_Tables_number       1
_symmetry_cell_setting            triclinic
loop_
_symmetry_equiv_pos_as_xyz
  x,y,z
_cell_length_a                    32.7691
_cell_length_b                    28.5786
_cell_length_c                    30.1556
_cell_angle_alpha                 89.9809
_cell_angle_beta                  90.2559
_cell_angle_gamma                 90.1398
loop_
_atom_site_label
_atom_site_type_symbol
_atom_site_fract_x
_atom_site_fract_y
_atom_site_fract_z
_atom_site_U_iso_or_equiv
_atom_site_adp_type
_atom_site_occupancy
C1     C     0.08746   0.16666   0.24998   0.00000  Uiso   1.00
C2     C     0.24611   0.16674   0.25004   0.00000  Uiso   1.00
C3     C     0.15640   0.25095   0.02334   0.00000  Uiso   1.00
C4     C     0.17604   0.08221   0.47664   0.00000  Uiso   1.00
C5     C     0.02092   0.12635   0.23761   0.00000  Uiso   1.00
C6     C     0.31339   0.20960   0.25111   0.00000  Uiso   1.00
C7     C     0.31315   0.12426   0.24898   0.00000  Uiso   1.00
C8     C     0.02134   0.20738   0.26239   0.00000  Uiso   1.00
C9     C     0.29101   0.16691   0.25003   0.00000  Uiso   1.00
C10    C     0.04299   0.16677   0.25000   0.00000  Uiso   1.00
C11    C     0.15403   0.02471   0.21354   0.00000  Uiso   1.00
C12    C     0.17931   0.30861   0.28645   0.00000  Uiso   1.00
C13    C     0.17915   0.02474   0.28650   0.00000  Uiso   1.00
C14    C     0.15377   0.30855   0.21364   0.00000  Uiso   1.00
C15    C     0.16653   0.16666   0.16430   0.00000  Uiso   1.00
C16    C     0.16678   0.16666   0.33570   0.00000  Uiso   1.00
C17    C     0.17131   0.12455   0.40733   0.00000  Uiso   1.00
C18    C     0.16153   0.20869   0.09266   0.00000  Uiso   1.00
C19    C     0.16681   0.16669   0.38411   0.00000  Uiso   1.00
C20    C     0.16623   0.16659   0.11589   0.00000  Uiso   1.00
C21    C     0.16218   0.20888   0.40720   0.00000  Uiso   1.00
C22    C     0.17071   0.12436   0.09281   0.00000  Uiso   1.00
C23    C     0.16165   0.20935   0.45350   0.00000  Uiso   1.00
C24    C     0.17097   0.12383   0.04650   0.00000  Uiso   1.00
C25    C     0.16638   0.16672   0.47675   0.00000  Uiso   1.00
C26    C     0.16617   0.16645   0.02324   0.00000  Uiso   1.00
C27    C     0.17130   0.12430   0.45350   0.00000  Uiso   1.00
C28    C     0.16129   0.20888   0.04649   0.00000  Uiso   1.00
C29    C     0.15602   0.25147   0.47693   0.00000  Uiso   1.00
C30    C     0.17647   0.08168   0.02307   0.00000  Uiso   1.00
Cu31   Cu    0.16667   0.21355   0.25000   0.00000  Uiso   1.00
Cu32   Cu    0.16667   0.11978   0.25000   0.00000  Uiso   1.00
H33    H     0.17503   0.09189   0.38953   0.00000  Uiso   1.00
H34    H     0.15791   0.24137   0.11045   0.00000  Uiso   1.00
H35    H     0.15860   0.24132   0.38900   0.00000  Uiso   1.00
H36    H     0.17448   0.09195   0.11103   0.00000  Uiso   1.00
H37    H     0.15286   0.28351   0.04125   0.00000  Uiso   1.00
H38    H     0.17942   0.04965   0.45869   0.00000  Uiso   1.00
H39    H     0.14361   0.04303   0.18431   0.00000  Uiso   1.00
H40    H     0.18982   0.29026   0.31566   0.00000  Uiso   1.00
H41    H     0.18915   0.04308   0.31589   0.00000  Uiso   1.00
H42    H     0.14301   0.29016   0.18455   0.00000  Uiso   1.00
N43    N     0.16667   0.28402   0.25000   0.00000  Uiso   1.00
N44    N     0.16667   0.04931   0.25000   0.00000  Uiso   1.00
O45    O     0.10655   0.20625   0.24999   0.00000  Uiso   1.00
O46    O     0.22679   0.12709   0.25000   0.00000  Uiso   1.00
O47    O     0.22679   0.20625   0.25000   0.00000  Uiso   1.00
O48    O     0.10655   0.12709   0.24999   0.00000  Uiso   1.00
O49    O     0.16666   0.20627   0.18513   0.00000  Uiso   1.00
O50    O     0.16668   0.12707   0.31487   0.00000  Uiso   1.00
O51    O     0.16668   0.20627   0.31487   0.00000  Uiso   1.00
O52    O     0.16666   0.12707   0.18513   0.00000  Uiso   1.00
O53    O     0.15294   0.29354   0.45448   0.00000  Uiso   1.00
C54    C     0.11192   0.30827   0.45520   0.00000  Uiso   1.00
H55    H     0.09115   0.28119   0.44096   0.00000  Uiso   1.00
H56    H     0.10903   0.00677   0.43436   0.00000  Uiso   1.00
H57    H     0.10229   0.31772   0.48935   0.00000  Uiso   1.00
O58    O     0.17944   0.03963   0.04560   0.00000  Uiso   1.00
C59    C     0.22009   0.02376   0.04351   0.00000  Uiso   1.00
H60    H     0.22310   0.32573   0.06495   0.00000  Uiso   1.00
H61    H     0.24192   0.05059   0.05621   0.00000  Uiso   1.00
H62    H     0.22827   0.01315   0.00921   0.00000  Uiso   1.00
S63    S     0.04113   0.08263   0.20186   0.00000  Uiso   1.00
O64    O     0.06350   0.04651   0.22868   0.00000  Uiso   1.00
O65    O     0.00713   0.05931   0.17650   0.00000  Uiso   1.00
O66    O     0.07344   0.10742   0.16550   0.00000  Uiso   1.00
H67    H     0.08213   0.08157   0.14586   0.00000  Uiso   1.00
S68    S     0.29370   0.26425   0.23248   0.00000  Uiso   1.00
O69    O     0.27026   0.28659   0.26954   0.00000  Uiso   1.00
O70    O     0.32795   0.29606   0.21877   0.00000  Uiso   1.00
O71    O     0.26290   0.25636   0.18827   0.00000  Uiso   1.00
H72    H     0.24873   0.28666   0.18427   0.00000  Uiso   1.00
S73    S     0.29391   0.07028   0.26973   0.00000  Uiso   1.00
O74    O     0.26846   0.04673   0.23463   0.00000  Uiso   1.00
O75    O     0.32854   0.03873   0.28284   0.00000  Uiso   1.00
O76    O     0.26537   0.08033   0.31497   0.00000  Uiso   1.00
H77    H     0.26392   0.04985   0.33053   0.00000  Uiso   1.00
S78    S     0.04252   0.25106   0.29804   0.00000  Uiso   1.00
O79    O     0.06537   0.28676   0.27118   0.00000  Uiso   1.00
O80    O     0.00923   0.27504   0.32345   0.00000  Uiso   1.00
O81    O     0.07471   0.22596   0.33451   0.00000  Uiso   1.00
H82    H     0.08712   0.25238   0.35105   0.00000  Uiso   1.00
C83    C     0.42080   0.16666   0.24998   0.00000  Uiso   1.00
C84    C     0.57944   0.16674   0.25004   0.00000  Uiso   1.00
C85    C     0.48973   0.25095   0.02334   0.00000  Uiso   1.00
C86    C     0.50938   0.08221   0.47664   0.00000  Uiso   1.00
C87    C     0.35425   0.12635   0.23761   0.00000  Uiso   1.00
C88    C     0.64672   0.20960   0.25111   0.00000  Uiso   1.00
C89    C     0.64648   0.12426   0.24898   0.00000  Uiso   1.00
C90    C     0.35468   0.20738   0.26239   0.00000  Uiso   1.00
C91    C     0.62434   0.16691   0.25003   0.00000  Uiso   1.00
C92    C     0.37632   0.16677   0.25000   0.00000  Uiso   1.00
C93    C     0.48736   0.02471   0.21354   0.00000  Uiso   1.00
C94    C     0.51264   0.30861   0.28645   0.00000  Uiso   1.00
C95    C     0.51249   0.02474   0.28650   0.00000  Uiso   1.00
C96    C     0.48710   0.30855   0.21364   0.00000  Uiso   1.00
C97    C     0.49986   0.16666   0.16430   0.00000  Uiso   1.00
C98    C     0.50011   0.16666   0.33570   0.00000  Uiso   1.00
C99    C     0.50464   0.12455   0.40733   0.00000  Uiso   1.00
C100   C     0.49486   0.20869   0.09266   0.00000  Uiso   1.00
C101   C     0.50014   0.16669   0.38411   0.00000  Uiso   1.00
C102   C     0.49956   0.16659   0.11589   0.00000  Uiso   1.00
C103   C     0.49552   0.20888   0.40720   0.00000  Uiso   1.00
C104   C     0.50404   0.12436   0.09281   0.00000  Uiso   1.00
C105   C     0.49498   0.20935   0.45350   0.00000  Uiso   1.00
C106   C     0.50430   0.12383   0.04650   0.00000  Uiso   1.00
C107   C     0.49972   0.16672   0.47675   0.00000  Uiso   1.00
C108   C     0.49951   0.16645   0.02324   0.00000  Uiso   1.00
C109   C     0.50463   0.12430   0.45350   0.00000  Uiso   1.00
C110   C     0.49463   0.20888   0.04649   0.00000  Uiso   1.00
C111   C     0.48935   0.25147   0.47693   0.00000  Uiso   1.00
C112   C     0.50981   0.08168   0.02307   0.00000  Uiso   1.00
Cu113  Cu    0.50000   0.21355   0.25000   0.00000  Uiso   1.00
Cu114  Cu    0.50000   0.11978   0.25000   0.00000  Uiso   1.00
H115   H     0.50836   0.09189   0.38953   0.00000  Uiso   1.00
H116   H     0.49124   0.24137   0.11045   0.00000  Uiso   1.00
H117   H     0.49194   0.24132   0.38900   0.00000  Uiso   1.00
H118   H     0.50781   0.09195   0.11103   0.00000  Uiso   1.00
H119   H     0.48619   0.28351   0.04125   0.00000  Uiso   1.00
H120   H     0.51275   0.04965   0.45869   0.00000  Uiso   1.00
H121   H     0.47694   0.04303   0.18431   0.00000  Uiso   1.00
H122   H     0.52316   0.29026   0.31566   0.00000  Uiso   1.00
H123   H     0.52248   0.04308   0.31589   0.00000  Uiso   1.00
H124   H     0.47635   0.29016   0.18455   0.00000  Uiso   1.00
N125   N     0.50000   0.28402   0.25000   0.00000  Uiso   1.00
N126   N     0.50000   0.04931   0.25000   0.00000  Uiso   1.00
O127   O     0.43988   0.20625   0.24999   0.00000  Uiso   1.00
O128   O     0.56012   0.12709   0.25000   0.00000  Uiso   1.00
O129   O     0.56012   0.20625   0.25000   0.00000  Uiso   1.00
O130   O     0.43988   0.12709   0.24999   0.00000  Uiso   1.00
O131   O     0.49999   0.20627   0.18513   0.00000  Uiso   1.00
O132   O     0.50001   0.12707   0.31487   0.00000  Uiso   1.00
O133   O     0.50001   0.20627   0.31487   0.00000  Uiso   1.00
O134   O     0.49999   0.12707   0.18513   0.00000  Uiso   1.00
O135   O     0.48628   0.29354   0.45448   0.00000  Uiso   1.00
C136   C     0.44526   0.30827   0.45520   0.00000  Uiso   1.00
H137   H     0.42448   0.28119   0.44096   0.00000  Uiso   1.00
H138   H     0.44236   0.00677   0.43436   0.00000  Uiso   1.00
H139   H     0.43562   0.31772   0.48935   0.00000  Uiso   1.00
O140   O     0.51277   0.03963   0.04560   0.00000  Uiso   1.00
C141   C     0.55342   0.02376   0.04351   0.00000  Uiso   1.00
H142   H     0.55643   0.32573   0.06495   0.00000  Uiso   1.00
H143   H     0.57525   0.05059   0.05621   0.00000  Uiso   1.00
H144   H     0.56160   0.01315   0.00921   0.00000  Uiso   1.00
S145   S     0.37447   0.08263   0.20186   0.00000  Uiso   1.00
O146   O     0.39684   0.04651   0.22868   0.00000  Uiso   1.00
O147   O     0.34046   0.05931   0.17650   0.00000  Uiso   1.00
O148   O     0.40677   0.10742   0.16550   0.00000  Uiso   1.00
H149   H     0.41547   0.08157   0.14586   0.00000  Uiso   1.00
S150   S     0.62704   0.26425   0.23248   0.00000  Uiso   1.00
O151   O     0.60360   0.28659   0.26954   0.00000  Uiso   1.00
O152   O     0.66128   0.29606   0.21877   0.00000  Uiso   1.00
O153   O     0.59623   0.25636   0.18827   0.00000  Uiso   1.00
H154   H     0.58206   0.28666   0.18427   0.00000  Uiso   1.00
S155   S     0.62725   0.07028   0.26973   0.00000  Uiso   1.00
O156   O     0.60179   0.04673   0.23463   0.00000  Uiso   1.00
O157   O     0.66187   0.03873   0.28284   0.00000  Uiso   1.00
O158   O     0.59870   0.08033   0.31497   0.00000  Uiso   1.00
H159   H     0.59725   0.04985   0.33053   0.00000  Uiso   1.00
S160   S     0.37586   0.25106   0.29804   0.00000  Uiso   1.00
O161   O     0.39870   0.28676   0.27118   0.00000  Uiso   1.00
O162   O     0.34256   0.27504   0.32345   0.00000  Uiso   1.00
O163   O     0.40805   0.22596   0.33451   0.00000  Uiso   1.00
H164   H     0.42046   0.25238   0.35105   0.00000  Uiso   1.00
C165   C     0.75413   0.16666   0.24998   0.00000  Uiso   1.00
C166   C     0.91277   0.16674   0.25004   0.00000  Uiso   1.00
C167   C     0.82306   0.25095   0.02334   0.00000  Uiso   1.00
C168   C     0.84271   0.08221   0.47664   0.00000  Uiso   1.00
C169   C     0.68758   0.12635   0.23761   0.00000  Uiso   1.00
C170   C     0.98005   0.20960   0.25111   0.00000  Uiso   1.00
C171   C     0.97982   0.12426   0.24898   0.00000  Uiso   1.00
C172   C     0.68801   0.20738   0.26239   0.00000  Uiso   1.00
C173   C     0.95768   0.16691   0.25003   0.00000  Uiso   1.00
C174   C     0.70965   0.16677   0.25000   0.00000  Uiso   1.00
C175   C     0.82070   0.02471   0.21354   0.00000  Uiso   1.00
C176   C     0.84598   0.30861   0.28645   0.00000  Uiso   1.00
C177   C     0.84582   0.02474   0.28650   0.00000  Uiso   1.00
C178   C     0.82043   0.30855   0.21364   0.00000  Uiso   1.00
C179   C     0.83319   0.16666   0.16430   0.00000  Uiso   1.00
C180   C     0.83345   0.16666   0.33570   0.00000  Uiso   1.00
C181   C     0.83797   0.12455   0.40733   0.00000  Uiso   1.00
C182   C     0.82820   0.20869   0.09266   0.00000  Uiso   1.00
C183   C     0.83347   0.16669   0.38411   0.00000  Uiso   1.00
C184   C     0.83289   0.16659   0.11589   0.00000  Uiso   1.00
C185   C     0.82885   0.20888   0.40720   0.00000  Uiso   1.00
C186   C     0.83738   0.12436   0.09281   0.00000  Uiso   1.00
C187   C     0.82831   0.20935   0.45350   0.00000  Uiso   1.00
C188   C     0.83764   0.12383   0.04650   0.00000  Uiso   1.00
C189   C     0.83305   0.16672   0.47675   0.00000  Uiso   1.00
C190   C     0.83284   0.16645   0.02324   0.00000  Uiso   1.00
C191   C     0.83797   0.12430   0.45350   0.00000  Uiso   1.00
C192   C     0.82796   0.20888   0.04649   0.00000  Uiso   1.00
C193   C     0.82268   0.25147   0.47693   0.00000  Uiso   1.00
C194   C     0.84314   0.08168   0.02307   0.00000  Uiso   1.00
Cu195  Cu    0.83333   0.21355   0.25000   0.00000  Uiso   1.00
Cu196  Cu    0.83333   0.11978   0.25000   0.00000  Uiso   1.00
H197   H     0.84169   0.09189   0.38953   0.00000  Uiso   1.00
H198   H     0.82458   0.24137   0.11045   0.00000  Uiso   1.00
H199   H     0.82527   0.24132   0.38900   0.00000  Uiso   1.00
H200   H     0.84114   0.09195   0.11103   0.00000  Uiso   1.00
H201   H     0.81953   0.28351   0.04125   0.00000  Uiso   1.00
H202   H     0.84608   0.04965   0.45869   0.00000  Uiso   1.00
H203   H     0.81027   0.04303   0.18431   0.00000  Uiso   1.00
H204   H     0.85649   0.29026   0.31566   0.00000  Uiso   1.00
H205   H     0.85582   0.04308   0.31589   0.00000  Uiso   1.00
H206   H     0.80968   0.29016   0.18455   0.00000  Uiso   1.00
N207   N     0.83333   0.28402   0.25000   0.00000  Uiso   1.00
N208   N     0.83333   0.04931   0.25000   0.00000  Uiso   1.00
O209   O     0.77321   0.20625   0.24999   0.00000  Uiso   1.00
O210   O     0.89345   0.12709   0.25000   0.00000  Uiso   1.00
O211   O     0.89345   0.20625   0.25000   0.00000  Uiso   1.00
O212   O     0.77321   0.12709   0.24999   0.00000  Uiso   1.00
O213   O     0.83332   0.20627   0.18513   0.00000  Uiso   1.00
O214   O     0.83334   0.12707   0.31487   0.00000  Uiso   1.00
O215   O     0.83334   0.20627   0.31487   0.00000  Uiso   1.00
O216   O     0.83332   0.12707   0.18513   0.00000  Uiso   1.00
O217   O     0.81961   0.29354   0.45448   0.00000  Uiso   1.00
C218   C     0.77859   0.30827   0.45520   0.00000  Uiso   1.00
H219   H     0.75782   0.28119   0.44096   0.00000  Uiso   1.00
H220   H     0.77569   0.00677   0.43436   0.00000  Uiso   1.00
H221   H     0.76895   0.31772   0.48935   0.00000  Uiso   1.00
O222   O     0.84610   0.03963   0.04560   0.00000  Uiso   1.00
C223   C     0.88676   0.02376   0.04351   0.00000  Uiso   1.00
H224   H     0.88976   0.32573   0.06495   0.00000  Uiso   1.00
H225   H     0.90859   0.05059   0.05621   0.00000  Uiso   1.00
H226   H     0.89494   0.01315   0.00921   0.00000  Uiso   1.00
S227   S     0.70780   0.08263   0.20186   0.00000  Uiso   1.00
O228   O     0.73017   0.04651   0.22868   0.00000  Uiso   1.00
O229   O     0.67380   0.05931   0.17650   0.00000  Uiso   1.00
O230   O     0.74011   0.10742   0.16550   0.00000  Uiso   1.00
H231   H     0.74880   0.08157   0.14586   0.00000  Uiso   1.00
S232   S     0.96037   0.26425   0.23248   0.00000  Uiso   1.00
O233   O     0.93693   0.28659   0.26954   0.00000  Uiso   1.00
O234   O     0.99462   0.29606   0.21877   0.00000  Uiso   1.00
O235   O     0.92957   0.25636   0.18827   0.00000  Uiso   1.00
H236   H     0.91539   0.28666   0.18427   0.00000  Uiso   1.00
S237   S     0.96058   0.07028   0.26973   0.00000  Uiso   1.00
O238   O     0.93512   0.04673   0.23463   0.00000  Uiso   1.00
O239   O     0.99521   0.03873   0.28284   0.00000  Uiso   1.00
O240   O     0.93204   0.08033   0.31497   0.00000  Uiso   1.00
H241   H     0.93058   0.04985   0.33053   0.00000  Uiso   1.00
S242   S     0.70919   0.25106   0.29804   0.00000  Uiso   1.00
O243   O     0.73204   0.28676   0.27118   0.00000  Uiso   1.00
O244   O     0.67589   0.27504   0.32345   0.00000  Uiso   1.00
O245   O     0.74138   0.22596   0.33451   0.00000  Uiso   1.00
H246   H     0.75379   0.25238   0.35105   0.00000  Uiso   1.00
C247   C     0.08746   0.49999   0.24998   0.00000  Uiso   1.00
C248   C     0.24611   0.50008   0.25004   0.00000  Uiso   1.00
C249   C     0.15640   0.58428   0.02334   0.00000  Uiso   1.00
C250   C     0.17604   0.41554   0.47664   0.00000  Uiso   1.00
C251   C     0.02092   0.45968   0.23761   0.00000  Uiso   1.00
C252   C     0.31339   0.54294   0.25111   0.00000  Uiso   1.00
C253   C     0.31315   0.45760   0.24898   0.00000  Uiso   1.00
C254   C     0.02134   0.54071   0.26239   0.00000  Uiso   1.00
C255   C     0.29101   0.50025   0.25003   0.00000  Uiso   1.00
C256   C     0.04299   0.50010   0.25000   0.00000  Uiso   1.00
C257   C     0.15403   0.35804   0.21354   0.00000  Uiso   1.00
C258   C     0.17931   0.64194   0.28645   0.00000  Uiso   1.00
C259   C     0.17915   0.35808   0.28650   0.00000  Uiso   1.00
C260   C     0.15377   0.64188   0.21364   0.00000  Uiso   1.00
C261   C     0.16653   0.50000   0.16430   0.00000  Uiso   1.00
C262   C     0.16678   0.50000   0.33570   0.00000  Uiso   1.00
C263   C     0.17131   0.45788   0.40733   0.00000  Uiso   1.00
C264   C     0.16153   0.54202   0.09266   0.00000  Uiso   1.00
C265   C     0.16681   0.50002   0.38411   0.00000  Uiso   1.00
C266   C     0.16623   0.49992   0.11589   0.00000  Uiso   1.00
C267   C     0.16218   0.54222   0.40720   0.00000  Uiso   1.00
C268   C     0.17071   0.45769   0.09281   0.00000  Uiso   1.00
C269   C     0.16165   0.54268   0.45350   0.00000  Uiso   1.00
C270   C     0.17097   0.45716   0.04650   0.00000  Uiso   1.00
C271   C     0.16638   0.50005   0.47675   0.00000  Uiso   1.00
C272   C     0.16617   0.49979   0.02324   0.00000  Uiso   1.00
C273   C     0.17130   0.45764   0.45350   0.00000  Uiso   1.00
C274   C     0.16129   0.54222   0.04649   0.00000  Uiso   1.00
C275   C     0.15602   0.58480   0.47693   0.00000  Uiso   1.00
C276   C     0.17647   0.41501   0.02307   0.00000  Uiso   1.00
Cu277  Cu    0.16667   0.54689   0.25000   0.00000  Uiso   1.00
Cu278  Cu    0.16667   0.45311   0.25000   0.00000  Uiso   1.00
H279   H     0.17503   0.42522   0.38953   0.00000  Uiso   1.00
H280   H     0.15791   0.57470   0.11045   0.00000  Uiso   1.00
H281   H     0.15860   0.57465   0.38900   0.00000  Uiso   1.00
H282   H     0.17448   0.42529   0.11103   0.00000  Uiso   1.00
H283   H     0.15286   0.61684   0.04125   0.00000  Uiso   1.00
H284   H     0.17942   0.38299   0.45869   0.00000  Uiso   1.00
H285   H     0.14361   0.37637   0.18431   0.00000  Uiso   1.00
H286   H     0.18982   0.62360   0.31566   0.00000  Uiso   1.00
H287   H     0.18915   0.37642   0.31589   0.00000  Uiso   1.00
H288   H     0.14301   0.62349   0.18455   0.00000  Uiso   1.00
N289   N     0.16667   0.61736   0.25000   0.00000  Uiso   1.00
N290   N     0.16667   0.38264   0.25000   0.00000  Uiso   1.00
O291   O     0.10655   0.53958   0.24999   0.00000  Uiso   1.00
O292   O     0.22679   0.46042   0.25000   0.00000  Uiso   1.00
O293   O     0.22679   0.53958   0.25000   0.00000  Uiso   1.00
O294   O     0.10655   0.46042   0.24999   0.00000  Uiso   1.00
O295   O     0.16666   0.53960   0.18513   0.00000  Uiso   1.00
O296   O     0.16668   0.46040   0.31487   0.00000  Uiso   1.00
O297   O     0.16668   0.53960   0.31487   0.00000  Uiso   1.00
O298   O     0.16666   0.46040   0.18513   0.00000  Uiso   1.00
O299   O     0.15294   0.62687   0.45448   0.00000  Uiso   1.00
C300   C     0.11192   0.64160   0.45520   0.00000  Uiso   1.00
H301   H     0.09115   0.61453   0.44096   0.00000  Uiso   1.00
H302   H     0.10903   0.34010   0.43436   0.00000  Uiso   1.00
H303   H     0.10229   0.65106   0.48935   0.00000  Uiso   1.00
O304   O     0.17944   0.37296   0.04560   0.00000  Uiso   1.00
C305   C     0.22009   0.35709   0.04351   0.00000  Uiso   1.00
H306   H     0.22310   0.65906   0.06495   0.00000  Uiso   1.00
H307   H     0.24192   0.38392   0.05621   0.00000  Uiso   1.00
H308   H     0.22827   0.34648   0.00921   0.00000  Uiso   1.00
S309   S     0.04113   0.41597   0.20186   0.00000  Uiso   1.00
O310   O     0.06350   0.37984   0.22868   0.00000  Uiso   1.00
O311   O     0.00713   0.39265   0.17650   0.00000  Uiso   1.00
O312   O     0.07344   0.44076   0.16550   0.00000  Uiso   1.00
H313   H     0.08213   0.41490   0.14586   0.00000  Uiso   1.00
S314   S     0.29370   0.59759   0.23248   0.00000  Uiso   1.00
O315   O     0.27026   0.61992   0.26954   0.00000  Uiso   1.00
O316   O     0.32795   0.62940   0.21877   0.00000  Uiso   1.00
O317   O     0.26290   0.58970   0.18827   0.00000  Uiso   1.00
H318   H     0.24873   0.62000   0.18427   0.00000  Uiso   1.00
S319   S     0.29391   0.40361   0.26973   0.00000  Uiso   1.00
O320   O     0.26846   0.38006   0.23463   0.00000  Uiso   1.00
O321   O     0.32854   0.37207   0.28284   0.00000  Uiso   1.00
O322   O     0.26537   0.41367   0.31497   0.00000  Uiso   1.00
H323   H     0.26392   0.38318   0.33053   0.00000  Uiso   1.00
S324   S     0.04252   0.58440   0.29804   0.00000  Uiso   1.00
O325   O     0.06537   0.62009   0.27118   0.00000  Uiso   1.00
O326   O     0.00923   0.60837   0.32345   0.00000  Uiso   1.00
O327   O     0.07471   0.55929   0.33451   0.00000  Uiso   1.00
H328   H     0.08712   0.58572   0.35105   0.00000  Uiso   1.00
C329   C     0.42080   0.49999   0.24998   0.00000  Uiso   1.00
C330   C     0.57944   0.50008   0.25004   0.00000  Uiso   1.00
C331   C     0.48973   0.58428   0.02334   0.00000  Uiso   1.00
C332   C     0.50938   0.41554   0.47664   0.00000  Uiso   1.00
C333   C     0.35425   0.45968   0.23761   0.00000  Uiso   1.00
C334   C     0.64672   0.54294   0.25111   0.00000  Uiso   1.00
C335   C     0.64648   0.45760   0.24898   0.00000  Uiso   1.00
C336   C     0.35468   0.54071   0.26239   0.00000  Uiso   1.00
C337   C     0.62434   0.50025   0.25003   0.00000  Uiso   1.00
C338   C     0.37632   0.50010   0.25000   0.00000  Uiso   1.00
C339   C     0.48736   0.35804   0.21354   0.00000  Uiso   1.00
C340   C     0.51264   0.64194   0.28645   0.00000  Uiso   1.00
C341   C     0.51249   0.35808   0.28650   0.00000  Uiso   1.00
C342   C     0.48710   0.64188   0.21364   0.00000  Uiso   1.00
C343   C     0.49986   0.50000   0.16430   0.00000  Uiso   1.00
C344   C     0.50011   0.50000   0.33570   0.00000  Uiso   1.00
C345   C     0.50464   0.45788   0.40733   0.00000  Uiso   1.00
C346   C     0.49486   0.54202   0.09266   0.00000  Uiso   1.00
C347   C     0.50014   0.50002   0.38411   0.00000  Uiso   1.00
C348   C     0.49956   0.49992   0.11589   0.00000  Uiso   1.00
C349   C     0.49552   0.54222   0.40720   0.00000  Uiso   1.00
C350   C     0.50404   0.45769   0.09281   0.00000  Uiso   1.00
C351   C     0.49498   0.54268   0.45350   0.00000  Uiso   1.00
C352   C     0.50430   0.45716   0.04650   0.00000  Uiso   1.00
C353   C     0.49972   0.50005   0.47675   0.00000  Uiso   1.00
C354   C     0.49951   0.49979   0.02324   0.00000  Uiso   1.00
C355   C     0.50463   0.45764   0.45350   0.00000  Uiso   1.00
C356   C     0.49463   0.54222   0.04649   0.00000  Uiso   1.00
C357   C     0.48935   0.58480   0.47693   0.00000  Uiso   1.00
C358   C     0.50981   0.41501   0.02307   0.00000  Uiso   1.00
Cu359  Cu    0.50000   0.54689   0.25000   0.00000  Uiso   1.00
Cu360  Cu    0.50000   0.45311   0.25000   0.00000  Uiso   1.00
H361   H     0.50836   0.42522   0.38953   0.00000  Uiso   1.00
H362   H     0.49124   0.57470   0.11045   0.00000  Uiso   1.00
H363   H     0.49194   0.57465   0.38900   0.00000  Uiso   1.00
H364   H     0.50781   0.42529   0.11103   0.00000  Uiso   1.00
H365   H     0.48619   0.61684   0.04125   0.00000  Uiso   1.00
H366   H     0.51275   0.38299   0.45869   0.00000  Uiso   1.00
H367   H     0.47694   0.37637   0.18431   0.00000  Uiso   1.00
H368   H     0.52316   0.62360   0.31566   0.00000  Uiso   1.00
H369   H     0.52248   0.37642   0.31589   0.00000  Uiso   1.00
H370   H     0.47635   0.62349   0.18455   0.00000  Uiso   1.00
N371   N     0.50000   0.61736   0.25000   0.00000  Uiso   1.00
N372   N     0.50000   0.38264   0.25000   0.00000  Uiso   1.00
O373   O     0.43988   0.53958   0.24999   0.00000  Uiso   1.00
O374   O     0.56012   0.46042   0.25000   0.00000  Uiso   1.00
O375   O     0.56012   0.53958   0.25000   0.00000  Uiso   1.00
O376   O     0.43988   0.46042   0.24999   0.00000  Uiso   1.00
O377   O     0.49999   0.53960   0.18513   0.00000  Uiso   1.00
O378   O     0.50001   0.46040   0.31487   0.00000  Uiso   1.00
O379   O     0.50001   0.53960   0.31487   0.00000  Uiso   1.00
O380   O     0.49999   0.46040   0.18513   0.00000  Uiso   1.00
O381   O     0.48628   0.62687   0.45448   0.00000  Uiso   1.00
C382   C     0.44526   0.64160   0.45520   0.00000  Uiso   1.00
H383   H     0.42448   0.61453   0.44096   0.00000  Uiso   1.00
H384   H     0.44236   0.34010   0.43436   0.00000  Uiso   1.00
H385   H     0.43562   0.65106   0.48935   0.00000  Uiso   1.00
O386   O     0.51277   0.37296   0.04560   0.00000  Uiso   1.00
C387   C     0.55342   0.35709   0.04351   0.00000  Uiso   1.00
H388   H     0.55643   0.65906   0.06495   0.00000  Uiso   1.00
H389   H     0.57525   0.38392   0.05621   0.00000  Uiso   1.00
H390   H     0.56160   0.34648   0.00921   0.00000  Uiso   1.00
S391   S     0.37447   0.41597   0.20186   0.00000  Uiso   1.00
O392   O     0.39684   0.37984   0.22868   0.00000  Uiso   1.00
O393   O     0.34046   0.39265   0.17650   0.00000  Uiso   1.00
O394   O     0.40677   0.44076   0.16550   0.00000  Uiso   1.00
H395   H     0.41547   0.41490   0.14586   0.00000  Uiso   1.00
S396   S     0.62704   0.59759   0.23248   0.00000  Uiso   1.00
O397   O     0.60360   0.61992   0.26954   0.00000  Uiso   1.00
O398   O     0.66128   0.62940   0.21877   0.00000  Uiso   1.00
O399   O     0.59623   0.58970   0.18827   0.00000  Uiso   1.00
H400   H     0.58206   0.62000   0.18427   0.00000  Uiso   1.00
S401   S     0.62725   0.40361   0.26973   0.00000  Uiso   1.00
O402   O     0.60179   0.38006   0.23463   0.00000  Uiso   1.00
O403   O     0.66187   0.37207   0.28284   0.00000  Uiso   1.00
O404   O     0.59870   0.41367   0.31497   0.00000  Uiso   1.00
H405   H     0.59725   0.38318   0.33053   0.00000  Uiso   1.00
S406   S     0.37586   0.58440   0.29804   0.00000  Uiso   1.00
O407   O     0.39870   0.62009   0.27118   0.00000  Uiso   1.00
O408   O     0.34256   0.60837   0.32345   0.00000  Uiso   1.00
O409   O     0.40805   0.55929   0.33451   0.00000  Uiso   1.00
H410   H     0.42046   0.58572   0.35105   0.00000  Uiso   1.00
C411   C     0.75413   0.49999   0.24998   0.00000  Uiso   1.00
C412   C     0.91277   0.50008   0.25004   0.00000  Uiso   1.00
C413   C     0.82306   0.58428   0.02334   0.00000  Uiso   1.00
C414   C     0.84271   0.41554   0.47664   0.00000  Uiso   1.00
C415   C     0.68758   0.45968   0.23761   0.00000  Uiso   1.00
C416   C     0.98005   0.54294   0.25111   0.00000  Uiso   1.00
C417   C     0.97982   0.45760   0.24898   0.00000  Uiso   1.00
C418   C     0.68801   0.54071   0.26239   0.00000  Uiso   1.00
C419   C     0.95768   0.50025   0.25003   0.00000  Uiso   1.00
C420   C     0.70965   0.50010   0.25000   0.00000  Uiso   1.00
C421   C     0.82070   0.35804   0.21354   0.00000  Uiso   1.00
C422   C     0.84598   0.64194   0.28645   0.00000  Uiso   1.00
C423   C     0.84582   0.35808   0.28650   0.00000  Uiso   1.00
C424   C     0.82043   0.64188   0.21364   0.00000  Uiso   1.00
C425   C     0.83319   0.50000   0.16430   0.00000  Uiso   1.00
C426   C     0.83345   0.50000   0.33570   0.00000  Uiso   1.00
C427   C     0.83797   0.45788   0.40733   0.00000  Uiso   1.00
C428   C     0.82820   0.54202   0.09266   0.00000  Uiso   1.00
C429   C     0.83347   0.50002   0.38411   0.00000  Uiso   1.00
C430   C     0.83289   0.49992   0.11589   0.00000  Uiso   1.00
C431   C     0.82885   0.54222   0.40720   0.00000  Uiso   1.00
C432   C     0.83738   0.45769   0.09281   0.00000  Uiso   1.00
C433   C     0.82831   0.54268   0.45350   0.00000  Uiso   1.00
C434   C     0.83764   0.45716   0.04650   0.00000  Uiso   1.00
C435   C     0.83305   0.50005   0.47675   0.00000  Uiso   1.00
C436   C     0.83284   0.49979   0.02324   0.00000  Uiso   1.00
C437   C     0.83797   0.45764   0.45350   0.00000  Uiso   1.00
C438   C     0.82796   0.54222   0.04649   0.00000  Uiso   1.00
C439   C     0.82268   0.58480   0.47693   0.00000  Uiso   1.00
C440   C     0.84314   0.41501   0.02307   0.00000  Uiso   1.00
Cu441  Cu    0.83333   0.54689   0.25000   0.00000  Uiso   1.00
Cu442  Cu    0.83333   0.45311   0.25000   0.00000  Uiso   1.00
H443   H     0.84169   0.42522   0.38953   0.00000  Uiso   1.00
H444   H     0.82458   0.57470   0.11045   0.00000  Uiso   1.00
H445   H     0.82527   0.57465   0.38900   0.00000  Uiso   1.00
H446   H     0.84114   0.42529   0.11103   0.00000  Uiso   1.00
H447   H     0.81953   0.61684   0.04125   0.00000  Uiso   1.00
H448   H     0.84608   0.38299   0.45869   0.00000  Uiso   1.00
H449   H     0.81027   0.37637   0.18431   0.00000  Uiso   1.00
H450   H     0.85649   0.62360   0.31566   0.00000  Uiso   1.00
H451   H     0.85582   0.37642   0.31589   0.00000  Uiso   1.00
H452   H     0.80968   0.62349   0.18455   0.00000  Uiso   1.00
N453   N     0.83333   0.61736   0.25000   0.00000  Uiso   1.00
N454   N     0.83333   0.38264   0.25000   0.00000  Uiso   1.00
O455   O     0.77321   0.53958   0.24999   0.00000  Uiso   1.00
O456   O     0.89345   0.46042   0.25000   0.00000  Uiso   1.00
O457   O     0.89345   0.53958   0.25000   0.00000  Uiso   1.00
O458   O     0.77321   0.46042   0.24999   0.00000  Uiso   1.00
O459   O     0.83332   0.53960   0.18513   0.00000  Uiso   1.00
O460   O     0.83334   0.46040   0.31487   0.00000  Uiso   1.00
O461   O     0.83334   0.53960   0.31487   0.00000  Uiso   1.00
O462   O     0.83332   0.46040   0.18513   0.00000  Uiso   1.00
O463   O     0.81961   0.62687   0.45448   0.00000  Uiso   1.00
C464   C     0.77859   0.64160   0.45520   0.00000  Uiso   1.00
H465   H     0.75782   0.61453   0.44096   0.00000  Uiso   1.00
H466   H     0.77569   0.34010   0.43436   0.00000  Uiso   1.00
H467   H     0.76895   0.65106   0.48935   0.00000  Uiso   1.00
O468   O     0.84610   0.37296   0.04560   0.00000  Uiso   1.00
C469   C     0.88676   0.35709   0.04351   0.00000  Uiso   1.00
H470   H     0.88976   0.65906   0.06495   0.00000  Uiso   1.00
H471   H     0.90859   0.38392   0.05621   0.00000  Uiso   1.00
H472   H     0.89494   0.34648   0.00921   0.00000  Uiso   1.00
S473   S     0.70780   0.41597   0.20186   0.00000  Uiso   1.00
O474   O     0.73017   0.37984   0.22868   0.00000  Uiso   1.00
O475   O     0.67380   0.39265   0.17650   0.00000  Uiso   1.00
O476   O     0.74011   0.44076   0.16550   0.00000  Uiso   1.00
H477   H     0.74880   0.41490   0.14586   0.00000  Uiso   1.00
S478   S     0.96037   0.59759   0.23248   0.00000  Uiso   1.00
O479   O     0.93693   0.61992   0.26954   0.00000  Uiso   1.00
O480   O     0.99462   0.62940   0.21877   0.00000  Uiso   1.00
O481   O     0.92957   0.58970   0.18827   0.00000  Uiso   1.00
H482   H     0.91539   0.62000   0.18427   0.00000  Uiso   1.00
S483   S     0.96058   0.40361   0.26973   0.00000  Uiso   1.00
O484   O     0.93512   0.38006   0.23463   0.00000  Uiso   1.00
O485   O     0.99521   0.37207   0.28284   0.00000  Uiso   1.00
O486   O     0.93204   0.41367   0.31497   0.00000  Uiso   1.00
H487   H     0.93058   0.38318   0.33053   0.00000  Uiso   1.00
S488   S     0.70919   0.58440   0.29804   0.00000  Uiso   1.00
O489   O     0.73204   0.62009   0.27118   0.00000  Uiso   1.00
O490   O     0.67589   0.60837   0.32345   0.00000  Uiso   1.00
O491   O     0.74138   0.55929   0.33451   0.00000  Uiso   1.00
H492   H     0.75379   0.58572   0.35105   0.00000  Uiso   1.00
C493   C     0.08746   0.83332   0.24998   0.00000  Uiso   1.00
C494   C     0.24611   0.83341   0.25004   0.00000  Uiso   1.00
C495   C     0.15640   0.91762   0.02334   0.00000  Uiso   1.00
C496   C     0.17604   0.74888   0.47664   0.00000  Uiso   1.00
C497   C     0.02092   0.79301   0.23761   0.00000  Uiso   1.00
C498   C     0.31339   0.87627   0.25111   0.00000  Uiso   1.00
C499   C     0.31315   0.79093   0.24898   0.00000  Uiso   1.00
C500   C     0.02134   0.87405   0.26239   0.00000  Uiso   1.00
C501   C     0.29101   0.83358   0.25003   0.00000  Uiso   1.00
C502   C     0.04299   0.83344   0.25000   0.00000  Uiso   1.00
C503   C     0.15403   0.69137   0.21354   0.00000  Uiso   1.00
C504   C     0.17931   0.97527   0.28645   0.00000  Uiso   1.00
C505   C     0.17915   0.69141   0.28650   0.00000  Uiso   1.00
C506   C     0.15377   0.97522   0.21364   0.00000  Uiso   1.00
C507   C     0.16653   0.83333   0.16430   0.00000  Uiso   1.00
C508   C     0.16678   0.83333   0.33570   0.00000  Uiso   1.00
C509   C     0.17131   0.79122   0.40733   0.00000  Uiso   1.00
C510   C     0.16153   0.87535   0.09266   0.00000  Uiso   1.00
C511   C     0.16681   0.83336   0.38411   0.00000  Uiso   1.00
C512   C     0.16623   0.83325   0.11589   0.00000  Uiso   1.00
C513   C     0.16218   0.87555   0.40720   0.00000  Uiso   1.00
C514   C     0.17071   0.79102   0.09281   0.00000  Uiso   1.00
C515   C     0.16165   0.87602   0.45350   0.00000  Uiso   1.00
C516   C     0.17097   0.79050   0.04650   0.00000  Uiso   1.00
C517   C     0.16638   0.83339   0.47675   0.00000  Uiso   1.00
C518   C     0.16617   0.83312   0.02324   0.00000  Uiso   1.00
C519   C     0.17130   0.79097   0.45350   0.00000  Uiso   1.00
C520   C     0.16129   0.87555   0.04649   0.00000  Uiso   1.00
C521   C     0.15602   0.91814   0.47693   0.00000  Uiso   1.00
C522   C     0.17647   0.74835   0.02307   0.00000  Uiso   1.00
Cu523  Cu    0.16667   0.88022   0.25000   0.00000  Uiso   1.00
Cu524  Cu    0.16667   0.78645   0.25000   0.00000  Uiso   1.00
H525   H     0.17503   0.75855   0.38953   0.00000  Uiso   1.00
H526   H     0.15791   0.90804   0.11045   0.00000  Uiso   1.00
H527   H     0.15860   0.90799   0.38900   0.00000  Uiso   1.00
H528   H     0.17448   0.75862   0.11103   0.00000  Uiso   1.00
H529   H     0.15286   0.95017   0.04125   0.00000  Uiso   1.00
H530   H     0.17942   0.71632   0.45869   0.00000  Uiso   1.00
H531   H     0.14361   0.70970   0.18431   0.00000  Uiso   1.00
H532   H     0.18982   0.95693   0.31566   0.00000  Uiso   1.00
H533   H     0.18915   0.70975   0.31589   0.00000  Uiso   1.00
H534   H     0.14301   0.95682   0.18455   0.00000  Uiso   1.00
N535   N     0.16667   0.95069   0.25000   0.00000  Uiso   1.00
N536   N     0.16667   0.71598   0.25000   0.00000  Uiso   1.00
O537   O     0.10655   0.87291   0.24999   0.00000  Uiso   1.00
O538   O     0.22679   0.79375   0.25000   0.00000  Uiso   1.00
O539   O     0.22679   0.87291   0.25000   0.00000  Uiso   1.00
O540   O     0.10655   0.79375   0.24999   0.00000  Uiso   1.00
O541   O     0.16666   0.87293   0.18513   0.00000  Uiso   1.00
O542   O     0.16668   0.79373   0.31487   0.00000  Uiso   1.00
O543   O     0.16668   0.87293   0.31487   0.00000  Uiso   1.00
O544   O     0.16666   0.79373   0.18513   0.00000  Uiso   1.00
O545   O     0.15294   0.96021   0.45448   0.00000  Uiso   1.00
C546   C     0.11192   0.97493   0.45520   0.00000  Uiso   1.00
H547   H     0.09115   0.94786   0.44096   0.00000  Uiso   1.00
H548   H     0.10903   0.67343   0.43436   0.00000  Uiso   1.00
H549   H     0.10229   0.98439   0.48935   0.00000  Uiso   1.00
O550   O     0.17944   0.70630   0.04560   0.00000  Uiso   1.00
C551   C     0.22009   0.69043   0.04351   0.00000  Uiso   1.00
H552   H     0.22310   0.99239   0.06495   0.00000  Uiso   1.00
H553   H     0.24192   0.71725   0.05621   0.00000  Uiso   1.00
H554   H     0.22827   0.67981   0.00921   0.00000  Uiso   1.00
S555   S     0.04113   0.74930   0.20186   0.00000  Uiso   1.00
O556   O     0.06350   0.71317   0.22868   0.00000  Uiso   1.00
O557   O     0.00713   0.72598   0.17650   0.00000  Uiso   1.00
O558   O     0.07344   0.77409   0.16550   0.00000  Uiso   1.00
H559   H     0.08213   0.74824   0.14586   0.00000  Uiso   1.00
S560   S     0.29370   0.93092   0.23248   0.00000  Uiso   1.00
O561   O     0.27026   0.95326   0.26954   0.00000  Uiso   1.00
O562   O     0.32795   0.96273   0.21877   0.00000  Uiso   1.00
O563   O     0.26290   0.92303   0.18827   0.00000  Uiso   1.00
H564   H     0.24873   0.95333   0.18427   0.00000  Uiso   1.00
S565   S     0.29391   0.73694   0.26973   0.00000  Uiso   1.00
O566   O     0.26846   0.71340   0.23463   0.00000  Uiso   1.00
O567   O     0.32854   0.70540   0.28284   0.00000  Uiso   1.00
O568   O     0.26537   0.74700   0.31497   0.00000  Uiso   1.00
H569   H     0.26392   0.71652   0.33053   0.00000  Uiso   1.00
S570   S     0.04252   0.91773   0.29804   0.00000  Uiso   1.00
O571   O     0.06537   0.95343   0.27118   0.00000  Uiso   1.00
O572   O     0.00923   0.94171   0.32345   0.00000  Uiso   1.00
O573   O     0.07471   0.89263   0.33451   0.00000  Uiso   1.00
H574   H     0.08712   0.91905   0.35105   0.00000  Uiso   1.00
C575   C     0.42080   0.83332   0.24998   0.00000  Uiso   1.00
C576   C     0.57944   0.83341   0.25004   0.00000  Uiso   1.00
C577   C     0.48973   0.91762   0.02334   0.00000  Uiso   1.00
C578   C     0.50938   0.74888   0.47664   0.00000  Uiso   1.00
C579   C     0.35425   0.79301   0.23761   0.00000  Uiso   1.00
C580   C     0.64672   0.87627   0.25111   0.00000  Uiso   1.00
C581   C     0.64648   0.79093   0.24898   0.00000  Uiso   1.00
C582   C     0.35468   0.87405   0.26239   0.00000  Uiso   1.00
C583   C     0.62434   0.83358   0.25003   0.00000  Uiso   1.00
C584   C     0.37632   0.83344   0.25000   0.00000  Uiso   1.00
C585   C     0.48736   0.69137   0.21354   0.00000  Uiso   1.00
C586   C     0.51264   0.97527   0.28645   0.00000  Uiso   1.00
C587   C     0.51249   0.69141   0.28650   0.00000  Uiso   1.00
C588   C     0.48710   0.97522   0.21364   0.00000  Uiso   1.00
C589   C     0.49986   0.83333   0.16430   0.00000  Uiso   1.00
C590   C     0.50011   0.83333   0.33570   0.00000  Uiso   1.00
C591   C     0.50464   0.79122   0.40733   0.00000  Uiso   1.00
C592   C     0.49486   0.87535   0.09266   0.00000  Uiso   1.00
C593   C     0.50014   0.83336   0.38411   0.00000  Uiso   1.00
C594   C     0.49956   0.83325   0.11589   0.00000  Uiso   1.00
C595   C     0.49552   0.87555   0.40720   0.00000  Uiso   1.00
C596   C     0.50404   0.79102   0.09281   0.00000  Uiso   1.00
C597   C     0.49498   0.87602   0.45350   0.00000  Uiso   1.00
C598   C     0.50430   0.79050   0.04650   0.00000  Uiso   1.00
C599   C     0.49972   0.83339   0.47675   0.00000  Uiso   1.00
C600   C     0.49951   0.83312   0.02324   0.00000  Uiso   1.00
C601   C     0.50463   0.79097   0.45350   0.00000  Uiso   1.00
C602   C     0.49463   0.87555   0.04649   0.00000  Uiso   1.00
C603   C     0.48935   0.91814   0.47693   0.00000  Uiso   1.00
C604   C     0.50981   0.74835   0.02307   0.00000  Uiso   1.00
Cu605  Cu    0.50000   0.88022   0.25000   0.00000  Uiso   1.00
Cu606  Cu    0.50000   0.78645   0.25000   0.00000  Uiso   1.00
H607   H     0.50836   0.75855   0.38953   0.00000  Uiso   1.00
H608   H     0.49124   0.90804   0.11045   0.00000  Uiso   1.00
H609   H     0.49194   0.90799   0.38900   0.00000  Uiso   1.00
H610   H     0.50781   0.75862   0.11103   0.00000  Uiso   1.00
H611   H     0.48619   0.95017   0.04125   0.00000  Uiso   1.00
H612   H     0.51275   0.71632   0.45869   0.00000  Uiso   1.00
H613   H     0.47694   0.70970   0.18431   0.00000  Uiso   1.00
H614   H     0.52316   0.95693   0.31566   0.00000  Uiso   1.00
H615   H     0.52248   0.70975   0.31589   0.00000  Uiso   1.00
H616   H     0.47635   0.95682   0.18455   0.00000  Uiso   1.00
N617   N     0.50000   0.95069   0.25000   0.00000  Uiso   1.00
N618   N     0.50000   0.71598   0.25000   0.00000  Uiso   1.00
O619   O     0.43988   0.87291   0.24999   0.00000  Uiso   1.00
O620   O     0.56012   0.79375   0.25000   0.00000  Uiso   1.00
O621   O     0.56012   0.87291   0.25000   0.00000  Uiso   1.00
O622   O     0.43988   0.79375   0.24999   0.00000  Uiso   1.00
O623   O     0.49999   0.87293   0.18513   0.00000  Uiso   1.00
O624   O     0.50001   0.79373   0.31487   0.00000  Uiso   1.00
O625   O     0.50001   0.87293   0.31487   0.00000  Uiso   1.00
O626   O     0.49999   0.79373   0.18513   0.00000  Uiso   1.00
O627   O     0.48628   0.96021   0.45448   0.00000  Uiso   1.00
C628   C     0.44526   0.97493   0.45520   0.00000  Uiso   1.00
H629   H     0.42448   0.94786   0.44096   0.00000  Uiso   1.00
H630   H     0.44236   0.67343   0.43436   0.00000  Uiso   1.00
H631   H     0.43562   0.98439   0.48935   0.00000  Uiso   1.00
O632   O     0.51277   0.70630   0.04560   0.00000  Uiso   1.00
C633   C     0.55342   0.69043   0.04351   0.00000  Uiso   1.00
H634   H     0.55643   0.99239   0.06495   0.00000  Uiso   1.00
H635   H     0.57525   0.71725   0.05621   0.00000  Uiso   1.00
H636   H     0.56160   0.67981   0.00921   0.00000  Uiso   1.00
S637   S     0.37447   0.74930   0.20186   0.00000  Uiso   1.00
O638   O     0.39684   0.71317   0.22868   0.00000  Uiso   1.00
O639   O     0.34046   0.72598   0.17650   0.00000  Uiso   1.00
O640   O     0.40677   0.77409   0.16550   0.00000  Uiso   1.00
H641   H     0.41547   0.74824   0.14586   0.00000  Uiso   1.00
S642   S     0.62704   0.93092   0.23248   0.00000  Uiso   1.00
O643   O     0.60360   0.95326   0.26954   0.00000  Uiso   1.00
O644   O     0.66128   0.96273   0.21877   0.00000  Uiso   1.00
O645   O     0.59623   0.92303   0.18827   0.00000  Uiso   1.00
H646   H     0.58206   0.95333   0.18427   0.00000  Uiso   1.00
S647   S     0.62725   0.73694   0.26973   0.00000  Uiso   1.00
O648   O     0.60179   0.71340   0.23463   0.00000  Uiso   1.00
O649   O     0.66187   0.70540   0.28284   0.00000  Uiso   1.00
O650   O     0.59870   0.74700   0.31497   0.00000  Uiso   1.00
H651   H     0.59725   0.71652   0.33053   0.00000  Uiso   1.00
S652   S     0.37586   0.91773   0.29804   0.00000  Uiso   1.00
O653   O     0.39870   0.95343   0.27118   0.00000  Uiso   1.00
O654   O     0.34256   0.94171   0.32345   0.00000  Uiso   1.00
O655   O     0.40805   0.89263   0.33451   0.00000  Uiso   1.00
H656   H     0.42046   0.91905   0.35105   0.00000  Uiso   1.00
C657   C     0.75413   0.83332   0.24998   0.00000  Uiso   1.00
C658   C     0.91277   0.83341   0.25004   0.00000  Uiso   1.00
C659   C     0.82306   0.91762   0.02334   0.00000  Uiso   1.00
C660   C     0.84271   0.74888   0.47664   0.00000  Uiso   1.00
C661   C     0.68758   0.79301   0.23761   0.00000  Uiso   1.00
C662   C     0.98005   0.87627   0.25111   0.00000  Uiso   1.00
C663   C     0.97982   0.79093   0.24898   0.00000  Uiso   1.00
C664   C     0.68801   0.87405   0.26239   0.00000  Uiso   1.00
C665   C     0.95768   0.83358   0.25003   0.00000  Uiso   1.00
C666   C     0.70965   0.83344   0.25000   0.00000  Uiso   1.00
C667   C     0.82070   0.69137   0.21354   0.00000  Uiso   1.00
C668   C     0.84598   0.97527   0.28645   0.00000  Uiso   1.00
C669   C     0.84582   0.69141   0.28650   0.00000  Uiso   1.00
C670   C     0.82043   0.97522   0.21364   0.00000  Uiso   1.00
C671   C     0.83319   0.83333   0.16430   0.00000  Uiso   1.00
C672   C     0.83345   0.83333   0.33570   0.00000  Uiso   1.00
C673   C     0.83797   0.79122   0.40733   0.00000  Uiso   1.00
C674   C     0.82820   0.87535   0.09266   0.00000  Uiso   1.00
C675   C     0.83347   0.83336   0.38411   0.00000  Uiso   1.00
C676   C     0.83289   0.83325   0.11589   0.00000  Uiso   1.00
C677   C     0.82885   0.87555   0.40720   0.00000  Uiso   1.00
C678   C     0.83738   0.79102   0.09281   0.00000  Uiso   1.00
C679   C     0.82831   0.87602   0.45350   0.00000  Uiso   1.00
C680   C     0.83764   0.79050   0.04650   0.00000  Uiso   1.00
C681   C     0.83305   0.83339   0.47675   0.00000  Uiso   1.00
C682   C     0.83284   0.83312   0.02324   0.00000  Uiso   1.00
C683   C     0.83797   0.79097   0.45350   0.00000  Uiso   1.00
C684   C     0.82796   0.87555   0.04649   0.00000  Uiso   1.00
C685   C     0.82268   0.91814   0.47693   0.00000  Uiso   1.00
C686   C     0.84314   0.74835   0.02307   0.00000  Uiso   1.00
Cu687  Cu    0.83333   0.88022   0.25000   0.00000  Uiso   1.00
Cu688  Cu    0.83333   0.78645   0.25000   0.00000  Uiso   1.00
H689   H     0.84169   0.75855   0.38953   0.00000  Uiso   1.00
H690   H     0.82458   0.90804   0.11045   0.00000  Uiso   1.00
H691   H     0.82527   0.90799   0.38900   0.00000  Uiso   1.00
H692   H     0.84114   0.75862   0.11103   0.00000  Uiso   1.00
H693   H     0.81953   0.95017   0.04125   0.00000  Uiso   1.00
H694   H     0.84608   0.71632   0.45869   0.00000  Uiso   1.00
H695   H     0.81027   0.70970   0.18431   0.00000  Uiso   1.00
H696   H     0.85649   0.95693   0.31566   0.00000  Uiso   1.00
H697   H     0.85582   0.70975   0.31589   0.00000  Uiso   1.00
H698   H     0.80968   0.95682   0.18455   0.00000  Uiso   1.00
N699   N     0.83333   0.95069   0.25000   0.00000  Uiso   1.00
N700   N     0.83333   0.71598   0.25000   0.00000  Uiso   1.00
O701   O     0.77321   0.87291   0.24999   0.00000  Uiso   1.00
O702   O     0.89345   0.79375   0.25000   0.00000  Uiso   1.00
O703   O     0.89345   0.87291   0.25000   0.00000  Uiso   1.00
O704   O     0.77321   0.79375   0.24999   0.00000  Uiso   1.00
O705   O     0.83332   0.87293   0.18513   0.00000  Uiso   1.00
O706   O     0.83334   0.79373   0.31487   0.00000  Uiso   1.00
O707   O     0.83334   0.87293   0.31487   0.00000  Uiso   1.00
O708   O     0.83332   0.79373   0.18513   0.00000  Uiso   1.00
O709   O     0.81961   0.96021   0.45448   0.00000  Uiso   1.00
C710   C     0.77859   0.97493   0.45520   0.00000  Uiso   1.00
H711   H     0.75782   0.94786   0.44096   0.00000  Uiso   1.00
H712   H     0.77569   0.67343   0.43436   0.00000  Uiso   1.00
H713   H     0.76895   0.98439   0.48935   0.00000  Uiso   1.00
O714   O     0.84610   0.70630   0.04560   0.00000  Uiso   1.00
C715   C     0.88676   0.69043   0.04351   0.00000  Uiso   1.00
H716   H     0.88976   0.99239   0.06495   0.00000  Uiso   1.00
H717   H     0.90859   0.71725   0.05621   0.00000  Uiso   1.00
H718   H     0.89494   0.67981   0.00921   0.00000  Uiso   1.00
S719   S     0.70780   0.74930   0.20186   0.00000  Uiso   1.00
O720   O     0.73017   0.71317   0.22868   0.00000  Uiso   1.00
O721   O     0.67380   0.72598   0.17650   0.00000  Uiso   1.00
O722   O     0.74011   0.77409   0.16550   0.00000  Uiso   1.00
H723   H     0.74880   0.74824   0.14586   0.00000  Uiso   1.00
S724   S     0.96037   0.93092   0.23248   0.00000  Uiso   1.00
O725   O     0.93693   0.95326   0.26954   0.00000  Uiso   1.00
O726   O     0.99462   0.96273   0.21877   0.00000  Uiso   1.00
O727   O     0.92957   0.92303   0.18827   0.00000  Uiso   1.00
H728   H     0.91539   0.95333   0.18427   0.00000  Uiso   1.00
S729   S     0.96058   0.73694   0.26973   0.00000  Uiso   1.00
O730   O     0.93512   0.71340   0.23463   0.00000  Uiso   1.00
O731   O     0.99521   0.70540   0.28284   0.00000  Uiso   1.00
O732   O     0.93204   0.74700   0.31497   0.00000  Uiso   1.00
H733   H     0.93058   0.71652   0.33053   0.00000  Uiso   1.00
S734   S     0.70919   0.91773   0.29804   0.00000  Uiso   1.00
O735   O     0.73204   0.95343   0.27118   0.00000  Uiso   1.00
O736   O     0.67589   0.94171   0.32345   0.00000  Uiso   1.00
O737   O     0.74138   0.89263   0.33451   0.00000  Uiso   1.00
H738   H     0.75379   0.91905   0.35105   0.00000  Uiso   1.00
C739   C     0.08746   0.16666   0.74998   0.00000  Uiso   1.00
C740   C     0.24611   0.16674   0.75004   0.00000  Uiso   1.00
C741   C     0.15640   0.25095   0.52334   0.00000  Uiso   1.00
C742   C     0.17604   0.08221   0.97664   0.00000  Uiso   1.00
C743   C     0.02092   0.12635   0.73761   0.00000  Uiso   1.00
C744   C     0.31339   0.20960   0.75111   0.00000  Uiso   1.00
C745   C     0.31315   0.12426   0.74898   0.00000  Uiso   1.00
C746   C     0.02134   0.20738   0.76239   0.00000  Uiso   1.00
C747   C     0.29101   0.16691   0.75003   0.00000  Uiso   1.00
C748   C     0.04299   0.16677   0.75000   0.00000  Uiso   1.00
C749   C     0.15403   0.02471   0.71354   0.00000  Uiso   1.00
C750   C     0.17931   0.30861   0.78645   0.00000  Uiso   1.00
C751   C     0.17915   0.02474   0.78650   0.00000  Uiso   1.00
C752   C     0.15377   0.30855   0.71364   0.00000  Uiso   1.00
C753   C     0.16653   0.16666   0.66430   0.00000  Uiso   1.00
C754   C     0.16678   0.16666   0.83570   0.00000  Uiso   1.00
C755   C     0.17131   0.12455   0.90733   0.00000  Uiso   1.00
C756   C     0.16153   0.20869   0.59266   0.00000  Uiso   1.00
C757   C     0.16681   0.16669   0.88411   0.00000  Uiso   1.00
C758   C     0.16623   0.16659   0.61589   0.00000  Uiso   1.00
C759   C     0.16218   0.20888   0.90720   0.00000  Uiso   1.00
C760   C     0.17071   0.12436   0.59281   0.00000  Uiso   1.00
C761   C     0.16165   0.20935   0.95350   0.00000  Uiso   1.00
C762   C     0.17097   0.12383   0.54650   0.00000  Uiso   1.00
C763   C     0.16638   0.16672   0.97675   0.00000  Uiso   1.00
C764   C     0.16617   0.16645   0.52324   0.00000  Uiso   1.00
C765   C     0.17130   0.12430   0.95350   0.00000  Uiso   1.00
C766   C     0.16129   0.20888   0.54649   0.00000  Uiso   1.00
C767   C     0.15602   0.25147   0.97693   0.00000  Uiso   1.00
C768   C     0.17647   0.08168   0.52307   0.00000  Uiso   1.00
Cu769  Cu    0.16667   0.21355   0.75000   0.00000  Uiso   1.00
Cu770  Cu    0.16667   0.11978   0.75000   0.00000  Uiso   1.00
H771   H     0.17503   0.09189   0.88953   0.00000  Uiso   1.00
H772   H     0.15791   0.24137   0.61045   0.00000  Uiso   1.00
H773   H     0.15860   0.24132   0.88900   0.00000  Uiso   1.00
H774   H     0.17448   0.09195   0.61103   0.00000  Uiso   1.00
H775   H     0.15286   0.28351   0.54125   0.00000  Uiso   1.00
H776   H     0.17942   0.04965   0.95869   0.00000  Uiso   1.00
H777   H     0.14361   0.04303   0.68431   0.00000  Uiso   1.00
H778   H     0.18982   0.29026   0.81566   0.00000  Uiso   1.00
H779   H     0.18915   0.04308   0.81589   0.00000  Uiso   1.00
H780   H     0.14301   0.29016   0.68455   0.00000  Uiso   1.00
N781   N     0.16667   0.28402   0.75000   0.00000  Uiso   1.00
N782   N     0.16667   0.04931   0.75000   0.00000  Uiso   1.00
O783   O     0.10655   0.20625   0.74999   0.00000  Uiso   1.00
O784   O     0.22679   0.12709   0.75000   0.00000  Uiso   1.00
O785   O     0.22679   0.20625   0.75000   0.00000  Uiso   1.00
O786   O     0.10655   0.12709   0.74999   0.00000  Uiso   1.00
O787   O     0.16666   0.20627   0.68513   0.00000  Uiso   1.00
O788   O     0.16668   0.12707   0.81487   0.00000  Uiso   1.00
O789   O     0.16668   0.20627   0.81487   0.00000  Uiso   1.00
O790   O     0.16666   0.12707   0.68513   0.00000  Uiso   1.00
O791   O     0.15294   0.29354   0.95448   0.00000  Uiso   1.00
C792   C     0.11192   0.30827   0.95520   0.00000  Uiso   1.00
H793   H     0.09115   0.28119   0.94096   0.00000  Uiso   1.00
H794   H     0.10903   0.00677   0.93436   0.00000  Uiso   1.00
H795   H     0.10229   0.31772   0.98935   0.00000  Uiso   1.00
O796   O     0.17944   0.03963   0.54560   0.00000  Uiso   1.00
C797   C     0.22009   0.02376   0.54351   0.00000  Uiso   1.00
H798   H     0.22310   0.32573   0.56495   0.00000  Uiso   1.00
H799   H     0.24192   0.05059   0.55621   0.00000  Uiso   1.00
H800   H     0.22827   0.01315   0.50921   0.00000  Uiso   1.00
S801   S     0.04113   0.08263   0.70186   0.00000  Uiso   1.00
O802   O     0.06350   0.04651   0.72868   0.00000  Uiso   1.00
O803   O     0.00713   0.05931   0.67650   0.00000  Uiso   1.00
O804   O     0.07344   0.10742   0.66550   0.00000  Uiso   1.00
H805   H     0.08213   0.08157   0.64586   0.00000  Uiso   1.00
S806   S     0.29370   0.26425   0.73248   0.00000  Uiso   1.00
O807   O     0.27026   0.28659   0.76954   0.00000  Uiso   1.00
O808   O     0.32795   0.29606   0.71877   0.00000  Uiso   1.00
O809   O     0.26290   0.25636   0.68827   0.00000  Uiso   1.00
H810   H     0.24873   0.28666   0.68427   0.00000  Uiso   1.00
S811   S     0.29391   0.07028   0.76973   0.00000  Uiso   1.00
O812   O     0.26846   0.04673   0.73463   0.00000  Uiso   1.00
O813   O     0.32854   0.03873   0.78284   0.00000  Uiso   1.00
O814   O     0.26537   0.08033   0.81497   0.00000  Uiso   1.00
H815   H     0.26392   0.04985   0.83053   0.00000  Uiso   1.00
S816   S     0.04252   0.25106   0.79804   0.00000  Uiso   1.00
O817   O     0.06537   0.28676   0.77118   0.00000  Uiso   1.00
O818   O     0.00923   0.27504   0.82345   0.00000  Uiso   1.00
O819   O     0.07471   0.22596   0.83451   0.00000  Uiso   1.00
H820   H     0.08712   0.25238   0.85105   0.00000  Uiso   1.00
C821   C     0.42080   0.16666   0.74998   0.00000  Uiso   1.00
C822   C     0.57944   0.16674   0.75004   0.00000  Uiso   1.00
C823   C     0.48973   0.25095   0.52334   0.00000  Uiso   1.00
C824   C     0.50938   0.08221   0.97664   0.00000  Uiso   1.00
C825   C     0.35425   0.12635   0.73761   0.00000  Uiso   1.00
C826   C     0.64672   0.20960   0.75111   0.00000  Uiso   1.00
C827   C     0.64648   0.12426   0.74898   0.00000  Uiso   1.00
C828   C     0.35468   0.20738   0.76239   0.00000  Uiso   1.00
C829   C     0.62434   0.16691   0.75003   0.00000  Uiso   1.00
C830   C     0.37632   0.16677   0.75000   0.00000  Uiso   1.00
C831   C     0.48736   0.02471   0.71354   0.00000  Uiso   1.00
C832   C     0.51264   0.30861   0.78645   0.00000  Uiso   1.00
C833   C     0.51249   0.02474   0.78650   0.00000  Uiso   1.00
C834   C     0.48710   0.30855   0.71364   0.00000  Uiso   1.00
C835   C     0.49986   0.16666   0.66430   0.00000  Uiso   1.00
C836   C     0.50011   0.16666   0.83570   0.00000  Uiso   1.00
C837   C     0.50464   0.12455   0.90733   0.00000  Uiso   1.00
C838   C     0.49486   0.20869   0.59266   0.00000  Uiso   1.00
C839   C     0.50014   0.16669   0.88411   0.00000  Uiso   1.00
C840   C     0.49956   0.16659   0.61589   0.00000  Uiso   1.00
C841   C     0.49552   0.20888   0.90720   0.00000  Uiso   1.00
C842   C     0.50404   0.12436   0.59281   0.00000  Uiso   1.00
C843   C     0.49498   0.20935   0.95350   0.00000  Uiso   1.00
C844   C     0.50430   0.12383   0.54650   0.00000  Uiso   1.00
C845   C     0.49972   0.16672   0.97675   0.00000  Uiso   1.00
C846   C     0.49951   0.16645   0.52324   0.00000  Uiso   1.00
C847   C     0.50463   0.12430   0.95350   0.00000  Uiso   1.00
C848   C     0.49463   0.20888   0.54649   0.00000  Uiso   1.00
C849   C     0.48935   0.25147   0.97693   0.00000  Uiso   1.00
C850   C     0.50981   0.08168   0.52307   0.00000  Uiso   1.00
Cu851  Cu    0.50000   0.21355   0.75000   0.00000  Uiso   1.00
Cu852  Cu    0.50000   0.11978   0.75000   0.00000  Uiso   1.00
H853   H     0.50836   0.09189   0.88953   0.00000  Uiso   1.00
H854   H     0.49124   0.24137   0.61045   0.00000  Uiso   1.00
H855   H     0.49194   0.24132   0.88900   0.00000  Uiso   1.00
H856   H     0.50781   0.09195   0.61103   0.00000  Uiso   1.00
H857   H     0.48619   0.28351   0.54125   0.00000  Uiso   1.00
H858   H     0.51275   0.04965   0.95869   0.00000  Uiso   1.00
H859   H     0.47694   0.04303   0.68431   0.00000  Uiso   1.00
H860   H     0.52316   0.29026   0.81566   0.00000  Uiso   1.00
H861   H     0.52248   0.04308   0.81589   0.00000  Uiso   1.00
H862   H     0.47635   0.29016   0.68455   0.00000  Uiso   1.00
N863   N     0.50000   0.28402   0.75000   0.00000  Uiso   1.00
N864   N     0.50000   0.04931   0.75000   0.00000  Uiso   1.00
O865   O     0.43988   0.20625   0.74999   0.00000  Uiso   1.00
O866   O     0.56012   0.12709   0.75000   0.00000  Uiso   1.00
O867   O     0.56012   0.20625   0.75000   0.00000  Uiso   1.00
O868   O     0.43988   0.12709   0.74999   0.00000  Uiso   1.00
O869   O     0.49999   0.20627   0.68513   0.00000  Uiso   1.00
O870   O     0.50001   0.12707   0.81487   0.00000  Uiso   1.00
O871   O     0.50001   0.20627   0.81487   0.00000  Uiso   1.00
O872   O     0.49999   0.12707   0.68513   0.00000  Uiso   1.00
O873   O     0.48628   0.29354   0.95448   0.00000  Uiso   1.00
C874   C     0.44526   0.30827   0.95520   0.00000  Uiso   1.00
H875   H     0.42448   0.28119   0.94096   0.00000  Uiso   1.00
H876   H     0.44236   0.00677   0.93436   0.00000  Uiso   1.00
H877   H     0.43562   0.31772   0.98935   0.00000  Uiso   1.00
O878   O     0.51277   0.03963   0.54560   0.00000  Uiso   1.00
C879   C     0.55342   0.02376   0.54351   0.00000  Uiso   1.00
H880   H     0.55643   0.32573   0.56495   0.00000  Uiso   1.00
H881   H     0.57525   0.05059   0.55621   0.00000  Uiso   1.00
H882   H     0.56160   0.01315   0.50921   0.00000  Uiso   1.00
S883   S     0.37447   0.08263   0.70186   0.00000  Uiso   1.00
O884   O     0.39684   0.04651   0.72868   0.00000  Uiso   1.00
O885   O     0.34046   0.05931   0.67650   0.00000  Uiso   1.00
O886   O     0.40677   0.10742   0.66550   0.00000  Uiso   1.00
H887   H     0.41547   0.08157   0.64586   0.00000  Uiso   1.00
S888   S     0.62704   0.26425   0.73248   0.00000  Uiso   1.00
O889   O     0.60360   0.28659   0.76954   0.00000  Uiso   1.00
O890   O     0.66128   0.29606   0.71877   0.00000  Uiso   1.00
O891   O     0.59623   0.25636   0.68827   0.00000  Uiso   1.00
H892   H     0.58206   0.28666   0.68427   0.00000  Uiso   1.00
S893   S     0.62725   0.07028   0.76973   0.00000  Uiso   1.00
O894   O     0.60179   0.04673   0.73463   0.00000  Uiso   1.00
O895   O     0.66187   0.03873   0.78284   0.00000  Uiso   1.00
O896   O     0.59870   0.08033   0.81497   0.00000  Uiso   1.00
H897   H     0.59725   0.04985   0.83053   0.00000  Uiso   1.00
S898   S     0.37586   0.25106   0.79804   0.00000  Uiso   1.00
O899   O     0.39870   0.28676   0.77118   0.00000  Uiso   1.00
O900   O     0.34256   0.27504   0.82345   0.00000  Uiso   1.00
O901   O     0.40805   0.22596   0.83451   0.00000  Uiso   1.00
H902   H     0.42046   0.25238   0.85105   0.00000  Uiso   1.00
C903   C     0.75413   0.16666   0.74998   0.00000  Uiso   1.00
C904   C     0.91277   0.16674   0.75004   0.00000  Uiso   1.00
C905   C     0.82306   0.25095   0.52334   0.00000  Uiso   1.00
C906   C     0.84271   0.08221   0.97664   0.00000  Uiso   1.00
C907   C     0.68758   0.12635   0.73761   0.00000  Uiso   1.00
C908   C     0.98005   0.20960   0.75111   0.00000  Uiso   1.00
C909   C     0.97982   0.12426   0.74898   0.00000  Uiso   1.00
C910   C     0.68801   0.20738   0.76239   0.00000  Uiso   1.00
C911   C     0.95768   0.16691   0.75003   0.00000  Uiso   1.00
C912   C     0.70965   0.16677   0.75000   0.00000  Uiso   1.00
C913   C     0.82070   0.02471   0.71354   0.00000  Uiso   1.00
C914   C     0.84598   0.30861   0.78645   0.00000  Uiso   1.00
C915   C     0.84582   0.02474   0.78650   0.00000  Uiso   1.00
C916   C     0.82043   0.30855   0.71364   0.00000  Uiso   1.00
C917   C     0.83319   0.16666   0.66430   0.00000  Uiso   1.00
C918   C     0.83345   0.16666   0.83570   0.00000  Uiso   1.00
C919   C     0.83797   0.12455   0.90733   0.00000  Uiso   1.00
C920   C     0.82820   0.20869   0.59266   0.00000  Uiso   1.00
C921   C     0.83347   0.16669   0.88411   0.00000  Uiso   1.00
C922   C     0.83289   0.16659   0.61589   0.00000  Uiso   1.00
C923   C     0.82885   0.20888   0.90720   0.00000  Uiso   1.00
C924   C     0.83738   0.12436   0.59281   0.00000  Uiso   1.00
C925   C     0.82831   0.20935   0.95350   0.00000  Uiso   1.00
C926   C     0.83764   0.12383   0.54650   0.00000  Uiso   1.00
C927   C     0.83305   0.16672   0.97675   0.00000  Uiso   1.00
C928   C     0.83284   0.16645   0.52324   0.00000  Uiso   1.00
C929   C     0.83797   0.12430   0.95350   0.00000  Uiso   1.00
C930   C     0.82796   0.20888   0.54649   0.00000  Uiso   1.00
C931   C     0.82268   0.25147   0.97693   0.00000  Uiso   1.00
C932   C     0.84314   0.08168   0.52307   0.00000  Uiso   1.00
Cu933  Cu    0.83333   0.21355   0.75000   0.00000  Uiso   1.00
Cu934  Cu    0.83333   0.11978   0.75000   0.00000  Uiso   1.00
H935   H     0.84169   0.09189   0.88953   0.00000  Uiso   1.00
H936   H     0.82458   0.24137   0.61045   0.00000  Uiso   1.00
H937   H     0.82527   0.24132   0.88900   0.00000  Uiso   1.00
H938   H     0.84114   0.09195   0.61103   0.00000  Uiso   1.00
H939   H     0.81953   0.28351   0.54125   0.00000  Uiso   1.00
H940   H     0.84608   0.04965   0.95869   0.00000  Uiso   1.00
H941   H     0.81027   0.04303   0.68431   0.00000  Uiso   1.00
H942   H     0.85649   0.29026   0.81566   0.00000  Uiso   1.00
H943   H     0.85582   0.04308   0.81589   0.00000  Uiso   1.00
H944   H     0.80968   0.29016   0.68455   0.00000  Uiso   1.00
N945   N     0.83333   0.28402   0.75000   0.00000  Uiso   1.00
N946   N     0.83333   0.04931   0.75000   0.00000  Uiso   1.00
O947   O     0.77321   0.20625   0.74999   0.00000  Uiso   1.00
O948   O     0.89345   0.12709   0.75000   0.00000  Uiso   1.00
O949   O     0.89345   0.20625   0.75000   0.00000  Uiso   1.00
O950   O     0.77321   0.12709   0.74999   0.00000  Uiso   1.00
O951   O     0.83332   0.20627   0.68513   0.00000  Uiso   1.00
O952   O     0.83334   0.12707   0.81487   0.00000  Uiso   1.00
O953   O     0.83334   0.20627   0.81487   0.00000  Uiso   1.00
O954   O     0.83332   0.12707   0.68513   0.00000  Uiso   1.00
O955   O     0.81961   0.29354   0.95448   0.00000  Uiso   1.00
C956   C     0.77859   0.30827   0.95520   0.00000  Uiso   1.00
H957   H     0.75782   0.28119   0.94096   0.00000  Uiso   1.00
H958   H     0.77569   0.00677   0.93436   0.00000  Uiso   1.00
H959   H     0.76895   0.31772   0.98935   0.00000  Uiso   1.00
O960   O     0.84610   0.03963   0.54560   0.00000  Uiso   1.00
C961   C     0.88676   0.02376   0.54351   0.00000  Uiso   1.00
H962   H     0.88976   0.32573   0.56495   0.00000  Uiso   1.00
H963   H     0.90859   0.05059   0.55621   0.00000  Uiso   1.00
H964   H     0.89494   0.01315   0.50921   0.00000  Uiso   1.00
S965   S     0.70780   0.08263   0.70186   0.00000  Uiso   1.00
O966   O     0.73017   0.04651   0.72868   0.00000  Uiso   1.00
O967   O     0.67380   0.05931   0.67650   0.00000  Uiso   1.00
O968   O     0.74011   0.10742   0.66550   0.00000  Uiso   1.00
H969   H     0.74880   0.08157   0.64586   0.00000  Uiso   1.00
S970   S     0.96037   0.26425   0.73248   0.00000  Uiso   1.00
O971   O     0.93693   0.28659   0.76954   0.00000  Uiso   1.00
O972   O     0.99462   0.29606   0.71877   0.00000  Uiso   1.00
O973   O     0.92957   0.25636   0.68827   0.00000  Uiso   1.00
H974   H     0.91539   0.28666   0.68427   0.00000  Uiso   1.00
S975   S     0.96058   0.07028   0.76973   0.00000  Uiso   1.00
O976   O     0.93512   0.04673   0.73463   0.00000  Uiso   1.00
O977   O     0.99521   0.03873   0.78284   0.00000  Uiso   1.00
O978   O     0.93204   0.08033   0.81497   0.00000  Uiso   1.00
H979   H     0.93058   0.04985   0.83053   0.00000  Uiso   1.00
S980   S     0.70919   0.25106   0.79804   0.00000  Uiso   1.00
O981   O     0.73204   0.28676   0.77118   0.00000  Uiso   1.00
O982   O     0.67589   0.27504   0.82345   0.00000  Uiso   1.00
O983   O     0.74138   0.22596   0.83451   0.00000  Uiso   1.00
H984   H     0.75379   0.25238   0.85105   0.00000  Uiso   1.00
C985   C     0.08746   0.49999   0.74998   0.00000  Uiso   1.00
C986   C     0.24611   0.50008   0.75004   0.00000  Uiso   1.00
C987   C     0.15640   0.58428   0.52334   0.00000  Uiso   1.00
C988   C     0.17604   0.41554   0.97664   0.00000  Uiso   1.00
C989   C     0.02092   0.45968   0.73761   0.00000  Uiso   1.00
C990   C     0.31339   0.54294   0.75111   0.00000  Uiso   1.00
C991   C     0.31315   0.45760   0.74898   0.00000  Uiso   1.00
C992   C     0.02134   0.54071   0.76239   0.00000  Uiso   1.00
C993   C     0.29101   0.50025   0.75003   0.00000  Uiso   1.00
C994   C     0.04299   0.50010   0.75000   0.00000  Uiso   1.00
C995   C     0.15403   0.35804   0.71354   0.00000  Uiso   1.00
C996   C     0.17931   0.64194   0.78645   0.00000  Uiso   1.00
C997   C     0.17915   0.35808   0.78650   0.00000  Uiso   1.00
C998   C     0.15377   0.64188   0.71364   0.00000  Uiso   1.00
C999   C     0.16653   0.50000   0.66430   0.00000  Uiso   1.00
C1000  C     0.16678   0.50000   0.83570   0.00000  Uiso   1.00
C1001  C     0.17131   0.45788   0.90733   0.00000  Uiso   1.00
C1002  C     0.16153   0.54202   0.59266   0.00000  Uiso   1.00
C1003  C     0.16681   0.50002   0.88411   0.00000  Uiso   1.00
C1004  C     0.16623   0.49992   0.61589   0.00000  Uiso   1.00
C1005  C     0.16218   0.54222   0.90720   0.00000  Uiso   1.00
C1006  C     0.17071   0.45769   0.59281   0.00000  Uiso   1.00
C1007  C     0.16165   0.54268   0.95350   0.00000  Uiso   1.00
C1008  C     0.17097   0.45716   0.54650   0.00000  Uiso   1.00
C1009  C     0.16638   0.50005   0.97675   0.00000  Uiso   1.00
C1010  C     0.16617   0.49979   0.52324   0.00000  Uiso   1.00
C1011  C     0.17130   0.45764   0.95350   0.00000  Uiso   1.00
C1012  C     0.16129   0.54222   0.54649   0.00000  Uiso   1.00
C1013  C     0.15602   0.58480   0.97693   0.00000  Uiso   1.00
C1014  C     0.17647   0.41501   0.52307   0.00000  Uiso   1.00
Cu1015 Cu    0.16667   0.54689   0.75000   0.00000  Uiso   1.00
Cu1016 Cu    0.16667   0.45311   0.75000   0.00000  Uiso   1.00
H1017  H     0.17503   0.42522   0.88953   0.00000  Uiso   1.00
H1018  H     0.15791   0.57470   0.61045   0.00000  Uiso   1.00
H1019  H     0.15860   0.57465   0.88900   0.00000  Uiso   1.00
H1020  H     0.17448   0.42529   0.61103   0.00000  Uiso   1.00
H1021  H     0.15286   0.61684   0.54125   0.00000  Uiso   1.00
H1022  H     0.17942   0.38299   0.95869   0.00000  Uiso   1.00
H1023  H     0.14361   0.37637   0.68431   0.00000  Uiso   1.00
H1024  H     0.18982   0.62360   0.81566   0.00000  Uiso   1.00
H1025  H     0.18915   0.37642   0.81589   0.00000  Uiso   1.00
H1026  H     0.14301   0.62349   0.68455   0.00000  Uiso   1.00
N1027  N     0.16667   0.61736   0.75000   0.00000  Uiso   1.00
N1028  N     0.16667   0.38264   0.75000   0.00000  Uiso   1.00
O1029  O     0.10655   0.53958   0.74999   0.00000  Uiso   1.00
O1030  O     0.22679   0.46042   0.75000   0.00000  Uiso   1.00
O1031  O     0.22679   0.53958   0.75000   0.00000  Uiso   1.00
O1032  O     0.10655   0.46042   0.74999   0.00000  Uiso   1.00
O1033  O     0.16666   0.53960   0.68513   0.00000  Uiso   1.00
O1034  O     0.16668   0.46040   0.81487   0.00000  Uiso   1.00
O1035  O     0.16668   0.53960   0.81487   0.00000  Uiso   1.00
O1036  O     0.16666   0.46040   0.68513   0.00000  Uiso   1.00
O1037  O     0.15294   0.62687   0.95448   0.00000  Uiso   1.00
C1038  C     0.11192   0.64160   0.95520   0.00000  Uiso   1.00
H1039  H     0.09115   0.61453   0.94096   0.00000  Uiso   1.00
H1040  H     0.10903   0.34010   0.93436   0.00000  Uiso   1.00
H1041  H     0.10229   0.65106   0.98935   0.00000  Uiso   1.00
O1042  O     0.17944   0.37296   0.54560   0.00000  Uiso   1.00
C1043  C     0.22009   0.35709   0.54351   0.00000  Uiso   1.00
H1044  H     0.22310   0.65906   0.56495   0.00000  Uiso   1.00
H1045  H     0.24192   0.38392   0.55621   0.00000  Uiso   1.00
H1046  H     0.22827   0.34648   0.50921   0.00000  Uiso   1.00
S1047  S     0.04113   0.41597   0.70186   0.00000  Uiso   1.00
O1048  O     0.06350   0.37984   0.72868   0.00000  Uiso   1.00
O1049  O     0.00713   0.39265   0.67650   0.00000  Uiso   1.00
O1050  O     0.07344   0.44076   0.66550   0.00000  Uiso   1.00
H1051  H     0.08213   0.41490   0.64586   0.00000  Uiso   1.00
S1052  S     0.29370   0.59759   0.73248   0.00000  Uiso   1.00
O1053  O     0.27026   0.61992   0.76954   0.00000  Uiso   1.00
O1054  O     0.32795   0.62940   0.71877   0.00000  Uiso   1.00
O1055  O     0.26290   0.58970   0.68827   0.00000  Uiso   1.00
H1056  H     0.24873   0.62000   0.68427   0.00000  Uiso   1.00
S1057  S     0.29391   0.40361   0.76973   0.00000  Uiso   1.00
O1058  O     0.26846   0.38006   0.73463   0.00000  Uiso   1.00
O1059  O     0.32854   0.37207   0.78284   0.00000  Uiso   1.00
O1060  O     0.26537   0.41367   0.81497   0.00000  Uiso   1.00
H1061  H     0.26392   0.38318   0.83053   0.00000  Uiso   1.00
S1062  S     0.04252   0.58440   0.79804   0.00000  Uiso   1.00
O1063  O     0.06537   0.62009   0.77118   0.00000  Uiso   1.00
O1064  O     0.00923   0.60837   0.82345   0.00000  Uiso   1.00
O1065  O     0.07471   0.55929   0.83451   0.00000  Uiso   1.00
H1066  H     0.08712   0.58572   0.85105   0.00000  Uiso   1.00
C1067  C     0.42080   0.49999   0.74998   0.00000  Uiso   1.00
C1068  C     0.57944   0.50008   0.75004   0.00000  Uiso   1.00
C1069  C     0.48973   0.58428   0.52334   0.00000  Uiso   1.00
C1070  C     0.50938   0.41554   0.97664   0.00000  Uiso   1.00
C1071  C     0.35425   0.45968   0.73761   0.00000  Uiso   1.00
C1072  C     0.64672   0.54294   0.75111   0.00000  Uiso   1.00
C1073  C     0.64648   0.45760   0.74898   0.00000  Uiso   1.00
C1074  C     0.35468   0.54071   0.76239   0.00000  Uiso   1.00
C1075  C     0.62434   0.50025   0.75003   0.00000  Uiso   1.00
C1076  C     0.37632   0.50010   0.75000   0.00000  Uiso   1.00
C1077  C     0.48736   0.35804   0.71354   0.00000  Uiso   1.00
C1078  C     0.51264   0.64194   0.78645   0.00000  Uiso   1.00
C1079  C     0.51249   0.35808   0.78650   0.00000  Uiso   1.00
C1080  C     0.48710   0.64188   0.71364   0.00000  Uiso   1.00
C1081  C     0.49986   0.50000   0.66430   0.00000  Uiso   1.00
C1082  C     0.50011   0.50000   0.83570   0.00000  Uiso   1.00
C1083  C     0.50464   0.45788   0.90733   0.00000  Uiso   1.00
C1084  C     0.49486   0.54202   0.59266   0.00000  Uiso   1.00
C1085  C     0.50014   0.50002   0.88411   0.00000  Uiso   1.00
C1086  C     0.49956   0.49992   0.61589   0.00000  Uiso   1.00
C1087  C     0.49552   0.54222   0.90720   0.00000  Uiso   1.00
C1088  C     0.50404   0.45769   0.59281   0.00000  Uiso   1.00
C1089  C     0.49498   0.54268   0.95350   0.00000  Uiso   1.00
C1090  C     0.50430   0.45716   0.54650   0.00000  Uiso   1.00
C1091  C     0.49972   0.50005   0.97675   0.00000  Uiso   1.00
C1092  C     0.49951   0.49979   0.52324   0.00000  Uiso   1.00
C1093  C     0.50463   0.45764   0.95350   0.00000  Uiso   1.00
C1094  C     0.49463   0.54222   0.54649   0.00000  Uiso   1.00
C1095  C     0.48935   0.58480   0.97693   0.00000  Uiso   1.00
C1096  C     0.50981   0.41501   0.52307   0.00000  Uiso   1.00
Cu1097 Cu    0.50000   0.54689   0.75000   0.00000  Uiso   1.00
Cu1098 Cu    0.50000   0.45311   0.75000   0.00000  Uiso   1.00
H1099  H     0.50836   0.42522   0.88953   0.00000  Uiso   1.00
H1100  H     0.49124   0.57470   0.61045   0.00000  Uiso   1.00
H1101  H     0.49194   0.57465   0.88900   0.00000  Uiso   1.00
H1102  H     0.50781   0.42529   0.61103   0.00000  Uiso   1.00
H1103  H     0.48619   0.61684   0.54125   0.00000  Uiso   1.00
H1104  H     0.51275   0.38299   0.95869   0.00000  Uiso   1.00
H1105  H     0.47694   0.37637   0.68431   0.00000  Uiso   1.00
H1106  H     0.52316   0.62360   0.81566   0.00000  Uiso   1.00
H1107  H     0.52248   0.37642   0.81589   0.00000  Uiso   1.00
H1108  H     0.47635   0.62349   0.68455   0.00000  Uiso   1.00
N1109  N     0.50000   0.61736   0.75000   0.00000  Uiso   1.00
N1110  N     0.50000   0.38264   0.75000   0.00000  Uiso   1.00
O1111  O     0.43988   0.53958   0.74999   0.00000  Uiso   1.00
O1112  O     0.56012   0.46042   0.75000   0.00000  Uiso   1.00
O1113  O     0.56012   0.53958   0.75000   0.00000  Uiso   1.00
O1114  O     0.43988   0.46042   0.74999   0.00000  Uiso   1.00
O1115  O     0.49999   0.53960   0.68513   0.00000  Uiso   1.00
O1116  O     0.50001   0.46040   0.81487   0.00000  Uiso   1.00
O1117  O     0.50001   0.53960   0.81487   0.00000  Uiso   1.00
O1118  O     0.49999   0.46040   0.68513   0.00000  Uiso   1.00
O1119  O     0.48628   0.62687   0.95448   0.00000  Uiso   1.00
C1120  C     0.44526   0.64160   0.95520   0.00000  Uiso   1.00
H1121  H     0.42448   0.61453   0.94096   0.00000  Uiso   1.00
H1122  H     0.44236   0.34010   0.93436   0.00000  Uiso   1.00
H1123  H     0.43562   0.65106   0.98935   0.00000  Uiso   1.00
O1124  O     0.51277   0.37296   0.54560   0.00000  Uiso   1.00
C1125  C     0.55342   0.35709   0.54351   0.00000  Uiso   1.00
H1126  H     0.55643   0.65906   0.56495   0.00000  Uiso   1.00
H1127  H     0.57525   0.38392   0.55621   0.00000  Uiso   1.00
H1128  H     0.56160   0.34648   0.50921   0.00000  Uiso   1.00
S1129  S     0.37447   0.41597   0.70186   0.00000  Uiso   1.00
O1130  O     0.39684   0.37984   0.72868   0.00000  Uiso   1.00
O1131  O     0.34046   0.39265   0.67650   0.00000  Uiso   1.00
O1132  O     0.40677   0.44076   0.66550   0.00000  Uiso   1.00
H1133  H     0.41547   0.41490   0.64586   0.00000  Uiso   1.00
S1134  S     0.62704   0.59759   0.73248   0.00000  Uiso   1.00
O1135  O     0.60360   0.61992   0.76954   0.00000  Uiso   1.00
O1136  O     0.66128   0.62940   0.71877   0.00000  Uiso   1.00
O1137  O     0.59623   0.58970   0.68827   0.00000  Uiso   1.00
H1138  H     0.58206   0.62000   0.68427   0.00000  Uiso   1.00
S1139  S     0.62725   0.40361   0.76973   0.00000  Uiso   1.00
O1140  O     0.60179   0.38006   0.73463   0.00000  Uiso   1.00
O1141  O     0.66187   0.37207   0.78284   0.00000  Uiso   1.00
O1142  O     0.59870   0.41367   0.81497   0.00000  Uiso   1.00
H1143  H     0.59725   0.38318   0.83053   0.00000  Uiso   1.00
S1144  S     0.37586   0.58440   0.79804   0.00000  Uiso   1.00
O1145  O     0.39870   0.62009   0.77118   0.00000  Uiso   1.00
O1146  O     0.34256   0.60837   0.82345   0.00000  Uiso   1.00
O1147  O     0.40805   0.55929   0.83451   0.00000  Uiso   1.00
H1148  H     0.42046   0.58572   0.85105   0.00000  Uiso   1.00
C1149  C     0.75413   0.49999   0.74998   0.00000  Uiso   1.00
C1150  C     0.91277   0.50008   0.75004   0.00000  Uiso   1.00
C1151  C     0.82306   0.58428   0.52334   0.00000  Uiso   1.00
C1152  C     0.84271   0.41554   0.97664   0.00000  Uiso   1.00
C1153  C     0.68758   0.45968   0.73761   0.00000  Uiso   1.00
C1154  C     0.98005   0.54294   0.75111   0.00000  Uiso   1.00
C1155  C     0.97982   0.45760   0.74898   0.00000  Uiso   1.00
C1156  C     0.68801   0.54071   0.76239   0.00000  Uiso   1.00
C1157  C     0.95768   0.50025   0.75003   0.00000  Uiso   1.00
C1158  C     0.70965   0.50010   0.75000   0.00000  Uiso   1.00
C1159  C     0.82070   0.35804   0.71354   0.00000  Uiso   1.00
C1160  C     0.84598   0.64194   0.78645   0.00000  Uiso   1.00
C1161  C     0.84582   0.35808   0.78650   0.00000  Uiso   1.00
C1162  C     0.82043   0.64188   0.71364   0.00000  Uiso   1.00
C1163  C     0.83319   0.50000   0.66430   0.00000  Uiso   1.00
C1164  C     0.83345   0.50000   0.83570   0.00000  Uiso   1.00
C1165  C     0.83797   0.45788   0.90733   0.00000  Uiso   1.00
C1166  C     0.82820   0.54202   0.59266   0.00000  Uiso   1.00
C1167  C     0.83347   0.50002   0.88411   0.00000  Uiso   1.00
C1168  C     0.83289   0.49992   0.61589   0.00000  Uiso   1.00
C1169  C     0.82885   0.54222   0.90720   0.00000  Uiso   1.00
C1170  C     0.83738   0.45769   0.59281   0.00000  Uiso   1.00
C1171  C     0.82831   0.54268   0.95350   0.00000  Uiso   1.00
C1172  C     0.83764   0.45716   0.54650   0.00000  Uiso   1.00
C1173  C     0.83305   0.50005   0.97675   0.00000  Uiso   1.00
C1174  C     0.83284   0.49979   0.52324   0.00000  Uiso   1.00
C1175  C     0.83797   0.45764   0.95350   0.00000  Uiso   1.00
C1176  C     0.82796   0.54222   0.54649   0.00000  Uiso   1.00
C1177  C     0.82268   0.58480   0.97693   0.00000  Uiso   1.00
C1178  C     0.84314   0.41501   0.52307   0.00000  Uiso   1.00
Cu1179 Cu    0.83333   0.54689   0.75000   0.00000  Uiso   1.00
Cu1180 Cu    0.83333   0.45311   0.75000   0.00000  Uiso   1.00
H1181  H     0.84169   0.42522   0.88953   0.00000  Uiso   1.00
H1182  H     0.82458   0.57470   0.61045   0.00000  Uiso   1.00
H1183  H     0.82527   0.57465   0.88900   0.00000  Uiso   1.00
H1184  H     0.84114   0.42529   0.61103   0.00000  Uiso   1.00
H1185  H     0.81953   0.61684   0.54125   0.00000  Uiso   1.00
H1186  H     0.84608   0.38299   0.95869   0.00000  Uiso   1.00
H1187  H     0.81027   0.37637   0.68431   0.00000  Uiso   1.00
H1188  H     0.85649   0.62360   0.81566   0.00000  Uiso   1.00
H1189  H     0.85582   0.37642   0.81589   0.00000  Uiso   1.00
H1190  H     0.80968   0.62349   0.68455   0.00000  Uiso   1.00
N1191  N     0.83333   0.61736   0.75000   0.00000  Uiso   1.00
N1192  N     0.83333   0.38264   0.75000   0.00000  Uiso   1.00
O1193  O     0.77321   0.53958   0.74999   0.00000  Uiso   1.00
O1194  O     0.89345   0.46042   0.75000   0.00000  Uiso   1.00
O1195  O     0.89345   0.53958   0.75000   0.00000  Uiso   1.00
O1196  O     0.77321   0.46042   0.74999   0.00000  Uiso   1.00
O1197  O     0.83332   0.53960   0.68513   0.00000  Uiso   1.00
O1198  O     0.83334   0.46040   0.81487   0.00000  Uiso   1.00
O1199  O     0.83334   0.53960   0.81487   0.00000  Uiso   1.00
O1200  O     0.83332   0.46040   0.68513   0.00000  Uiso   1.00
O1201  O     0.81961   0.62687   0.95448   0.00000  Uiso   1.00
C1202  C     0.77859   0.64160   0.95520   0.00000  Uiso   1.00
H1203  H     0.75782   0.61453   0.94096   0.00000  Uiso   1.00
H1204  H     0.77569   0.34010   0.93436   0.00000  Uiso   1.00
H1205  H     0.76895   0.65106   0.98935   0.00000  Uiso   1.00
O1206  O     0.84610   0.37296   0.54560   0.00000  Uiso   1.00
C1207  C     0.88676   0.35709   0.54351   0.00000  Uiso   1.00
H1208  H     0.88976   0.65906   0.56495   0.00000  Uiso   1.00
H1209  H     0.90859   0.38392   0.55621   0.00000  Uiso   1.00
H1210  H     0.89494   0.34648   0.50921   0.00000  Uiso   1.00
S1211  S     0.70780   0.41597   0.70186   0.00000  Uiso   1.00
O1212  O     0.73017   0.37984   0.72868   0.00000  Uiso   1.00
O1213  O     0.67380   0.39265   0.67650   0.00000  Uiso   1.00
O1214  O     0.74011   0.44076   0.66550   0.00000  Uiso   1.00
H1215  H     0.74880   0.41490   0.64586   0.00000  Uiso   1.00
S1216  S     0.96037   0.59759   0.73248   0.00000  Uiso   1.00
O1217  O     0.93693   0.61992   0.76954   0.00000  Uiso   1.00
O1218  O     0.99462   0.62940   0.71877   0.00000  Uiso   1.00
O1219  O     0.92957   0.58970   0.68827   0.00000  Uiso   1.00
H1220  H     0.91539   0.62000   0.68427   0.00000  Uiso   1.00
S1221  S     0.96058   0.40361   0.76973   0.00000  Uiso   1.00
O1222  O     0.93512   0.38006   0.73463   0.00000  Uiso   1.00
O1223  O     0.99521   0.37207   0.78284   0.00000  Uiso   1.00
O1224  O     0.93204   0.41367   0.81497   0.00000  Uiso   1.00
H1225  H     0.93058   0.38318   0.83053   0.00000  Uiso   1.00
S1226  S     0.70919   0.58440   0.79804   0.00000  Uiso   1.00
O1227  O     0.73204   0.62009   0.77118   0.00000  Uiso   1.00
O1228  O     0.67589   0.60837   0.82345   0.00000  Uiso   1.00
O1229  O     0.74138   0.55929   0.83451   0.00000  Uiso   1.00
H1230  H     0.75379   0.58572   0.85105   0.00000  Uiso   1.00
C1231  C     0.08746   0.83332   0.74998   0.00000  Uiso   1.00
C1232  C     0.24611   0.83341   0.75004   0.00000  Uiso   1.00
C1233  C     0.15640   0.91762   0.52334   0.00000  Uiso   1.00
C1234  C     0.17604   0.74888   0.97664   0.00000  Uiso   1.00
C1235  C     0.02092   0.79301   0.73761   0.00000  Uiso   1.00
C1236  C     0.31339   0.87627   0.75111   0.00000  Uiso   1.00
C1237  C     0.31315   0.79093   0.74898   0.00000  Uiso   1.00
C1238  C     0.02134   0.87405   0.76239   0.00000  Uiso   1.00
C1239  C     0.29101   0.83358   0.75003   0.00000  Uiso   1.00
C1240  C     0.04299   0.83344   0.75000   0.00000  Uiso   1.00
C1241  C     0.15403   0.69137   0.71354   0.00000  Uiso   1.00
C1242  C     0.17931   0.97527   0.78645   0.00000  Uiso   1.00
C1243  C     0.17915   0.69141   0.78650   0.00000  Uiso   1.00
C1244  C     0.15377   0.97522   0.71364   0.00000  Uiso   1.00
C1245  C     0.16653   0.83333   0.66430   0.00000  Uiso   1.00
C1246  C     0.16678   0.83333   0.83570   0.00000  Uiso   1.00
C1247  C     0.17131   0.79122   0.90733   0.00000  Uiso   1.00
C1248  C     0.16153   0.87535   0.59266   0.00000  Uiso   1.00
C1249  C     0.16681   0.83336   0.88411   0.00000  Uiso   1.00
C1250  C     0.16623   0.83325   0.61589   0.00000  Uiso   1.00
C1251  C     0.16218   0.87555   0.90720   0.00000  Uiso   1.00
C1252  C     0.17071   0.79102   0.59281   0.00000  Uiso   1.00
C1253  C     0.16165   0.87602   0.95350   0.00000  Uiso   1.00
C1254  C     0.17097   0.79050   0.54650   0.00000  Uiso   1.00
C1255  C     0.16638   0.83339   0.97675   0.00000  Uiso   1.00
C1256  C     0.16617   0.83312   0.52324   0.00000  Uiso   1.00
C1257  C     0.17130   0.79097   0.95350   0.00000  Uiso   1.00
C1258  C     0.16129   0.87555   0.54649   0.00000  Uiso   1.00
C1259  C     0.15602   0.91814   0.97693   0.00000  Uiso   1.00
C1260  C     0.17647   0.74835   0.52307   0.00000  Uiso   1.00
Cu1261 Cu    0.16667   0.88022   0.75000   0.00000  Uiso   1.00
Cu1262 Cu    0.16667   0.78645   0.75000   0.00000  Uiso   1.00
H1263  H     0.17503   0.75855   0.88953   0.00000  Uiso   1.00
H1264  H     0.15791   0.90804   0.61045   0.00000  Uiso   1.00
H1265  H     0.15860   0.90799   0.88900   0.00000  Uiso   1.00
H1266  H     0.17448   0.75862   0.61103   0.00000  Uiso   1.00
H1267  H     0.15286   0.95017   0.54125   0.00000  Uiso   1.00
H1268  H     0.17942   0.71632   0.95869   0.00000  Uiso   1.00
H1269  H     0.14361   0.70970   0.68431   0.00000  Uiso   1.00
H1270  H     0.18982   0.95693   0.81566   0.00000  Uiso   1.00
H1271  H     0.18915   0.70975   0.81589   0.00000  Uiso   1.00
H1272  H     0.14301   0.95682   0.68455   0.00000  Uiso   1.00
N1273  N     0.16667   0.95069   0.75000   0.00000  Uiso   1.00
N1274  N     0.16667   0.71598   0.75000   0.00000  Uiso   1.00
O1275  O     0.10655   0.87291   0.74999   0.00000  Uiso   1.00
O1276  O     0.22679   0.79375   0.75000   0.00000  Uiso   1.00
O1277  O     0.22679   0.87291   0.75000   0.00000  Uiso   1.00
O1278  O     0.10655   0.79375   0.74999   0.00000  Uiso   1.00
O1279  O     0.16666   0.87293   0.68513   0.00000  Uiso   1.00
O1280  O     0.16668   0.79373   0.81487   0.00000  Uiso   1.00
O1281  O     0.16668   0.87293   0.81487   0.00000  Uiso   1.00
O1282  O     0.16666   0.79373   0.68513   0.00000  Uiso   1.00
O1283  O     0.15294   0.96021   0.95448   0.00000  Uiso   1.00
C1284  C     0.11192   0.97493   0.95520   0.00000  Uiso   1.00
H1285  H     0.09115   0.94786   0.94096   0.00000  Uiso   1.00
H1286  H     0.10903   0.67343   0.93436   0.00000  Uiso   1.00
H1287  H     0.10229   0.98439   0.98935   0.00000  Uiso   1.00
O1288  O     0.17944   0.70630   0.54560   0.00000  Uiso   1.00
C1289  C     0.22009   0.69043   0.54351   0.00000  Uiso   1.00
H1290  H     0.22310   0.99239   0.56495   0.00000  Uiso   1.00
H1291  H     0.24192   0.71725   0.55621   0.00000  Uiso   1.00
H1292  H     0.22827   0.67981   0.50921   0.00000  Uiso   1.00
S1293  S     0.04113   0.74930   0.70186   0.00000  Uiso   1.00
O1294  O     0.06350   0.71317   0.72868   0.00000  Uiso   1.00
O1295  O     0.00713   0.72598   0.67650   0.00000  Uiso   1.00
O1296  O     0.07344   0.77409   0.66550   0.00000  Uiso   1.00
H1297  H     0.08213   0.74824   0.64586   0.00000  Uiso   1.00
S1298  S     0.29370   0.93092   0.73248   0.00000  Uiso   1.00
O1299  O     0.27026   0.95326   0.76954   0.00000  Uiso   1.00
O1300  O     0.32795   0.96273   0.71877   0.00000  Uiso   1.00
O1301  O     0.26290   0.92303   0.68827   0.00000  Uiso   1.00
H1302  H     0.24873   0.95333   0.68427   0.00000  Uiso   1.00
S1303  S     0.29391   0.73694   0.76973   0.00000  Uiso   1.00
O1304  O     0.26846   0.71340   0.73463   0.00000  Uiso   1.00
O1305  O     0.32854   0.70540   0.78284   0.00000  Uiso   1.00
O1306  O     0.26537   0.74700   0.81497   0.00000  Uiso   1.00
H1307  H     0.26392   0.71652   0.83053   0.00000  Uiso   1.00
S1308  S     0.04252   0.91773   0.79804   0.00000  Uiso   1.00
O1309  O     0.06537   0.95343   0.77118   0.00000  Uiso   1.00
O1310  O     0.00923   0.94171   0.82345   0.00000  Uiso   1.00
O1311  O     0.07471   0.89263   0.83451   0.00000  Uiso   1.00
H1312  H     0.08712   0.91905   0.85105   0.00000  Uiso   1.00
C1313  C     0.42080   0.83332   0.74998   0.00000  Uiso   1.00
C1314  C     0.57944   0.83341   0.75004   0.00000  Uiso   1.00
C1315  C     0.48973   0.91762   0.52334   0.00000  Uiso   1.00
C1316  C     0.50938   0.74888   0.97664   0.00000  Uiso   1.00
C1317  C     0.35425   0.79301   0.73761   0.00000  Uiso   1.00
C1318  C     0.64672   0.87627   0.75111   0.00000  Uiso   1.00
C1319  C     0.64648   0.79093   0.74898   0.00000  Uiso   1.00
C1320  C     0.35468   0.87405   0.76239   0.00000  Uiso   1.00
C1321  C     0.62434   0.83358   0.75003   0.00000  Uiso   1.00
C1322  C     0.37632   0.83344   0.75000   0.00000  Uiso   1.00
C1323  C     0.48736   0.69137   0.71354   0.00000  Uiso   1.00
C1324  C     0.51264   0.97527   0.78645   0.00000  Uiso   1.00
C1325  C     0.51249   0.69141   0.78650   0.00000  Uiso   1.00
C1326  C     0.48710   0.97522   0.71364   0.00000  Uiso   1.00
C1327  C     0.49986   0.83333   0.66430   0.00000  Uiso   1.00
C1328  C     0.50011   0.83333   0.83570   0.00000  Uiso   1.00
C1329  C     0.50464   0.79122   0.90733   0.00000  Uiso   1.00
C1330  C     0.49486   0.87535   0.59266   0.00000  Uiso   1.00
C1331  C     0.50014   0.83336   0.88411   0.00000  Uiso   1.00
C1332  C     0.49956   0.83325   0.61589   0.00000  Uiso   1.00
C1333  C     0.49552   0.87555   0.90720   0.00000  Uiso   1.00
C1334  C     0.50404   0.79102   0.59281   0.00000  Uiso   1.00
C1335  C     0.49498   0.87602   0.95350   0.00000  Uiso   1.00
C1336  C     0.50430   0.79050   0.54650   0.00000  Uiso   1.00
C1337  C     0.49972   0.83339   0.97675   0.00000  Uiso   1.00
C1338  C     0.49951   0.83312   0.52324   0.00000  Uiso   1.00
C1339  C     0.50463   0.79097   0.95350   0.00000  Uiso   1.00
C1340  C     0.49463   0.87555   0.54649   0.00000  Uiso   1.00
C1341  C     0.48935   0.91814   0.97693   0.00000  Uiso   1.00
C1342  C     0.50981   0.74835   0.52307   0.00000  Uiso   1.00
Cu1343 Cu    0.50000   0.88022   0.75000   0.00000  Uiso   1.00
Cu1344 Cu    0.50000   0.78645   0.75000   0.00000  Uiso   1.00
H1345  H     0.50836   0.75855   0.88953   0.00000  Uiso   1.00
H1346  H     0.49124   0.90804   0.61045   0.00000  Uiso   1.00
H1347  H     0.49194   0.90799   0.88900   0.00000  Uiso   1.00
H1348  H     0.50781   0.75862   0.61103   0.00000  Uiso   1.00
H1349  H     0.48619   0.95017   0.54125   0.00000  Uiso   1.00
H1350  H     0.51275   0.71632   0.95869   0.00000  Uiso   1.00
H1351  H     0.47694   0.70970   0.68431   0.00000  Uiso   1.00
H1352  H     0.52316   0.95693   0.81566   0.00000  Uiso   1.00
H1353  H     0.52248   0.70975   0.81589   0.00000  Uiso   1.00
H1354  H     0.47635   0.95682   0.68455   0.00000  Uiso   1.00
N1355  N     0.50000   0.95069   0.75000   0.00000  Uiso   1.00
N1356  N     0.50000   0.71598   0.75000   0.00000  Uiso   1.00
O1357  O     0.43988   0.87291   0.74999   0.00000  Uiso   1.00
O1358  O     0.56012   0.79375   0.75000   0.00000  Uiso   1.00
O1359  O     0.56012   0.87291   0.75000   0.00000  Uiso   1.00
O1360  O     0.43988   0.79375   0.74999   0.00000  Uiso   1.00
O1361  O     0.49999   0.87293   0.68513   0.00000  Uiso   1.00
O1362  O     0.50001   0.79373   0.81487   0.00000  Uiso   1.00
O1363  O     0.50001   0.87293   0.81487   0.00000  Uiso   1.00
O1364  O     0.49999   0.79373   0.68513   0.00000  Uiso   1.00
O1365  O     0.48628   0.96021   0.95448   0.00000  Uiso   1.00
C1366  C     0.44526   0.97493   0.95520   0.00000  Uiso   1.00
H1367  H     0.42448   0.94786   0.94096   0.00000  Uiso   1.00
H1368  H     0.44236   0.67343   0.93436   0.00000  Uiso   1.00
H1369  H     0.43562   0.98439   0.98935   0.00000  Uiso   1.00
O1370  O     0.51277   0.70630   0.54560   0.00000  Uiso   1.00
C1371  C     0.55342   0.69043   0.54351   0.00000  Uiso   1.00
H1372  H     0.55643   0.99239   0.56495   0.00000  Uiso   1.00
H1373  H     0.57525   0.71725   0.55621   0.00000  Uiso   1.00
H1374  H     0.56160   0.67981   0.50921   0.00000  Uiso   1.00
S1375  S     0.37447   0.74930   0.70186   0.00000  Uiso   1.00
O1376  O     0.39684   0.71317   0.72868   0.00000  Uiso   1.00
O1377  O     0.34046   0.72598   0.67650   0.00000  Uiso   1.00
O1378  O     0.40677   0.77409   0.66550   0.00000  Uiso   1.00
H1379  H     0.41547   0.74824   0.64586   0.00000  Uiso   1.00
S1380  S     0.62704   0.93092   0.73248   0.00000  Uiso   1.00
O1381  O     0.60360   0.95326   0.76954   0.00000  Uiso   1.00
O1382  O     0.66128   0.96273   0.71877   0.00000  Uiso   1.00
O1383  O     0.59623   0.92303   0.68827   0.00000  Uiso   1.00
H1384  H     0.58206   0.95333   0.68427   0.00000  Uiso   1.00
S1385  S     0.62725   0.73694   0.76973   0.00000  Uiso   1.00
O1386  O     0.60179   0.71340   0.73463   0.00000  Uiso   1.00
O1387  O     0.66187   0.70540   0.78284   0.00000  Uiso   1.00
O1388  O     0.59870   0.74700   0.81497   0.00000  Uiso   1.00
H1389  H     0.59725   0.71652   0.83053   0.00000  Uiso   1.00
S1390  S     0.37586   0.91773   0.79804   0.00000  Uiso   1.00
O1391  O     0.39870   0.95343   0.77118   0.00000  Uiso   1.00
O1392  O     0.34256   0.94171   0.82345   0.00000  Uiso   1.00
O1393  O     0.40805   0.89263   0.83451   0.00000  Uiso   1.00
H1394  H     0.42046   0.91905   0.85105   0.00000  Uiso   1.00
C1395  C     0.75413   0.83332   0.74998   0.00000  Uiso   1.00
C1396  C     0.91277   0.83341   0.75004   0.00000  Uiso   1.00
C1397  C     0.82306   0.91762   0.52334   0.00000  Uiso   1.00
C1398  C     0.84271   0.74888   0.97664   0.00000  Uiso   1.00
C1399  C     0.68758   0.79301   0.73761   0.00000  Uiso   1.00
C1400  C     0.98005   0.87627   0.75111   0.00000  Uiso   1.00
C1401  C     0.97982   0.79093   0.74898   0.00000  Uiso   1.00
C1402  C     0.68801   0.87405   0.76239   0.00000  Uiso   1.00
C1403  C     0.95768   0.83358   0.75003   0.00000  Uiso   1.00
C1404  C     0.70965   0.83344   0.75000   0.00000  Uiso   1.00
C1405  C     0.82070   0.69137   0.71354   0.00000  Uiso   1.00
C1406  C     0.84598   0.97527   0.78645   0.00000  Uiso   1.00
C1407  C     0.84582   0.69141   0.78650   0.00000  Uiso   1.00
C1408  C     0.82043   0.97522   0.71364   0.00000  Uiso   1.00
C1409  C     0.83319   0.83333   0.66430   0.00000  Uiso   1.00
C1410  C     0.83345   0.83333   0.83570   0.00000  Uiso   1.00
C1411  C     0.83797   0.79122   0.90733   0.00000  Uiso   1.00
C1412  C     0.82820   0.87535   0.59266   0.00000  Uiso   1.00
C1413  C     0.83347   0.83336   0.88411   0.00000  Uiso   1.00
C1414  C     0.83289   0.83325   0.61589   0.00000  Uiso   1.00
C1415  C     0.82885   0.87555   0.90720   0.00000  Uiso   1.00
C1416  C     0.83738   0.79102   0.59281   0.00000  Uiso   1.00
C1417  C     0.82831   0.87602   0.95350   0.00000  Uiso   1.00
C1418  C     0.83764   0.79050   0.54650   0.00000  Uiso   1.00
C1419  C     0.83305   0.83339   0.97675   0.00000  Uiso   1.00
C1420  C     0.83284   0.83312   0.52324   0.00000  Uiso   1.00
C1421  C     0.83797   0.79097   0.95350   0.00000  Uiso   1.00
C1422  C     0.82796   0.87555   0.54649   0.00000  Uiso   1.00
C1423  C     0.82268   0.91814   0.97693   0.00000  Uiso   1.00
C1424  C     0.84314   0.74835   0.52307   0.00000  Uiso   1.00
Cu1425 Cu    0.83333   0.88022   0.75000   0.00000  Uiso   1.00
Cu1426 Cu    0.83333   0.78645   0.75000   0.00000  Uiso   1.00
H1427  H     0.84169   0.75855   0.88953   0.00000  Uiso   1.00
H1428  H     0.82458   0.90804   0.61045   0.00000  Uiso   1.00
H1429  H     0.82527   0.90799   0.88900   0.00000  Uiso   1.00
H1430  H     0.84114   0.75862   0.61103   0.00000  Uiso   1.00
H1431  H     0.81953   0.95017   0.54125   0.00000  Uiso   1.00
H1432  H     0.84608   0.71632   0.95869   0.00000  Uiso   1.00
H1433  H     0.81027   0.70970   0.68431   0.00000  Uiso   1.00
H1434  H     0.85649   0.95693   0.81566   0.00000  Uiso   1.00
H1435  H     0.85582   0.70975   0.81589   0.00000  Uiso   1.00
H1436  H     0.80968   0.95682   0.68455   0.00000  Uiso   1.00
N1437  N     0.83333   0.95069   0.75000   0.00000  Uiso   1.00
N1438  N     0.83333   0.71598   0.75000   0.00000  Uiso   1.00
O1439  O     0.77321   0.87291   0.74999   0.00000  Uiso   1.00
O1440  O     0.89345   0.79375   0.75000   0.00000  Uiso   1.00
O1441  O     0.89345   0.87291   0.75000   0.00000  Uiso   1.00
O1442  O     0.77321   0.79375   0.74999   0.00000  Uiso   1.00
O1443  O     0.83332   0.87293   0.68513   0.00000  Uiso   1.00
O1444  O     0.83334   0.79373   0.81487   0.00000  Uiso   1.00
O1445  O     0.83334   0.87293   0.81487   0.00000  Uiso   1.00
O1446  O     0.83332   0.79373   0.68513   0.00000  Uiso   1.00
O1447  O     0.81961   0.96021   0.95448   0.00000  Uiso   1.00
C1448  C     0.77859   0.97493   0.95520   0.00000  Uiso   1.00
H1449  H     0.75782   0.94786   0.94096   0.00000  Uiso   1.00
H1450  H     0.77569   0.67343   0.93436   0.00000  Uiso   1.00
H1451  H     0.76895   0.98439   0.98935   0.00000  Uiso   1.00
O1452  O     0.84610   0.70630   0.54560   0.00000  Uiso   1.00
C1453  C     0.88676   0.69043   0.54351   0.00000  Uiso   1.00
H1454  H     0.88976   0.99239   0.56495   0.00000  Uiso   1.00
H1455  H     0.90859   0.71725   0.55621   0.00000  Uiso   1.00
H1456  H     0.89494   0.67981   0.50921   0.00000  Uiso   1.00
S1457  S     0.70780   0.74930   0.70186   0.00000  Uiso   1.00
O1458  O     0.73017   0.71317   0.72868   0.00000  Uiso   1.00
O1459  O     0.67380   0.72598   0.67650   0.00000  Uiso   1.00
O1460  O     0.74011   0.77409   0.66550   0.00000  Uiso   1.00
H1461  H     0.74880   0.74824   0.64586   0.00000  Uiso   1.00
S1462  S     0.96037   0.93092   0.73248   0.00000  Uiso   1.00
O1463  O     0.93693   0.95326   0.76954   0.00000  Uiso   1.00
O1464  O     0.99462   0.96273   0.71877   0.00000  Uiso   1.00
O1465  O     0.92957   0.92303   0.68827   0.00000  Uiso   1.00
H1466  H     0.91539   0.95333   0.68427   0.00000  Uiso   1.00
S1467  S     0.96058   0.73694   0.76973   0.00000  Uiso   1.00
O1468  O     0.93512   0.71340   0.73463   0.00000  Uiso   1.00
O1469  O     0.99521   0.70540   0.78284   0.00000  Uiso   1.00
O1470  O     0.93204   0.74700   0.81497   0.00000  Uiso   1.00
H1471  H     0.93058   0.71652   0.83053   0.00000  Uiso   1.00
S1472  S     0.70919   0.91773   0.79804   0.00000  Uiso   1.00
O1473  O     0.73204   0.95343   0.77118   0.00000  Uiso   1.00
O1474  O     0.67589   0.94171   0.82345   0.00000  Uiso   1.00
O1475  O     0.74138   0.89263   0.83451   0.00000  Uiso   1.00
H1476  H     0.75379   0.91905   0.85105   0.00000  Uiso   1.00
loop_
_geom_bond_atom_site_label_1
_geom_bond_atom_site_label_2
_geom_bond_distance
_geom_bond_site_symmetry_2
_ccdc_geom_bond_type
C1     C10     1.457   .     S
C1     O48     1.294   .     A
C1     O45     1.291   .     A
C2     O46     1.297   .     A
C2     O47     1.296   .     A
C2     C9      1.471   .     S
C3     C28     1.399   .     A
C3     H37     1.083   .     S
C3     C767    1.400   1_554 S
C4     C27     1.399   .     A
C4     H38     1.083   .     S
C4     C768    1.400   .     S
C5     S63     1.781   .     S
C5     C10     1.411   .     A
C5     C171    1.392   1_455 S
C6     C9      1.422   .     A
C6     S68     1.781   .     S
C6     C90     1.395   .     S
C7     S73     1.780   .     S
C7     C9      1.420   .     A
C7     C87     1.392   .     S
C8     S78     1.785   .     S
C8     C10     1.413   .     A
C8     C170    1.395   1_455 S
C11    N44     1.367   .     A
C11    H39     1.080   .     S
C11    C506    1.414   1_545 S
C12    N43     1.367   .     A
C12    H40     1.080   .     S
C12    C259    1.414   .     S
C13    H41     1.079   .     S
C13    N44     1.367   .     A
C13    C504    1.414   1_545 S
C14    H42     1.080   .     S
C14    N43     1.367   .     A
C14    C257    1.414   .     S
C15    C20     1.460   .     S
C15    O52     1.294   .     A
C15    O49     1.295   .     A
C16    O51     1.294   .     A
C16    O50     1.294   .     A
C16    C19     1.460   .     S
C17    H33     1.084   .     S
C17    C27     1.392   .     A
C17    C19     1.401   .     A
C18    C28     1.392   .     A
C18    H34     1.084   .     S
C18    C20     1.400   .     A
C19    C21     1.401   .     A
C20    C22     1.402   .     A
C21    C23     1.396   .     A
C21    H35     1.083   .     S
C22    C24     1.397   .     A
C22    H36     1.084   .     S
C23    C29     1.409   .     A
C23    C25     1.414   .     A
C24    C26     1.414   .     A
C24    C30     1.409   .     A
C25    C27     1.410   .     A
C25    C764    1.402   .     S
C26    C28     1.411   .     A
C26    C763    1.402   1_554 S
C29    O53     1.383   .     S
C29    C741    1.400   .     S
C30    O58     1.384   .     S
C30    C742    1.400   1_554 S
Cu31   N43     2.014   .     S
Cu31   O47     1.982   .     S
Cu31   O49     1.967   .     S
Cu31   O51     1.967   .     S
Cu31   Cu32    2.680   .     S
Cu31   O45     1.981   .     S
Cu32   O48     1.982   .     S
Cu32   O52     1.967   .     S
Cu32   N44     2.014   .     S
Cu32   O50     1.967   .     S
Cu32   O46     1.981   .     S
O53    C54     1.410   .     S
C54    H55     1.114   .     S
C54    H57     1.112   .     S
C54    H302    1.109   .     S
H56    C546    1.109   1_545 S
O58    C59     1.410   .     S
C59    H61     1.114   .     S
C59    H62     1.112   .     S
C59    H552    1.109   1_545 S
H60    C305    1.109   .     S
S63    O65     1.503   .     D
S63    O66     1.683   .     S
S63    O64     1.502   .     D
O66    H67     0.990   .     S
S68    O69     1.502   .     D
S68    O71     1.683   .     S
S68    O70     1.502   .     D
O71    H72     0.991   .     S
S73    O74     1.503   .     D
S73    O75     1.502   .     D
S73    O76     1.683   .     S
O76    H77     0.991   .     S
S78    O80     1.503   .     D
S78    O79     1.503   .     D
S78    O81     1.682   .     S
O81    H82     0.991   .     S
C83    C92     1.457   .     S
C83    O130    1.294   .     A
C83    O127    1.291   .     A
C84    O128    1.297   .     A
C84    O129    1.296   .     A
C84    C91     1.471   .     S
C85    C110    1.399   .     A
C85    H119    1.083   .     S
C85    C849    1.400   1_554 S
C86    C109    1.399   .     A
C86    H120    1.083   .     S
C86    C850    1.400   .     S
C87    S145    1.781   .     S
C87    C92     1.411   .     A
C88    C91     1.422   .     A
C88    S150    1.781   .     S
C88    C172    1.395   .     S
C89    S155    1.780   .     S
C89    C91     1.420   .     A
C89    C169    1.392   .     S
C90    S160    1.785   .     S
C90    C92     1.413   .     A
C93    N126    1.367   .     A
C93    H121    1.080   .     S
C93    C588    1.414   1_545 S
C94    N125    1.367   .     A
C94    H122    1.080   .     S
C94    C341    1.414   .     S
C95    H123    1.079   .     S
C95    N126    1.367   .     A
C95    C586    1.414   1_545 S
C96    H124    1.080   .     S
C96    N125    1.367   .     A
C96    C339    1.414   .     S
C97    C102    1.460   .     S
C97    O134    1.294   .     A
C97    O131    1.295   .     A
C98    O133    1.294   .     A
C98    O132    1.294   .     A
C98    C101    1.460   .     S
C99    H115    1.084   .     S
C99    C109    1.392   .     A
C99    C101    1.401   .     A
C100   C110    1.392   .     A
C100   H116    1.084   .     S
C100   C102    1.400   .     A
C101   C103    1.401   .     A
C102   C104    1.402   .     A
C103   C105    1.396   .     A
C103   H117    1.083   .     S
C104   C106    1.397   .     A
C104   H118    1.084   .     S
C105   C111    1.409   .     A
C105   C107    1.414   .     A
C106   C108    1.414   .     A
C106   C112    1.409   .     A
C107   C109    1.410   .     A
C107   C846    1.402   .     S
C108   C110    1.411   .     A
C108   C845    1.402   1_554 S
C111   O135    1.383   .     S
C111   C823    1.400   .     S
C112   O140    1.384   .     S
C112   C824    1.400   1_554 S
Cu113  N125    2.014   .     S
Cu113  O129    1.982   .     S
Cu113  O131    1.967   .     S
Cu113  O133    1.967   .     S
Cu113  Cu114   2.680   .     S
Cu113  O127    1.981   .     S
Cu114  O130    1.982   .     S
Cu114  O134    1.967   .     S
Cu114  N126    2.014   .     S
Cu114  O132    1.967   .     S
Cu114  O128    1.981   .     S
O135   C136    1.410   .     S
C136   H137    1.114   .     S
C136   H139    1.112   .     S
C136   H384    1.109   .     S
H138   C628    1.109   1_545 S
O140   C141    1.410   .     S
C141   H143    1.114   .     S
C141   H144    1.112   .     S
C141   H634    1.109   1_545 S
H142   C387    1.109   .     S
S145   O147    1.503   .     D
S145   O148    1.683   .     S
S145   O146    1.502   .     D
O148   H149    0.990   .     S
S150   O151    1.502   .     D
S150   O153    1.683   .     S
S150   O152    1.502   .     D
O153   H154    0.991   .     S
S155   O156    1.503   .     D
S155   O157    1.502   .     D
S155   O158    1.683   .     S
O158   H159    0.991   .     S
S160   O162    1.503   .     D
S160   O161    1.503   .     D
S160   O163    1.682   .     S
O163   H164    0.991   .     S
C165   C174    1.457   .     S
C165   O212    1.294   .     A
C165   O209    1.291   .     A
C166   O210    1.297   .     A
C166   O211    1.296   .     A
C166   C173    1.471   .     S
C167   C192    1.399   .     A
C167   H201    1.083   .     S
C167   C931    1.400   1_554 S
C168   C191    1.399   .     A
C168   H202    1.083   .     S
C168   C932    1.400   .     S
C169   S227    1.781   .     S
C169   C174    1.411   .     A
C170   C173    1.422   .     A
C170   S232    1.781   .     S
C170   C8      1.395   1_655 S
C171   S237    1.780   .     S
C171   C173    1.420   .     A
C171   C5      1.392   1_655 S
C172   S242    1.785   .     S
C172   C174    1.413   .     A
C175   N208    1.367   .     A
C175   H203    1.080   .     S
C175   C670    1.414   1_545 S
C176   N207    1.367   .     A
C176   H204    1.080   .     S
C176   C423    1.414   .     S
C177   H205    1.079   .     S
C177   N208    1.367   .     A
C177   C668    1.414   1_545 S
C178   H206    1.080   .     S
C178   N207    1.367   .     A
C178   C421    1.414   .     S
C179   C184    1.460   .     S
C179   O216    1.294   .     A
C179   O213    1.295   .     A
C180   O215    1.294   .     A
C180   O214    1.294   .     A
C180   C183    1.460   .     S
C181   H197    1.084   .     S
C181   C191    1.392   .     A
C181   C183    1.401   .     A
C182   C192    1.392   .     A
C182   H198    1.084   .     S
C182   C184    1.400   .     A
C183   C185    1.401   .     A
C184   C186    1.402   .     A
C185   C187    1.396   .     A
C185   H199    1.083   .     S
C186   C188    1.397   .     A
C186   H200    1.084   .     S
C187   C193    1.409   .     A
C187   C189    1.414   .     A
C188   C190    1.414   .     A
C188   C194    1.409   .     A
C189   C191    1.410   .     A
C189   C928    1.402   .     S
C190   C192    1.411   .     A
C190   C927    1.402   1_554 S
C193   O217    1.383   .     S
C193   C905    1.400   .     S
C194   O222    1.384   .     S
C194   C906    1.400   1_554 S
Cu195  N207    2.014   .     S
Cu195  O211    1.982   .     S
Cu195  O213    1.967   .     S
Cu195  O215    1.967   .     S
Cu195  Cu196   2.680   .     S
Cu195  O209    1.981   .     S
Cu196  O212    1.982   .     S
Cu196  O216    1.967   .     S
Cu196  N208    2.014   .     S
Cu196  O214    1.967   .     S
Cu196  O210    1.981   .     S
O217   C218    1.410   .     S
C218   H219    1.114   .     S
C218   H221    1.112   .     S
C218   H466    1.109   .     S
H220   C710    1.109   1_545 S
O222   C223    1.410   .     S
C223   H225    1.114   .     S
C223   H226    1.112   .     S
C223   H716    1.109   1_545 S
H224   C469    1.109   .     S
S227   O229    1.503   .     D
S227   O230    1.683   .     S
S227   O228    1.502   .     D
O230   H231    0.990   .     S
S232   O233    1.502   .     D
S232   O235    1.683   .     S
S232   O234    1.502   .     D
O235   H236    0.991   .     S
S237   O238    1.503   .     D
S237   O239    1.502   .     D
S237   O240    1.683   .     S
O240   H241    0.991   .     S
S242   O244    1.503   .     D
S242   O243    1.503   .     D
S242   O245    1.682   .     S
O245   H246    0.991   .     S
C247   C256    1.457   .     S
C247   O294    1.294   .     A
C247   O291    1.291   .     A
C248   O292    1.297   .     A
C248   O293    1.296   .     A
C248   C255    1.471   .     S
C249   C274    1.399   .     A
C249   H283    1.083   .     S
C249   C1013   1.400   1_554 S
C250   C273    1.399   .     A
C250   H284    1.083   .     S
C250   C1014   1.400   .     S
C251   S309    1.781   .     S
C251   C256    1.411   .     A
C251   C417    1.392   1_455 S
C252   C255    1.422   .     A
C252   S314    1.781   .     S
C252   C336    1.395   .     S
C253   S319    1.780   .     S
C253   C255    1.420   .     A
C253   C333    1.392   .     S
C254   S324    1.785   .     S
C254   C256    1.413   .     A
C254   C416    1.395   1_455 S
C257   N290    1.367   .     A
C257   H285    1.080   .     S
C258   N289    1.367   .     A
C258   H286    1.080   .     S
C258   C505    1.414   .     S
C259   H287    1.079   .     S
C259   N290    1.367   .     A
C260   H288    1.080   .     S
C260   N289    1.367   .     A
C260   C503    1.414   .     S
C261   C266    1.460   .     S
C261   O298    1.294   .     A
C261   O295    1.295   .     A
C262   O297    1.294   .     A
C262   O296    1.294   .     A
C262   C265    1.460   .     S
C263   H279    1.084   .     S
C263   C273    1.392   .     A
C263   C265    1.401   .     A
C264   C274    1.392   .     A
C264   H280    1.084   .     S
C264   C266    1.400   .     A
C265   C267    1.401   .     A
C266   C268    1.402   .     A
C267   C269    1.396   .     A
C267   H281    1.083   .     S
C268   C270    1.397   .     A
C268   H282    1.084   .     S
C269   C275    1.409   .     A
C269   C271    1.414   .     A
C270   C272    1.414   .     A
C270   C276    1.409   .     A
C271   C273    1.410   .     A
C271   C1010   1.402   .     S
C272   C274    1.411   .     A
C272   C1009   1.402   1_554 S
C275   O299    1.383   .     S
C275   C987    1.400   .     S
C276   O304    1.384   .     S
C276   C988    1.400   1_554 S
Cu277  N289    2.014   .     S
Cu277  O293    1.982   .     S
Cu277  O295    1.967   .     S
Cu277  O297    1.967   .     S
Cu277  Cu278   2.680   .     S
Cu277  O291    1.981   .     S
Cu278  O294    1.982   .     S
Cu278  O298    1.967   .     S
Cu278  N290    2.014   .     S
Cu278  O296    1.967   .     S
Cu278  O292    1.981   .     S
O299   C300    1.410   .     S
C300   H301    1.114   .     S
C300   H303    1.112   .     S
C300   H548    1.109   .     S
O304   C305    1.410   .     S
C305   H307    1.114   .     S
C305   H308    1.112   .     S
H306   C551    1.109   .     S
S309   O311    1.503   .     D
S309   O312    1.683   .     S
S309   O310    1.502   .     D
O312   H313    0.990   .     S
S314   O315    1.502   .     D
S314   O317    1.683   .     S
S314   O316    1.502   .     D
O317   H318    0.991   .     S
S319   O320    1.503   .     D
S319   O321    1.502   .     D
S319   O322    1.683   .     S
O322   H323    0.991   .     S
S324   O326    1.503   .     D
S324   O325    1.503   .     D
S324   O327    1.682   .     S
O327   H328    0.991   .     S
C329   C338    1.457   .     S
C329   O376    1.294   .     A
C329   O373    1.291   .     A
C330   O374    1.297   .     A
C330   O375    1.296   .     A
C330   C337    1.471   .     S
C331   C356    1.399   .     A
C331   H365    1.083   .     S
C331   C1095   1.400   1_554 S
C332   C355    1.399   .     A
C332   H366    1.083   .     S
C332   C1096   1.400   .     S
C333   S391    1.781   .     S
C333   C338    1.411   .     A
C334   C337    1.422   .     A
C334   S396    1.781   .     S
C334   C418    1.395   .     S
C335   S401    1.780   .     S
C335   C337    1.420   .     A
C335   C415    1.392   .     S
C336   S406    1.785   .     S
C336   C338    1.413   .     A
C339   N372    1.367   .     A
C339   H367    1.080   .     S
C340   N371    1.367   .     A
C340   H368    1.080   .     S
C340   C587    1.414   .     S
C341   H369    1.079   .     S
C341   N372    1.367   .     A
C342   H370    1.080   .     S
C342   N371    1.367   .     A
C342   C585    1.414   .     S
C343   C348    1.460   .     S
C343   O380    1.294   .     A
C343   O377    1.295   .     A
C344   O379    1.294   .     A
C344   O378    1.294   .     A
C344   C347    1.460   .     S
C345   H361    1.084   .     S
C345   C355    1.392   .     A
C345   C347    1.401   .     A
C346   C356    1.392   .     A
C346   H362    1.084   .     S
C346   C348    1.400   .     A
C347   C349    1.401   .     A
C348   C350    1.402   .     A
C349   C351    1.396   .     A
C349   H363    1.083   .     S
C350   C352    1.397   .     A
C350   H364    1.084   .     S
C351   C357    1.409   .     A
C351   C353    1.414   .     A
C352   C354    1.414   .     A
C352   C358    1.409   .     A
C353   C355    1.410   .     A
C353   C1092   1.402   .     S
C354   C356    1.411   .     A
C354   C1091   1.402   1_554 S
C357   O381    1.383   .     S
C357   C1069   1.400   .     S
C358   O386    1.384   .     S
C358   C1070   1.400   1_554 S
Cu359  N371    2.014   .     S
Cu359  O375    1.982   .     S
Cu359  O377    1.967   .     S
Cu359  O379    1.967   .     S
Cu359  Cu360   2.680   .     S
Cu359  O373    1.981   .     S
Cu360  O376    1.982   .     S
Cu360  O380    1.967   .     S
Cu360  N372    2.014   .     S
Cu360  O378    1.967   .     S
Cu360  O374    1.981   .     S
O381   C382    1.410   .     S
C382   H383    1.114   .     S
C382   H385    1.112   .     S
C382   H630    1.109   .     S
O386   C387    1.410   .     S
C387   H389    1.114   .     S
C387   H390    1.112   .     S
H388   C633    1.109   .     S
S391   O393    1.503   .     D
S391   O394    1.683   .     S
S391   O392    1.502   .     D
O394   H395    0.990   .     S
S396   O397    1.502   .     D
S396   O399    1.683   .     S
S396   O398    1.502   .     D
O399   H400    0.991   .     S
S401   O402    1.503   .     D
S401   O403    1.502   .     D
S401   O404    1.683   .     S
O404   H405    0.991   .     S
S406   O408    1.503   .     D
S406   O407    1.503   .     D
S406   O409    1.682   .     S
O409   H410    0.991   .     S
C411   C420    1.457   .     S
C411   O458    1.294   .     A
C411   O455    1.291   .     A
C412   O456    1.297   .     A
C412   O457    1.296   .     A
C412   C419    1.471   .     S
C413   C438    1.399   .     A
C413   H447    1.083   .     S
C413   C1177   1.400   1_554 S
C414   C437    1.399   .     A
C414   H448    1.083   .     S
C414   C1178   1.400   .     S
C415   S473    1.781   .     S
C415   C420    1.411   .     A
C416   C419    1.422   .     A
C416   S478    1.781   .     S
C416   C254    1.395   1_655 S
C417   S483    1.780   .     S
C417   C419    1.420   .     A
C417   C251    1.392   1_655 S
C418   S488    1.785   .     S
C418   C420    1.413   .     A
C421   N454    1.367   .     A
C421   H449    1.080   .     S
C422   N453    1.367   .     A
C422   H450    1.080   .     S
C422   C669    1.414   .     S
C423   H451    1.079   .     S
C423   N454    1.367   .     A
C424   H452    1.080   .     S
C424   N453    1.367   .     A
C424   C667    1.414   .     S
C425   C430    1.460   .     S
C425   O462    1.294   .     A
C425   O459    1.295   .     A
C426   O461    1.294   .     A
C426   O460    1.294   .     A
C426   C429    1.460   .     S
C427   H443    1.084   .     S
C427   C437    1.392   .     A
C427   C429    1.401   .     A
C428   C438    1.392   .     A
C428   H444    1.084   .     S
C428   C430    1.400   .     A
C429   C431    1.401   .     A
C430   C432    1.402   .     A
C431   C433    1.396   .     A
C431   H445    1.083   .     S
C432   C434    1.397   .     A
C432   H446    1.084   .     S
C433   C439    1.409   .     A
C433   C435    1.414   .     A
C434   C436    1.414   .     A
C434   C440    1.409   .     A
C435   C437    1.410   .     A
C435   C1174   1.402   .     S
C436   C438    1.411   .     A
C436   C1173   1.402   1_554 S
C439   O463    1.383   .     S
C439   C1151   1.400   .     S
C440   O468    1.384   .     S
C440   C1152   1.400   1_554 S
Cu441  N453    2.014   .     S
Cu441  O457    1.982   .     S
Cu441  O459    1.967   .     S
Cu441  O461    1.967   .     S
Cu441  Cu442   2.680   .     S
Cu441  O455    1.981   .     S
Cu442  O458    1.982   .     S
Cu442  O462    1.967   .     S
Cu442  N454    2.014   .     S
Cu442  O460    1.967   .     S
Cu442  O456    1.981   .     S
O463   C464    1.410   .     S
C464   H465    1.114   .     S
C464   H467    1.112   .     S
C464   H712    1.109   .     S
O468   C469    1.410   .     S
C469   H471    1.114   .     S
C469   H472    1.112   .     S
H470   C715    1.109   .     S
S473   O475    1.503   .     D
S473   O476    1.683   .     S
S473   O474    1.502   .     D
O476   H477    0.990   .     S
S478   O479    1.502   .     D
S478   O481    1.683   .     S
S478   O480    1.502   .     D
O481   H482    0.991   .     S
S483   O484    1.503   .     D
S483   O485    1.502   .     D
S483   O486    1.683   .     S
O486   H487    0.991   .     S
S488   O490    1.503   .     D
S488   O489    1.503   .     D
S488   O491    1.682   .     S
O491   H492    0.991   .     S
C493   C502    1.457   .     S
C493   O540    1.294   .     A
C493   O537    1.291   .     A
C494   O538    1.297   .     A
C494   O539    1.296   .     A
C494   C501    1.471   .     S
C495   C520    1.399   .     A
C495   H529    1.083   .     S
C495   C1259   1.400   1_554 S
C496   C519    1.399   .     A
C496   H530    1.083   .     S
C496   C1260   1.400   .     S
C497   S555    1.781   .     S
C497   C502    1.411   .     A
C497   C663    1.392   1_455 S
C498   C501    1.422   .     A
C498   S560    1.781   .     S
C498   C582    1.395   .     S
C499   S565    1.780   .     S
C499   C501    1.420   .     A
C499   C579    1.392   .     S
C500   S570    1.785   .     S
C500   C502    1.413   .     A
C500   C662    1.395   1_455 S
C503   N536    1.367   .     A
C503   H531    1.080   .     S
C504   N535    1.367   .     A
C504   H532    1.080   .     S
C504   C13     1.414   1_565 S
C505   H533    1.079   .     S
C505   N536    1.367   .     A
C506   H534    1.080   .     S
C506   N535    1.367   .     A
C506   C11     1.414   1_565 S
C507   C512    1.460   .     S
C507   O544    1.294   .     A
C507   O541    1.295   .     A
C508   O543    1.294   .     A
C508   O542    1.294   .     A
C508   C511    1.460   .     S
C509   H525    1.084   .     S
C509   C519    1.392   .     A
C509   C511    1.401   .     A
C510   C520    1.392   .     A
C510   H526    1.084   .     S
C510   C512    1.400   .     A
C511   C513    1.401   .     A
C512   C514    1.402   .     A
C513   C515    1.396   .     A
C513   H527    1.083   .     S
C514   C516    1.397   .     A
C514   H528    1.084   .     S
C515   C521    1.409   .     A
C515   C517    1.414   .     A
C516   C518    1.414   .     A
C516   C522    1.409   .     A
C517   C519    1.410   .     A
C517   C1256   1.402   .     S
C518   C520    1.411   .     A
C518   C1255   1.402   1_554 S
C521   O545    1.383   .     S
C521   C1233   1.400   .     S
C522   O550    1.384   .     S
C522   C1234   1.400   1_554 S
Cu523  N535    2.014   .     S
Cu523  O539    1.982   .     S
Cu523  O541    1.967   .     S
Cu523  O543    1.967   .     S
Cu523  Cu524   2.680   .     S
Cu523  O537    1.981   .     S
Cu524  O540    1.982   .     S
Cu524  O544    1.967   .     S
Cu524  N536    2.014   .     S
Cu524  O542    1.967   .     S
Cu524  O538    1.981   .     S
O545   C546    1.410   .     S
C546   H547    1.114   .     S
C546   H549    1.112   .     S
C546   H56     1.109   1_565 S
O550   C551    1.410   .     S
C551   H553    1.114   .     S
C551   H554    1.112   .     S
H552   C59     1.109   1_565 S
S555   O557    1.503   .     D
S555   O558    1.683   .     S
S555   O556    1.502   .     D
O558   H559    0.990   .     S
S560   O561    1.502   .     D
S560   O563    1.683   .     S
S560   O562    1.502   .     D
O563   H564    0.991   .     S
S565   O566    1.503   .     D
S565   O567    1.502   .     D
S565   O568    1.683   .     S
O568   H569    0.991   .     S
S570   O572    1.503   .     D
S570   O571    1.503   .     D
S570   O573    1.682   .     S
O573   H574    0.991   .     S
C575   C584    1.457   .     S
C575   O622    1.294   .     A
C575   O619    1.291   .     A
C576   O620    1.297   .     A
C576   O621    1.296   .     A
C576   C583    1.471   .     S
C577   C602    1.399   .     A
C577   H611    1.083   .     S
C577   C1341   1.400   1_554 S
C578   C601    1.399   .     A
C578   H612    1.083   .     S
C578   C1342   1.400   .     S
C579   S637    1.781   .     S
C579   C584    1.411   .     A
C580   C583    1.422   .     A
C580   S642    1.781   .     S
C580   C664    1.395   .     S
C581   S647    1.780   .     S
C581   C583    1.420   .     A
C581   C661    1.392   .     S
C582   S652    1.785   .     S
C582   C584    1.413   .     A
C585   N618    1.367   .     A
C585   H613    1.080   .     S
C586   N617    1.367   .     A
C586   H614    1.080   .     S
C586   C95     1.414   1_565 S
C587   H615    1.079   .     S
C587   N618    1.367   .     A
C588   H616    1.080   .     S
C588   N617    1.367   .     A
C588   C93     1.414   1_565 S
C589   C594    1.460   .     S
C589   O626    1.294   .     A
C589   O623    1.295   .     A
C590   O625    1.294   .     A
C590   O624    1.294   .     A
C590   C593    1.460   .     S
C591   H607    1.084   .     S
C591   C601    1.392   .     A
C591   C593    1.401   .     A
C592   C602    1.392   .     A
C592   H608    1.084   .     S
C592   C594    1.400   .     A
C593   C595    1.401   .     A
C594   C596    1.402   .     A
C595   C597    1.396   .     A
C595   H609    1.083   .     S
C596   C598    1.397   .     A
C596   H610    1.084   .     S
C597   C603    1.409   .     A
C597   C599    1.414   .     A
C598   C600    1.414   .     A
C598   C604    1.409   .     A
C599   C601    1.410   .     A
C599   C1338   1.402   .     S
C600   C602    1.411   .     A
C600   C1337   1.402   1_554 S
C603   O627    1.383   .     S
C603   C1315   1.400   .     S
C604   O632    1.384   .     S
C604   C1316   1.400   1_554 S
Cu605  N617    2.014   .     S
Cu605  O621    1.982   .     S
Cu605  O623    1.967   .     S
Cu605  O625    1.967   .     S
Cu605  Cu606   2.680   .     S
Cu605  O619    1.981   .     S
Cu606  O622    1.982   .     S
Cu606  O626    1.967   .     S
Cu606  N618    2.014   .     S
Cu606  O624    1.967   .     S
Cu606  O620    1.981   .     S
O627   C628    1.410   .     S
C628   H629    1.114   .     S
C628   H631    1.112   .     S
C628   H138    1.109   1_565 S
O632   C633    1.410   .     S
C633   H635    1.114   .     S
C633   H636    1.112   .     S
H634   C141    1.109   1_565 S
S637   O639    1.503   .     D
S637   O640    1.683   .     S
S637   O638    1.502   .     D
O640   H641    0.990   .     S
S642   O643    1.502   .     D
S642   O645    1.683   .     S
S642   O644    1.502   .     D
O645   H646    0.991   .     S
S647   O648    1.503   .     D
S647   O649    1.502   .     D
S647   O650    1.683   .     S
O650   H651    0.991   .     S
S652   O654    1.503   .     D
S652   O653    1.503   .     D
S652   O655    1.682   .     S
O655   H656    0.991   .     S
C657   C666    1.457   .     S
C657   O704    1.294   .     A
C657   O701    1.291   .     A
C658   O702    1.297   .     A
C658   O703    1.296   .     A
C658   C665    1.471   .     S
C659   C684    1.399   .     A
C659   H693    1.083   .     S
C659   C1423   1.400   1_554 S
C660   C683    1.399   .     A
C660   H694    1.083   .     S
C660   C1424   1.400   .     S
C661   S719    1.781   .     S
C661   C666    1.411   .     A
C662   C665    1.422   .     A
C662   S724    1.781   .     S
C662   C500    1.395   1_655 S
C663   S729    1.780   .     S
C663   C665    1.420   .     A
C663   C497    1.392   1_655 S
C664   S734    1.785   .     S
C664   C666    1.413   .     A
C667   N700    1.367   .     A
C667   H695    1.080   .     S
C668   N699    1.367   .     A
C668   H696    1.080   .     S
C668   C177    1.414   1_565 S
C669   H697    1.079   .     S
C669   N700    1.367   .     A
C670   H698    1.080   .     S
C670   N699    1.367   .     A
C670   C175    1.414   1_565 S
C671   C676    1.460   .     S
C671   O708    1.294   .     A
C671   O705    1.295   .     A
C672   O707    1.294   .     A
C672   O706    1.294   .     A
C672   C675    1.460   .     S
C673   H689    1.084   .     S
C673   C683    1.392   .     A
C673   C675    1.401   .     A
C674   C684    1.392   .     A
C674   H690    1.084   .     S
C674   C676    1.400   .     A
C675   C677    1.401   .     A
C676   C678    1.402   .     A
C677   C679    1.396   .     A
C677   H691    1.083   .     S
C678   C680    1.397   .     A
C678   H692    1.084   .     S
C679   C685    1.409   .     A
C679   C681    1.414   .     A
C680   C682    1.414   .     A
C680   C686    1.409   .     A
C681   C683    1.410   .     A
C681   C1420   1.402   .     S
C682   C684    1.411   .     A
C682   C1419   1.402   1_554 S
C685   O709    1.383   .     S
C685   C1397   1.400   .     S
C686   O714    1.384   .     S
C686   C1398   1.400   1_554 S
Cu687  N699    2.014   .     S
Cu687  O703    1.982   .     S
Cu687  O705    1.967   .     S
Cu687  O707    1.967   .     S
Cu687  Cu688   2.680   .     S
Cu687  O701    1.981   .     S
Cu688  O704    1.982   .     S
Cu688  O708    1.967   .     S
Cu688  N700    2.014   .     S
Cu688  O706    1.967   .     S
Cu688  O702    1.981   .     S
O709   C710    1.410   .     S
C710   H711    1.114   .     S
C710   H713    1.112   .     S
C710   H220    1.109   1_565 S
O714   C715    1.410   .     S
C715   H717    1.114   .     S
C715   H718    1.112   .     S
H716   C223    1.109   1_565 S
S719   O721    1.503   .     D
S719   O722    1.683   .     S
S719   O720    1.502   .     D
O722   H723    0.990   .     S
S724   O725    1.502   .     D
S724   O727    1.683   .     S
S724   O726    1.502   .     D
O727   H728    0.991   .     S
S729   O730    1.503   .     D
S729   O731    1.502   .     D
S729   O732    1.683   .     S
O732   H733    0.991   .     S
S734   O736    1.503   .     D
S734   O735    1.503   .     D
S734   O737    1.682   .     S
O737   H738    0.991   .     S
C739   C748    1.457   .     S
C739   O786    1.294   .     A
C739   O783    1.291   .     A
C740   O784    1.297   .     A
C740   O785    1.296   .     A
C740   C747    1.471   .     S
C741   C766    1.399   .     A
C741   H775    1.083   .     S
C742   C765    1.399   .     A
C742   H776    1.083   .     S
C742   C30     1.400   1_556 S
C743   S801    1.781   .     S
C743   C748    1.411   .     A
C743   C909    1.392   1_455 S
C744   C747    1.422   .     A
C744   S806    1.781   .     S
C744   C828    1.395   .     S
C745   S811    1.780   .     S
C745   C747    1.420   .     A
C745   C825    1.392   .     S
C746   S816    1.785   .     S
C746   C748    1.413   .     A
C746   C908    1.395   1_455 S
C749   N782    1.367   .     A
C749   H777    1.080   .     S
C749   C1244   1.414   1_545 S
C750   N781    1.367   .     A
C750   H778    1.080   .     S
C750   C997    1.414   .     S
C751   H779    1.079   .     S
C751   N782    1.367   .     A
C751   C1242   1.414   1_545 S
C752   H780    1.080   .     S
C752   N781    1.367   .     A
C752   C995    1.414   .     S
C753   C758    1.460   .     S
C753   O790    1.294   .     A
C753   O787    1.295   .     A
C754   O789    1.294   .     A
C754   O788    1.294   .     A
C754   C757    1.460   .     S
C755   H771    1.084   .     S
C755   C765    1.392   .     A
C755   C757    1.401   .     A
C756   C766    1.392   .     A
C756   H772    1.084   .     S
C756   C758    1.400   .     A
C757   C759    1.401   .     A
C758   C760    1.402   .     A
C759   C761    1.396   .     A
C759   H773    1.083   .     S
C760   C762    1.397   .     A
C760   H774    1.084   .     S
C761   C767    1.409   .     A
C761   C763    1.414   .     A
C762   C764    1.414   .     A
C762   C768    1.409   .     A
C763   C765    1.410   .     A
C763   C26     1.402   1_556 S
C764   C766    1.411   .     A
C767   O791    1.383   .     S
C767   C3      1.400   1_556 S
C768   O796    1.384   .     S
Cu769  N781    2.014   .     S
Cu769  O785    1.982   .     S
Cu769  O787    1.967   .     S
Cu769  O789    1.967   .     S
Cu769  Cu770   2.680   .     S
Cu769  O783    1.981   .     S
Cu770  O786    1.982   .     S
Cu770  O790    1.967   .     S
Cu770  N782    2.014   .     S
Cu770  O788    1.967   .     S
Cu770  O784    1.981   .     S
O791   C792    1.410   .     S
C792   H793    1.114   .     S
C792   H795    1.112   .     S
C792   H1040   1.109   .     S
H794   C1284   1.109   1_545 S
O796   C797    1.410   .     S
C797   H799    1.114   .     S
C797   H800    1.112   .     S
C797   H1290   1.109   1_545 S
H798   C1043   1.109   .     S
S801   O803    1.503   .     D
S801   O804    1.683   .     S
S801   O802    1.502   .     D
O804   H805    0.990   .     S
S806   O807    1.502   .     D
S806   O809    1.683   .     S
S806   O808    1.502   .     D
O809   H810    0.991   .     S
S811   O812    1.503   .     D
S811   O813    1.502   .     D
S811   O814    1.683   .     S
O814   H815    0.991   .     S
S816   O818    1.503   .     D
S816   O817    1.503   .     D
S816   O819    1.682   .     S
O819   H820    0.991   .     S
C821   C830    1.457   .     S
C821   O868    1.294   .     A
C821   O865    1.291   .     A
C822   O866    1.297   .     A
C822   O867    1.296   .     A
C822   C829    1.471   .     S
C823   C848    1.399   .     A
C823   H857    1.083   .     S
C824   C847    1.399   .     A
C824   H858    1.083   .     S
C824   C112    1.400   1_556 S
C825   S883    1.781   .     S
C825   C830    1.411   .     A
C826   C829    1.422   .     A
C826   S888    1.781   .     S
C826   C910    1.395   .     S
C827   S893    1.780   .     S
C827   C829    1.420   .     A
C827   C907    1.392   .     S
C828   S898    1.785   .     S
C828   C830    1.413   .     A
C831   N864    1.367   .     A
C831   H859    1.080   .     S
C831   C1326   1.414   1_545 S
C832   N863    1.367   .     A
C832   H860    1.080   .     S
C832   C1079   1.414   .     S
C833   H861    1.079   .     S
C833   N864    1.367   .     A
C833   C1324   1.414   1_545 S
C834   H862    1.080   .     S
C834   N863    1.367   .     A
C834   C1077   1.414   .     S
C835   C840    1.460   .     S
C835   O872    1.294   .     A
C835   O869    1.295   .     A
C836   O871    1.294   .     A
C836   O870    1.294   .     A
C836   C839    1.460   .     S
C837   H853    1.084   .     S
C837   C847    1.392   .     A
C837   C839    1.401   .     A
C838   C848    1.392   .     A
C838   H854    1.084   .     S
C838   C840    1.400   .     A
C839   C841    1.401   .     A
C840   C842    1.402   .     A
C841   C843    1.396   .     A
C841   H855    1.083   .     S
C842   C844    1.397   .     A
C842   H856    1.084   .     S
C843   C849    1.409   .     A
C843   C845    1.414   .     A
C844   C846    1.414   .     A
C844   C850    1.409   .     A
C845   C847    1.410   .     A
C845   C108    1.402   1_556 S
C846   C848    1.411   .     A
C849   O873    1.383   .     S
C849   C85     1.400   1_556 S
C850   O878    1.384   .     S
Cu851  N863    2.014   .     S
Cu851  O867    1.982   .     S
Cu851  O869    1.967   .     S
Cu851  O871    1.967   .     S
Cu851  Cu852   2.680   .     S
Cu851  O865    1.981   .     S
Cu852  O868    1.982   .     S
Cu852  O872    1.967   .     S
Cu852  N864    2.014   .     S
Cu852  O870    1.967   .     S
Cu852  O866    1.981   .     S
O873   C874    1.410   .     S
C874   H875    1.114   .     S
C874   H877    1.112   .     S
C874   H1122   1.109   .     S
H876   C1366   1.109   1_545 S
O878   C879    1.410   .     S
C879   H881    1.114   .     S
C879   H882    1.112   .     S
C879   H1372   1.109   1_545 S
H880   C1125   1.109   .     S
S883   O885    1.503   .     D
S883   O886    1.683   .     S
S883   O884    1.502   .     D
O886   H887    0.990   .     S
S888   O889    1.502   .     D
S888   O891    1.683   .     S
S888   O890    1.502   .     D
O891   H892    0.991   .     S
S893   O894    1.503   .     D
S893   O895    1.502   .     D
S893   O896    1.683   .     S
O896   H897    0.991   .     S
S898   O900    1.503   .     D
S898   O899    1.503   .     D
S898   O901    1.682   .     S
O901   H902    0.991   .     S
C903   C912    1.457   .     S
C903   O950    1.294   .     A
C903   O947    1.291   .     A
C904   O948    1.297   .     A
C904   O949    1.296   .     A
C904   C911    1.471   .     S
C905   C930    1.399   .     A
C905   H939    1.083   .     S
C906   C929    1.399   .     A
C906   H940    1.083   .     S
C906   C194    1.400   1_556 S
C907   S965    1.781   .     S
C907   C912    1.411   .     A
C908   C911    1.422   .     A
C908   S970    1.781   .     S
C908   C746    1.395   1_655 S
C909   S975    1.780   .     S
C909   C911    1.420   .     A
C909   C743    1.392   1_655 S
C910   S980    1.785   .     S
C910   C912    1.413   .     A
C913   N946    1.367   .     A
C913   H941    1.080   .     S
C913   C1408   1.414   1_545 S
C914   N945    1.367   .     A
C914   H942    1.080   .     S
C914   C1161   1.414   .     S
C915   H943    1.079   .     S
C915   N946    1.367   .     A
C915   C1406   1.414   1_545 S
C916   H944    1.080   .     S
C916   N945    1.367   .     A
C916   C1159   1.414   .     S
C917   C922    1.460   .     S
C917   O954    1.294   .     A
C917   O951    1.295   .     A
C918   O953    1.294   .     A
C918   O952    1.294   .     A
C918   C921    1.460   .     S
C919   H935    1.084   .     S
C919   C929    1.392   .     A
C919   C921    1.401   .     A
C920   C930    1.392   .     A
C920   H936    1.084   .     S
C920   C922    1.400   .     A
C921   C923    1.401   .     A
C922   C924    1.402   .     A
C923   C925    1.396   .     A
C923   H937    1.083   .     S
C924   C926    1.397   .     A
C924   H938    1.084   .     S
C925   C931    1.409   .     A
C925   C927    1.414   .     A
C926   C928    1.414   .     A
C926   C932    1.409   .     A
C927   C929    1.410   .     A
C927   C190    1.402   1_556 S
C928   C930    1.411   .     A
C931   O955    1.383   .     S
C931   C167    1.400   1_556 S
C932   O960    1.384   .     S
Cu933  N945    2.014   .     S
Cu933  O949    1.982   .     S
Cu933  O951    1.967   .     S
Cu933  O953    1.967   .     S
Cu933  Cu934   2.680   .     S
Cu933  O947    1.981   .     S
Cu934  O950    1.982   .     S
Cu934  O954    1.967   .     S
Cu934  N946    2.014   .     S
Cu934  O952    1.967   .     S
Cu934  O948    1.981   .     S
O955   C956    1.410   .     S
C956   H957    1.114   .     S
C956   H959    1.112   .     S
C956   H1204   1.109   .     S
H958   C1448   1.109   1_545 S
O960   C961    1.410   .     S
C961   H963    1.114   .     S
C961   H964    1.112   .     S
C961   H1454   1.109   1_545 S
H962   C1207   1.109   .     S
S965   O967    1.503   .     D
S965   O968    1.683   .     S
S965   O966    1.502   .     D
O968   H969    0.990   .     S
S970   O971    1.502   .     D
S970   O973    1.683   .     S
S970   O972    1.502   .     D
O973   H974    0.991   .     S
S975   O976    1.503   .     D
S975   O977    1.502   .     D
S975   O978    1.683   .     S
O978   H979    0.991   .     S
S980   O982    1.503   .     D
S980   O981    1.503   .     D
S980   O983    1.682   .     S
O983   H984    0.991   .     S
C985   C994    1.457   .     S
C985   O1032   1.294   .     A
C985   O1029   1.291   .     A
C986   O1030   1.297   .     A
C986   O1031   1.296   .     A
C986   C993    1.471   .     S
C987   C1012   1.399   .     A
C987   H1021   1.083   .     S
C988   C1011   1.399   .     A
C988   H1022   1.083   .     S
C988   C276    1.400   1_556 S
C989   S1047   1.781   .     S
C989   C994    1.411   .     A
C989   C1155   1.392   1_455 S
C990   C993    1.422   .     A
C990   S1052   1.781   .     S
C990   C1074   1.395   .     S
C991   S1057   1.780   .     S
C991   C993    1.420   .     A
C991   C1071   1.392   .     S
C992   S1062   1.785   .     S
C992   C994    1.413   .     A
C992   C1154   1.395   1_455 S
C995   N1028   1.367   .     A
C995   H1023   1.080   .     S
C996   N1027   1.367   .     A
C996   H1024   1.080   .     S
C996   C1243   1.414   .     S
C997   H1025   1.079   .     S
C997   N1028   1.367   .     A
C998   H1026   1.080   .     S
C998   N1027   1.367   .     A
C998   C1241   1.414   .     S
C999   C1004   1.460   .     S
C999   O1036   1.294   .     A
C999   O1033   1.295   .     A
C1000  O1035   1.294   .     A
C1000  O1034   1.294   .     A
C1000  C1003   1.460   .     S
C1001  H1017   1.084   .     S
C1001  C1011   1.392   .     A
C1001  C1003   1.401   .     A
C1002  C1012   1.392   .     A
C1002  H1018   1.084   .     S
C1002  C1004   1.400   .     A
C1003  C1005   1.401   .     A
C1004  C1006   1.402   .     A
C1005  C1007   1.396   .     A
C1005  H1019   1.083   .     S
C1006  C1008   1.397   .     A
C1006  H1020   1.084   .     S
C1007  C1013   1.409   .     A
C1007  C1009   1.414   .     A
C1008  C1010   1.414   .     A
C1008  C1014   1.409   .     A
C1009  C1011   1.410   .     A
C1009  C272    1.402   1_556 S
C1010  C1012   1.411   .     A
C1013  O1037   1.383   .     S
C1013  C249    1.400   1_556 S
C1014  O1042   1.384   .     S
Cu1015 N1027   2.014   .     S
Cu1015 O1031   1.982   .     S
Cu1015 O1033   1.967   .     S
Cu1015 O1035   1.967   .     S
Cu1015 Cu1016  2.680   .     S
Cu1015 O1029   1.981   .     S
Cu1016 O1032   1.982   .     S
Cu1016 O1036   1.967   .     S
Cu1016 N1028   2.014   .     S
Cu1016 O1034   1.967   .     S
Cu1016 O1030   1.981   .     S
O1037  C1038   1.410   .     S
C1038  H1039   1.114   .     S
C1038  H1041   1.112   .     S
C1038  H1286   1.109   .     S
O1042  C1043   1.410   .     S
C1043  H1045   1.114   .     S
C1043  H1046   1.112   .     S
H1044  C1289   1.109   .     S
S1047  O1049   1.503   .     D
S1047  O1050   1.683   .     S
S1047  O1048   1.502   .     D
O1050  H1051   0.990   .     S
S1052  O1053   1.502   .     D
S1052  O1055   1.683   .     S
S1052  O1054   1.502   .     D
O1055  H1056   0.991   .     S
S1057  O1058   1.503   .     D
S1057  O1059   1.502   .     D
S1057  O1060   1.683   .     S
O1060  H1061   0.991   .     S
S1062  O1064   1.503   .     D
S1062  O1063   1.503   .     D
S1062  O1065   1.682   .     S
O1065  H1066   0.991   .     S
C1067  C1076   1.457   .     S
C1067  O1114   1.294   .     A
C1067  O1111   1.291   .     A
C1068  O1112   1.297   .     A
C1068  O1113   1.296   .     A
C1068  C1075   1.471   .     S
C1069  C1094   1.399   .     A
C1069  H1103   1.083   .     S
C1070  C1093   1.399   .     A
C1070  H1104   1.083   .     S
C1070  C358    1.400   1_556 S
C1071  S1129   1.781   .     S
C1071  C1076   1.411   .     A
C1072  C1075   1.422   .     A
C1072  S1134   1.781   .     S
C1072  C1156   1.395   .     S
C1073  S1139   1.780   .     S
C1073  C1075   1.420   .     A
C1073  C1153   1.392   .     S
C1074  S1144   1.785   .     S
C1074  C1076   1.413   .     A
C1077  N1110   1.367   .     A
C1077  H1105   1.080   .     S
C1078  N1109   1.367   .     A
C1078  H1106   1.080   .     S
C1078  C1325   1.414   .     S
C1079  H1107   1.079   .     S
C1079  N1110   1.367   .     A
C1080  H1108   1.080   .     S
C1080  N1109   1.367   .     A
C1080  C1323   1.414   .     S
C1081  C1086   1.460   .     S
C1081  O1118   1.294   .     A
C1081  O1115   1.295   .     A
C1082  O1117   1.294   .     A
C1082  O1116   1.294   .     A
C1082  C1085   1.460   .     S
C1083  H1099   1.084   .     S
C1083  C1093   1.392   .     A
C1083  C1085   1.401   .     A
C1084  C1094   1.392   .     A
C1084  H1100   1.084   .     S
C1084  C1086   1.400   .     A
C1085  C1087   1.401   .     A
C1086  C1088   1.402   .     A
C1087  C1089   1.396   .     A
C1087  H1101   1.083   .     S
C1088  C1090   1.397   .     A
C1088  H1102   1.084   .     S
C1089  C1095   1.409   .     A
C1089  C1091   1.414   .     A
C1090  C1092   1.414   .     A
C1090  C1096   1.409   .     A
C1091  C1093   1.410   .     A
C1091  C354    1.402   1_556 S
C1092  C1094   1.411   .     A
C1095  O1119   1.383   .     S
C1095  C331    1.400   1_556 S
C1096  O1124   1.384   .     S
Cu1097 N1109   2.014   .     S
Cu1097 O1113   1.982   .     S
Cu1097 O1115   1.967   .     S
Cu1097 O1117   1.967   .     S
Cu1097 Cu1098  2.680   .     S
Cu1097 O1111   1.981   .     S
Cu1098 O1114   1.982   .     S
Cu1098 O1118   1.967   .     S
Cu1098 N1110   2.014   .     S
Cu1098 O1116   1.967   .     S
Cu1098 O1112   1.981   .     S
O1119  C1120   1.410   .     S
C1120  H1121   1.114   .     S
C1120  H1123   1.112   .     S
C1120  H1368   1.109   .     S
O1124  C1125   1.410   .     S
C1125  H1127   1.114   .     S
C1125  H1128   1.112   .     S
H1126  C1371   1.109   .     S
S1129  O1131   1.503   .     D
S1129  O1132   1.683   .     S
S1129  O1130   1.502   .     D
O1132  H1133   0.990   .     S
S1134  O1135   1.502   .     D
S1134  O1137   1.683   .     S
S1134  O1136   1.502   .     D
O1137  H1138   0.991   .     S
S1139  O1140   1.503   .     D
S1139  O1141   1.502   .     D
S1139  O1142   1.683   .     S
O1142  H1143   0.991   .     S
S1144  O1146   1.503   .     D
S1144  O1145   1.503   .     D
S1144  O1147   1.682   .     S
O1147  H1148   0.991   .     S
C1149  C1158   1.457   .     S
C1149  O1196   1.294   .     A
C1149  O1193   1.291   .     A
C1150  O1194   1.297   .     A
C1150  O1195   1.296   .     A
C1150  C1157   1.471   .     S
C1151  C1176   1.399   .     A
C1151  H1185   1.083   .     S
C1152  C1175   1.399   .     A
C1152  H1186   1.083   .     S
C1152  C440    1.400   1_556 S
C1153  S1211   1.781   .     S
C1153  C1158   1.411   .     A
C1154  C1157   1.422   .     A
C1154  S1216   1.781   .     S
C1154  C992    1.395   1_655 S
C1155  S1221   1.780   .     S
C1155  C1157   1.420   .     A
C1155  C989    1.392   1_655 S
C1156  S1226   1.785   .     S
C1156  C1158   1.413   .     A
C1159  N1192   1.367   .     A
C1159  H1187   1.080   .     S
C1160  N1191   1.367   .     A
C1160  H1188   1.080   .     S
C1160  C1407   1.414   .     S
C1161  H1189   1.079   .     S
C1161  N1192   1.367   .     A
C1162  H1190   1.080   .     S
C1162  N1191   1.367   .     A
C1162  C1405   1.414   .     S
C1163  C1168   1.460   .     S
C1163  O1200   1.294   .     A
C1163  O1197   1.295   .     A
C1164  O1199   1.294   .     A
C1164  O1198   1.294   .     A
C1164  C1167   1.460   .     S
C1165  H1181   1.084   .     S
C1165  C1175   1.392   .     A
C1165  C1167   1.401   .     A
C1166  C1176   1.392   .     A
C1166  H1182   1.084   .     S
C1166  C1168   1.400   .     A
C1167  C1169   1.401   .     A
C1168  C1170   1.402   .     A
C1169  C1171   1.396   .     A
C1169  H1183   1.083   .     S
C1170  C1172   1.397   .     A
C1170  H1184   1.084   .     S
C1171  C1177   1.409   .     A
C1171  C1173   1.414   .     A
C1172  C1174   1.414   .     A
C1172  C1178   1.409   .     A
C1173  C1175   1.410   .     A
C1173  C436    1.402   1_556 S
C1174  C1176   1.411   .     A
C1177  O1201   1.383   .     S
C1177  C413    1.400   1_556 S
C1178  O1206   1.384   .     S
Cu1179 N1191   2.014   .     S
Cu1179 O1195   1.982   .     S
Cu1179 O1197   1.967   .     S
Cu1179 O1199   1.967   .     S
Cu1179 Cu1180  2.680   .     S
Cu1179 O1193   1.981   .     S
Cu1180 O1196   1.982   .     S
Cu1180 O1200   1.967   .     S
Cu1180 N1192   2.014   .     S
Cu1180 O1198   1.967   .     S
Cu1180 O1194   1.981   .     S
O1201  C1202   1.410   .     S
C1202  H1203   1.114   .     S
C1202  H1205   1.112   .     S
C1202  H1450   1.109   .     S
O1206  C1207   1.410   .     S
C1207  H1209   1.114   .     S
C1207  H1210   1.112   .     S
H1208  C1453   1.109   .     S
S1211  O1213   1.503   .     D
S1211  O1214   1.683   .     S
S1211  O1212   1.502   .     D
O1214  H1215   0.990   .     S
S1216  O1217   1.502   .     D
S1216  O1219   1.683   .     S
S1216  O1218   1.502   .     D
O1219  H1220   0.991   .     S
S1221  O1222   1.503   .     D
S1221  O1223   1.502   .     D
S1221  O1224   1.683   .     S
O1224  H1225   0.991   .     S
S1226  O1228   1.503   .     D
S1226  O1227   1.503   .     D
S1226  O1229   1.682   .     S
O1229  H1230   0.991   .     S
C1231  C1240   1.457   .     S
C1231  O1278   1.294   .     A
C1231  O1275   1.291   .     A
C1232  O1276   1.297   .     A
C1232  O1277   1.296   .     A
C1232  C1239   1.471   .     S
C1233  C1258   1.399   .     A
C1233  H1267   1.083   .     S
C1234  C1257   1.399   .     A
C1234  H1268   1.083   .     S
C1234  C522    1.400   1_556 S
C1235  S1293   1.781   .     S
C1235  C1240   1.411   .     A
C1235  C1401   1.392   1_455 S
C1236  C1239   1.422   .     A
C1236  S1298   1.781   .     S
C1236  C1320   1.395   .     S
C1237  S1303   1.780   .     S
C1237  C1239   1.420   .     A
C1237  C1317   1.392   .     S
C1238  S1308   1.785   .     S
C1238  C1240   1.413   .     A
C1238  C1400   1.395   1_455 S
C1241  N1274   1.367   .     A
C1241  H1269   1.080   .     S
C1242  N1273   1.367   .     A
C1242  H1270   1.080   .     S
C1242  C751    1.414   1_565 S
C1243  H1271   1.079   .     S
C1243  N1274   1.367   .     A
C1244  H1272   1.080   .     S
C1244  N1273   1.367   .     A
C1244  C749    1.414   1_565 S
C1245  C1250   1.460   .     S
C1245  O1282   1.294   .     A
C1245  O1279   1.295   .     A
C1246  O1281   1.294   .     A
C1246  O1280   1.294   .     A
C1246  C1249   1.460   .     S
C1247  H1263   1.084   .     S
C1247  C1257   1.392   .     A
C1247  C1249   1.401   .     A
C1248  C1258   1.392   .     A
C1248  H1264   1.084   .     S
C1248  C1250   1.400   .     A
C1249  C1251   1.401   .     A
C1250  C1252   1.402   .     A
C1251  C1253   1.396   .     A
C1251  H1265   1.083   .     S
C1252  C1254   1.397   .     A
C1252  H1266   1.084   .     S
C1253  C1259   1.409   .     A
C1253  C1255   1.414   .     A
C1254  C1256   1.414   .     A
C1254  C1260   1.409   .     A
C1255  C1257   1.410   .     A
C1255  C518    1.402   1_556 S
C1256  C1258   1.411   .     A
C1259  O1283   1.383   .     S
C1259  C495    1.400   1_556 S
C1260  O1288   1.384   .     S
Cu1261 N1273   2.014   .     S
Cu1261 O1277   1.982   .     S
Cu1261 O1279   1.967   .     S
Cu1261 O1281   1.967   .     S
Cu1261 Cu1262  2.680   .     S
Cu1261 O1275   1.981   .     S
Cu1262 O1278   1.982   .     S
Cu1262 O1282   1.967   .     S
Cu1262 N1274   2.014   .     S
Cu1262 O1280   1.967   .     S
Cu1262 O1276   1.981   .     S
O1283  C1284   1.410   .     S
C1284  H1285   1.114   .     S
C1284  H1287   1.112   .     S
C1284  H794    1.109   1_565 S
O1288  C1289   1.410   .     S
C1289  H1291   1.114   .     S
C1289  H1292   1.112   .     S
H1290  C797    1.109   1_565 S
S1293  O1295   1.503   .     D
S1293  O1296   1.683   .     S
S1293  O1294   1.502   .     D
O1296  H1297   0.990   .     S
S1298  O1299   1.502   .     D
S1298  O1301   1.683   .     S
S1298  O1300   1.502   .     D
O1301  H1302   0.991   .     S
S1303  O1304   1.503   .     D
S1303  O1305   1.502   .     D
S1303  O1306   1.683   .     S
O1306  H1307   0.991   .     S
S1308  O1310   1.503   .     D
S1308  O1309   1.503   .     D
S1308  O1311   1.682   .     S
O1311  H1312   0.991   .     S
C1313  C1322   1.457   .     S
C1313  O1360   1.294   .     A
C1313  O1357   1.291   .     A
C1314  O1358   1.297   .     A
C1314  O1359   1.296   .     A
C1314  C1321   1.471   .     S
C1315  C1340   1.399   .     A
C1315  H1349   1.083   .     S
C1316  C1339   1.399   .     A
C1316  H1350   1.083   .     S
C1316  C604    1.400   1_556 S
C1317  S1375   1.781   .     S
C1317  C1322   1.411   .     A
C1318  C1321   1.422   .     A
C1318  S1380   1.781   .     S
C1318  C1402   1.395   .     S
C1319  S1385   1.780   .     S
C1319  C1321   1.420   .     A
C1319  C1399   1.392   .     S
C1320  S1390   1.785   .     S
C1320  C1322   1.413   .     A
C1323  N1356   1.367   .     A
C1323  H1351   1.080   .     S
C1324  N1355   1.367   .     A
C1324  H1352   1.080   .     S
C1324  C833    1.414   1_565 S
C1325  H1353   1.079   .     S
C1325  N1356   1.367   .     A
C1326  H1354   1.080   .     S
C1326  N1355   1.367   .     A
C1326  C831    1.414   1_565 S
C1327  C1332   1.460   .     S
C1327  O1364   1.294   .     A
C1327  O1361   1.295   .     A
C1328  O1363   1.294   .     A
C1328  O1362   1.294   .     A
C1328  C1331   1.460   .     S
C1329  H1345   1.084   .     S
C1329  C1339   1.392   .     A
C1329  C1331   1.401   .     A
C1330  C1340   1.392   .     A
C1330  H1346   1.084   .     S
C1330  C1332   1.400   .     A
C1331  C1333   1.401   .     A
C1332  C1334   1.402   .     A
C1333  C1335   1.396   .     A
C1333  H1347   1.083   .     S
C1334  C1336   1.397   .     A
C1334  H1348   1.084   .     S
C1335  C1341   1.409   .     A
C1335  C1337   1.414   .     A
C1336  C1338   1.414   .     A
C1336  C1342   1.409   .     A
C1337  C1339   1.410   .     A
C1337  C600    1.402   1_556 S
C1338  C1340   1.411   .     A
C1341  O1365   1.383   .     S
C1341  C577    1.400   1_556 S
C1342  O1370   1.384   .     S
Cu1343 N1355   2.014   .     S
Cu1343 O1359   1.982   .     S
Cu1343 O1361   1.967   .     S
Cu1343 O1363   1.967   .     S
Cu1343 Cu1344  2.680   .     S
Cu1343 O1357   1.981   .     S
Cu1344 O1360   1.982   .     S
Cu1344 O1364   1.967   .     S
Cu1344 N1356   2.014   .     S
Cu1344 O1362   1.967   .     S
Cu1344 O1358   1.981   .     S
O1365  C1366   1.410   .     S
C1366  H1367   1.114   .     S
C1366  H1369   1.112   .     S
C1366  H876    1.109   1_565 S
O1370  C1371   1.410   .     S
C1371  H1373   1.114   .     S
C1371  H1374   1.112   .     S
H1372  C879    1.109   1_565 S
S1375  O1377   1.503   .     D
S1375  O1378   1.683   .     S
S1375  O1376   1.502   .     D
O1378  H1379   0.990   .     S
S1380  O1381   1.502   .     D
S1380  O1383   1.683   .     S
S1380  O1382   1.502   .     D
O1383  H1384   0.991   .     S
S1385  O1386   1.503   .     D
S1385  O1387   1.502   .     D
S1385  O1388   1.683   .     S
O1388  H1389   0.991   .     S
S1390  O1392   1.503   .     D
S1390  O1391   1.503   .     D
S1390  O1393   1.682   .     S
O1393  H1394   0.991   .     S
C1395  C1404   1.457   .     S
C1395  O1442   1.294   .     A
C1395  O1439   1.291   .     A
C1396  O1440   1.297   .     A
C1396  O1441   1.296   .     A
C1396  C1403   1.471   .     S
C1397  C1422   1.399   .     A
C1397  H1431   1.083   .     S
C1398  C1421   1.399   .     A
C1398  H1432   1.083   .     S
C1398  C686    1.400   1_556 S
C1399  S1457   1.781   .     S
C1399  C1404   1.411   .     A
C1400  C1403   1.422   .     A
C1400  S1462   1.781   .     S
C1400  C1238   1.395   1_655 S
C1401  S1467   1.780   .     S
C1401  C1403   1.420   .     A
C1401  C1235   1.392   1_655 S
C1402  S1472   1.785   .     S
C1402  C1404   1.413   .     A
C1405  N1438   1.367   .     A
C1405  H1433   1.080   .     S
C1406  N1437   1.367   .     A
C1406  H1434   1.080   .     S
C1406  C915    1.414   1_565 S
C1407  H1435   1.079   .     S
C1407  N1438   1.367   .     A
C1408  H1436   1.080   .     S
C1408  N1437   1.367   .     A
C1408  C913    1.414   1_565 S
C1409  C1414   1.460   .     S
C1409  O1446   1.294   .     A
C1409  O1443   1.295   .     A
C1410  O1445   1.294   .     A
C1410  O1444   1.294   .     A
C1410  C1413   1.460   .     S
C1411  H1427   1.084   .     S
C1411  C1421   1.392   .     A
C1411  C1413   1.401   .     A
C1412  C1422   1.392   .     A
C1412  H1428   1.084   .     S
C1412  C1414   1.400   .     A
C1413  C1415   1.401   .     A
C1414  C1416   1.402   .     A
C1415  C1417   1.396   .     A
C1415  H1429   1.083   .     S
C1416  C1418   1.397   .     A
C1416  H1430   1.084   .     S
C1417  C1423   1.409   .     A
C1417  C1419   1.414   .     A
C1418  C1420   1.414   .     A
C1418  C1424   1.409   .     A
C1419  C1421   1.410   .     A
C1419  C682    1.402   1_556 S
C1420  C1422   1.411   .     A
C1423  O1447   1.383   .     S
C1423  C659    1.400   1_556 S
C1424  O1452   1.384   .     S
Cu1425 N1437   2.014   .     S
Cu1425 O1441   1.982   .     S
Cu1425 O1443   1.967   .     S
Cu1425 O1445   1.967   .     S
Cu1425 Cu1426  2.680   .     S
Cu1425 O1439   1.981   .     S
Cu1426 O1442   1.982   .     S
Cu1426 O1446   1.967   .     S
Cu1426 N1438   2.014   .     S
Cu1426 O1444   1.967   .     S
Cu1426 O1440   1.981   .     S
O1447  C1448   1.410   .     S
C1448  H1449   1.114   .     S
C1448  H1451   1.112   .     S
C1448  H958    1.109   1_565 S
O1452  C1453   1.410   .     S
C1453  H1455   1.114   .     S
C1453  H1456   1.112   .     S
H1454  C961    1.109   1_565 S
S1457  O1459   1.503   .     D
S1457  O1460   1.683   .     S
S1457  O1458   1.502   .     D
O1460  H1461   0.990   .     S
S1462  O1463   1.502   .     D
S1462  O1465   1.683   .     S
S1462  O1464   1.502   .     D
O1465  H1466   0.991   .     S
S1467  O1468   1.503   .     D
S1467  O1469   1.502   .     D
S1467  O1470   1.683   .     S
O1470  H1471   0.991   .     S
S1472  O1474   1.503   .     D
S1472  O1473   1.503   .     D
S1472  O1475   1.682   .     S
O1475  H1476   0.991   .     S
