data_str_m2_o1_o16_pcu_sym.118
_audit_creation_date              2020-01-03
_audit_creation_method            'Materials Studio'
_symmetry_space_group_name_H-M    'P1'
_symmetry_Int_Tables_number       1
_symmetry_cell_setting            triclinic
loop_
_symmetry_equiv_pos_as_xyz
  x,y,z
_cell_length_a                    28.8625
_cell_length_b                    32.2968
_cell_length_c                    26.8149
_cell_angle_alpha                 90.2897
_cell_angle_beta                  74.2548
_cell_angle_gamma                 88.9871
loop_
_atom_site_label
_atom_site_type_symbol
_atom_site_fract_x
_atom_site_fract_y
_atom_site_fract_z
_atom_site_U_iso_or_equiv
_atom_site_adp_type
_atom_site_occupancy
C1     C     0.16630   0.24581   0.25008   0.00000  Uiso   1.00
C2     C     0.14349   0.14913   0.48961   0.00000  Uiso   1.00
C3     C     0.15786   0.14564   0.43500   0.00000  Uiso   1.00
C4     C     0.17938   0.14679   0.01676   0.00000  Uiso   1.00
C5     C     0.22768   0.13746   0.48930   0.00000  Uiso   1.00
C6     C     0.23724   0.12089   0.43861   0.00000  Uiso   1.00
C7     C     0.20209   0.12544   0.41162   0.00000  Uiso   1.00
C8     C     0.16960   0.15802   0.06910   0.00000  Uiso   1.00
C9     C     0.25411   0.16593   0.06205   0.00000  Uiso   1.00
C10    C     0.12746   0.16271   0.40622   0.00000  Uiso   1.00
C11    C     0.20423   0.31101   0.21679   0.00000  Uiso   1.00
C12    C     0.14146   0.16477   0.34957   0.00000  Uiso   1.00
C13    C     0.20393   0.02055   0.21633   0.00000  Uiso   1.00
C14    C     0.16648   0.04281   0.25020   0.00000  Uiso   1.00
C15    C     0.12739   0.02225   0.28235   0.00000  Uiso   1.00
C16    C     0.12683   0.31262   0.28179   0.00000  Uiso   1.00
C17    C     0.16572   0.29042   0.24963   0.00000  Uiso   1.00
C18    C     0.30024   0.19395   0.28022   0.00000  Uiso   1.00
C19    C     0.01660   0.19354   0.28171   0.00000  Uiso   1.00
C20    C     0.03343   0.14054   0.21862   0.00000  Uiso   1.00
C21    C     0.31678   0.13839   0.22081   0.00000  Uiso   1.00
C22    C     0.16679   0.08749   0.25011   0.00000  Uiso   1.00
C23    C     0.19228   0.16781   0.15002   0.00000  Uiso   1.00
C24    C     0.26509   0.14845   0.01180   0.00000  Uiso   1.00
C25    C     0.20618   0.16422   0.09296   0.00000  Uiso   1.00
C26    C     0.08418   0.18241   0.43249   0.00000  Uiso   1.00
C27    C     0.06813   0.18090   0.48585   0.00000  Uiso   1.00
C28    C     0.09461   0.15941   0.01388   0.00000  Uiso   1.00
Cu29   Cu    0.11978   0.16666   0.25000   0.00000  Uiso   1.00
Cu30   Cu    0.21355   0.16667   0.25000   0.00000  Uiso   1.00
H31    H     0.23174   0.03641   0.18845   0.00000  Uiso   1.00
H32    H     0.09768   0.03941   0.30798   0.00000  Uiso   1.00
H33    H     0.09680   0.29674   0.30707   0.00000  Uiso   1.00
H34    H     0.27431   0.21587   0.30305   0.00000  Uiso   1.00
H35    H     0.05970   0.12104   0.19192   0.00000  Uiso   1.00
H36    H     0.13364   0.16448   0.09203   0.00000  Uiso   1.00
H37    H     0.06194   0.19817   0.41164   0.00000  Uiso   1.00
H38    H     0.03389   0.19505   0.00489   0.00000  Uiso   1.00
H39    H     0.21018   0.11382   0.37230   0.00000  Uiso   1.00
H40    H     0.23371   0.29392   0.19069   0.00000  Uiso   1.00
N41    N     0.04931   0.16666   0.24999   0.00000  Uiso   1.00
N42    N     0.28402   0.16669   0.25000   0.00000  Uiso   1.00
O43    O     0.12708   0.22678   0.25001   0.00000  Uiso   1.00
O44    O     0.20627   0.22679   0.25001   0.00000  Uiso   1.00
O45    O     0.10775   0.16665   0.32549   0.00000  Uiso   1.00
O46    O     0.18694   0.16666   0.32549   0.00000  Uiso   1.00
O47    O     0.12706   0.10654   0.25000   0.00000  Uiso   1.00
O48    O     0.20625   0.10655   0.25000   0.00000  Uiso   1.00
O49    O     0.14640   0.16667   0.17451   0.00000  Uiso   1.00
O50    O     0.22559   0.16668   0.17451   0.00000  Uiso   1.00
O51    O     0.28232   0.19867   0.06938   0.00000  Uiso   1.00
C52    C     0.30903   0.18947   0.10487   0.00000  Uiso   1.00
H53    H     0.31363   0.15574   0.11064   0.00000  Uiso   1.00
H54    H     0.29314   0.20610   0.14196   0.00000  Uiso   1.00
H55    H     0.01154   0.20341   0.09106   0.00000  Uiso   1.00
O56    O     0.03454   0.22120   0.31165   0.00000  Uiso   1.00
C57    C     0.33254   0.23756   0.35474   0.00000  Uiso   1.00
H58    H     0.01763   0.25276   0.38103   0.00000  Uiso   1.00
H59    H     0.30969   0.21289   0.37719   0.00000  Uiso   1.00
H60    H     0.31051   0.26200   0.34244   0.00000  Uiso   1.00
O61    O     0.30157   0.10988   0.19022   0.00000  Uiso   1.00
C62    C     0.31354   0.06915   0.20236   0.00000  Uiso   1.00
H63    H     0.30938   0.04790   0.17140   0.00000  Uiso   1.00
H64    H     0.01812   0.06454   0.20328   0.00000  Uiso   1.00
H65    H     0.28917   0.05959   0.24002   0.00000  Uiso   1.00
O66    O     0.28094   0.10135   0.41586   0.00000  Uiso   1.00
H67    H     0.28171   0.09223   0.38027   0.00000  Uiso   1.00
O68    O     0.31239   0.14755   0.48330   0.00000  Uiso   1.00
H69    H     0.31390   0.15921   0.44879   0.00000  Uiso   1.00
O70    O     0.07123   0.14720   0.06346   0.00000  Uiso   1.00
C71    C     0.06717   0.10372   0.06391   0.00000  Uiso   1.00
H72    H     0.10300   0.08795   0.05645   0.00000  Uiso   1.00
H73    H     0.04789   0.09304   0.03555   0.00000  Uiso   1.00
H74    H     0.04576   0.09437   0.10292   0.00000  Uiso   1.00
C75    C     0.49964   0.24581   0.25008   0.00000  Uiso   1.00
C76    C     0.47683   0.14913   0.48961   0.00000  Uiso   1.00
C77    C     0.49120   0.14564   0.43500   0.00000  Uiso   1.00
C78    C     0.51272   0.14679   0.01676   0.00000  Uiso   1.00
C79    C     0.56101   0.13746   0.48930   0.00000  Uiso   1.00
C80    C     0.57057   0.12089   0.43861   0.00000  Uiso   1.00
C81    C     0.53542   0.12544   0.41162   0.00000  Uiso   1.00
C82    C     0.50294   0.15802   0.06910   0.00000  Uiso   1.00
C83    C     0.58744   0.16593   0.06205   0.00000  Uiso   1.00
C84    C     0.46080   0.16271   0.40622   0.00000  Uiso   1.00
C85    C     0.53756   0.31101   0.21679   0.00000  Uiso   1.00
C86    C     0.47479   0.16477   0.34957   0.00000  Uiso   1.00
C87    C     0.53726   0.02055   0.21633   0.00000  Uiso   1.00
C88    C     0.49981   0.04281   0.25020   0.00000  Uiso   1.00
C89    C     0.46072   0.02225   0.28235   0.00000  Uiso   1.00
C90    C     0.46017   0.31262   0.28179   0.00000  Uiso   1.00
C91    C     0.49905   0.29042   0.24963   0.00000  Uiso   1.00
C92    C     0.63358   0.19395   0.28022   0.00000  Uiso   1.00
C93    C     0.34994   0.19354   0.28171   0.00000  Uiso   1.00
C94    C     0.36676   0.14054   0.21862   0.00000  Uiso   1.00
C95    C     0.65011   0.13839   0.22081   0.00000  Uiso   1.00
C96    C     0.50012   0.08749   0.25011   0.00000  Uiso   1.00
C97    C     0.52561   0.16781   0.15002   0.00000  Uiso   1.00
C98    C     0.59843   0.14845   0.01180   0.00000  Uiso   1.00
C99    C     0.53951   0.16422   0.09296   0.00000  Uiso   1.00
C100   C     0.41751   0.18241   0.43249   0.00000  Uiso   1.00
C101   C     0.40146   0.18090   0.48585   0.00000  Uiso   1.00
C102   C     0.42794   0.15941   0.01388   0.00000  Uiso   1.00
Cu103  Cu    0.45311   0.16666   0.25000   0.00000  Uiso   1.00
Cu104  Cu    0.54689   0.16667   0.25000   0.00000  Uiso   1.00
H105   H     0.56507   0.03641   0.18845   0.00000  Uiso   1.00
H106   H     0.43101   0.03941   0.30798   0.00000  Uiso   1.00
H107   H     0.43014   0.29674   0.30707   0.00000  Uiso   1.00
H108   H     0.60764   0.21587   0.30305   0.00000  Uiso   1.00
H109   H     0.39303   0.12104   0.19192   0.00000  Uiso   1.00
H110   H     0.46698   0.16448   0.09203   0.00000  Uiso   1.00
H111   H     0.39528   0.19817   0.41164   0.00000  Uiso   1.00
H112   H     0.36723   0.19505   0.00489   0.00000  Uiso   1.00
H113   H     0.54352   0.11382   0.37230   0.00000  Uiso   1.00
H114   H     0.56705   0.29392   0.19069   0.00000  Uiso   1.00
N115   N     0.38265   0.16666   0.24999   0.00000  Uiso   1.00
N116   N     0.61735   0.16669   0.25000   0.00000  Uiso   1.00
O117   O     0.46042   0.22678   0.25001   0.00000  Uiso   1.00
O118   O     0.53961   0.22679   0.25001   0.00000  Uiso   1.00
O119   O     0.44108   0.16665   0.32549   0.00000  Uiso   1.00
O120   O     0.52027   0.16666   0.32549   0.00000  Uiso   1.00
O121   O     0.46039   0.10654   0.25000   0.00000  Uiso   1.00
O122   O     0.53958   0.10655   0.25000   0.00000  Uiso   1.00
O123   O     0.47973   0.16667   0.17451   0.00000  Uiso   1.00
O124   O     0.55892   0.16668   0.17451   0.00000  Uiso   1.00
O125   O     0.61565   0.19867   0.06938   0.00000  Uiso   1.00
C126   C     0.64237   0.18947   0.10487   0.00000  Uiso   1.00
H127   H     0.64696   0.15574   0.11064   0.00000  Uiso   1.00
H128   H     0.62647   0.20610   0.14196   0.00000  Uiso   1.00
H129   H     0.34488   0.20341   0.09106   0.00000  Uiso   1.00
O130   O     0.36788   0.22120   0.31165   0.00000  Uiso   1.00
C131   C     0.66587   0.23756   0.35474   0.00000  Uiso   1.00
H132   H     0.35096   0.25276   0.38103   0.00000  Uiso   1.00
H133   H     0.64303   0.21289   0.37719   0.00000  Uiso   1.00
H134   H     0.64385   0.26200   0.34244   0.00000  Uiso   1.00
O135   O     0.63491   0.10988   0.19022   0.00000  Uiso   1.00
C136   C     0.64687   0.06915   0.20236   0.00000  Uiso   1.00
H137   H     0.64271   0.04790   0.17140   0.00000  Uiso   1.00
H138   H     0.35146   0.06454   0.20328   0.00000  Uiso   1.00
H139   H     0.62250   0.05959   0.24002   0.00000  Uiso   1.00
O140   O     0.61428   0.10135   0.41586   0.00000  Uiso   1.00
H141   H     0.61505   0.09223   0.38027   0.00000  Uiso   1.00
O142   O     0.64573   0.14755   0.48330   0.00000  Uiso   1.00
H143   H     0.64723   0.15921   0.44879   0.00000  Uiso   1.00
O144   O     0.40457   0.14720   0.06346   0.00000  Uiso   1.00
C145   C     0.40051   0.10372   0.06391   0.00000  Uiso   1.00
H146   H     0.43633   0.08795   0.05645   0.00000  Uiso   1.00
H147   H     0.38123   0.09304   0.03555   0.00000  Uiso   1.00
H148   H     0.37909   0.09437   0.10292   0.00000  Uiso   1.00
C149   C     0.83297   0.24581   0.25008   0.00000  Uiso   1.00
C150   C     0.81016   0.14913   0.48961   0.00000  Uiso   1.00
C151   C     0.82453   0.14564   0.43500   0.00000  Uiso   1.00
C152   C     0.84605   0.14679   0.01676   0.00000  Uiso   1.00
C153   C     0.89434   0.13746   0.48930   0.00000  Uiso   1.00
C154   C     0.90390   0.12089   0.43861   0.00000  Uiso   1.00
C155   C     0.86876   0.12544   0.41162   0.00000  Uiso   1.00
C156   C     0.83627   0.15802   0.06910   0.00000  Uiso   1.00
C157   C     0.92077   0.16593   0.06205   0.00000  Uiso   1.00
C158   C     0.79413   0.16271   0.40622   0.00000  Uiso   1.00
C159   C     0.87089   0.31101   0.21679   0.00000  Uiso   1.00
C160   C     0.80812   0.16477   0.34957   0.00000  Uiso   1.00
C161   C     0.87060   0.02055   0.21633   0.00000  Uiso   1.00
C162   C     0.83315   0.04281   0.25020   0.00000  Uiso   1.00
C163   C     0.79405   0.02225   0.28235   0.00000  Uiso   1.00
C164   C     0.79350   0.31262   0.28179   0.00000  Uiso   1.00
C165   C     0.83239   0.29042   0.24963   0.00000  Uiso   1.00
C166   C     0.96691   0.19395   0.28022   0.00000  Uiso   1.00
C167   C     0.68327   0.19354   0.28171   0.00000  Uiso   1.00
C168   C     0.70009   0.14054   0.21862   0.00000  Uiso   1.00
C169   C     0.98345   0.13839   0.22081   0.00000  Uiso   1.00
C170   C     0.83345   0.08749   0.25011   0.00000  Uiso   1.00
C171   C     0.85895   0.16781   0.15002   0.00000  Uiso   1.00
C172   C     0.93176   0.14845   0.01180   0.00000  Uiso   1.00
C173   C     0.87285   0.16422   0.09296   0.00000  Uiso   1.00
C174   C     0.75084   0.18241   0.43249   0.00000  Uiso   1.00
C175   C     0.73480   0.18090   0.48585   0.00000  Uiso   1.00
C176   C     0.76128   0.15941   0.01388   0.00000  Uiso   1.00
Cu177  Cu    0.78645   0.16666   0.25000   0.00000  Uiso   1.00
Cu178  Cu    0.88022   0.16667   0.25000   0.00000  Uiso   1.00
H179   H     0.89840   0.03641   0.18845   0.00000  Uiso   1.00
H180   H     0.76435   0.03941   0.30798   0.00000  Uiso   1.00
H181   H     0.76347   0.29674   0.30707   0.00000  Uiso   1.00
H182   H     0.94098   0.21587   0.30305   0.00000  Uiso   1.00
H183   H     0.72637   0.12104   0.19192   0.00000  Uiso   1.00
H184   H     0.80031   0.16448   0.09203   0.00000  Uiso   1.00
H185   H     0.72861   0.19817   0.41164   0.00000  Uiso   1.00
H186   H     0.70056   0.19505   0.00489   0.00000  Uiso   1.00
H187   H     0.87685   0.11382   0.37230   0.00000  Uiso   1.00
H188   H     0.90038   0.29392   0.19069   0.00000  Uiso   1.00
N189   N     0.71598   0.16666   0.24999   0.00000  Uiso   1.00
N190   N     0.95069   0.16669   0.25000   0.00000  Uiso   1.00
O191   O     0.79375   0.22678   0.25001   0.00000  Uiso   1.00
O192   O     0.87294   0.22679   0.25001   0.00000  Uiso   1.00
O193   O     0.77441   0.16665   0.32549   0.00000  Uiso   1.00
O194   O     0.85360   0.16666   0.32549   0.00000  Uiso   1.00
O195   O     0.79373   0.10654   0.25000   0.00000  Uiso   1.00
O196   O     0.87292   0.10655   0.25000   0.00000  Uiso   1.00
O197   O     0.81306   0.16667   0.17451   0.00000  Uiso   1.00
O198   O     0.89225   0.16668   0.17451   0.00000  Uiso   1.00
O199   O     0.94899   0.19867   0.06938   0.00000  Uiso   1.00
C200   C     0.97570   0.18947   0.10487   0.00000  Uiso   1.00
H201   H     0.98030   0.15574   0.11064   0.00000  Uiso   1.00
H202   H     0.95981   0.20610   0.14196   0.00000  Uiso   1.00
H203   H     0.67821   0.20341   0.09106   0.00000  Uiso   1.00
O204   O     0.70121   0.22120   0.31165   0.00000  Uiso   1.00
C205   C     0.99920   0.23756   0.35474   0.00000  Uiso   1.00
H206   H     0.68429   0.25276   0.38103   0.00000  Uiso   1.00
H207   H     0.97636   0.21289   0.37719   0.00000  Uiso   1.00
H208   H     0.97718   0.26200   0.34244   0.00000  Uiso   1.00
O209   O     0.96824   0.10988   0.19022   0.00000  Uiso   1.00
C210   C     0.98020   0.06915   0.20236   0.00000  Uiso   1.00
H211   H     0.97605   0.04790   0.17140   0.00000  Uiso   1.00
H212   H     0.68479   0.06454   0.20328   0.00000  Uiso   1.00
H213   H     0.95583   0.05959   0.24002   0.00000  Uiso   1.00
O214   O     0.94761   0.10135   0.41586   0.00000  Uiso   1.00
H215   H     0.94838   0.09223   0.38027   0.00000  Uiso   1.00
O216   O     0.97906   0.14755   0.48330   0.00000  Uiso   1.00
H217   H     0.98057   0.15921   0.44879   0.00000  Uiso   1.00
O218   O     0.73790   0.14720   0.06346   0.00000  Uiso   1.00
C219   C     0.73384   0.10372   0.06391   0.00000  Uiso   1.00
H220   H     0.76966   0.08795   0.05645   0.00000  Uiso   1.00
H221   H     0.71456   0.09304   0.03555   0.00000  Uiso   1.00
H222   H     0.71242   0.09437   0.10292   0.00000  Uiso   1.00
C223   C     0.16630   0.57915   0.25008   0.00000  Uiso   1.00
C224   C     0.14349   0.48246   0.48961   0.00000  Uiso   1.00
C225   C     0.15786   0.47897   0.43500   0.00000  Uiso   1.00
C226   C     0.17938   0.48012   0.01676   0.00000  Uiso   1.00
C227   C     0.22768   0.47080   0.48930   0.00000  Uiso   1.00
C228   C     0.23724   0.45422   0.43861   0.00000  Uiso   1.00
C229   C     0.20209   0.45878   0.41162   0.00000  Uiso   1.00
C230   C     0.16960   0.49135   0.06910   0.00000  Uiso   1.00
C231   C     0.25411   0.49927   0.06205   0.00000  Uiso   1.00
C232   C     0.12746   0.49604   0.40622   0.00000  Uiso   1.00
C233   C     0.20423   0.64434   0.21679   0.00000  Uiso   1.00
C234   C     0.14146   0.49810   0.34957   0.00000  Uiso   1.00
C235   C     0.20393   0.35388   0.21633   0.00000  Uiso   1.00
C236   C     0.16648   0.37614   0.25020   0.00000  Uiso   1.00
C237   C     0.12739   0.35558   0.28235   0.00000  Uiso   1.00
C238   C     0.12683   0.64595   0.28179   0.00000  Uiso   1.00
C239   C     0.16572   0.62375   0.24963   0.00000  Uiso   1.00
C240   C     0.30024   0.52728   0.28022   0.00000  Uiso   1.00
C241   C     0.01660   0.52687   0.28171   0.00000  Uiso   1.00
C242   C     0.03343   0.47388   0.21862   0.00000  Uiso   1.00
C243   C     0.31678   0.47172   0.22081   0.00000  Uiso   1.00
C244   C     0.16679   0.42082   0.25011   0.00000  Uiso   1.00
C245   C     0.19228   0.50115   0.15002   0.00000  Uiso   1.00
C246   C     0.26509   0.48178   0.01180   0.00000  Uiso   1.00
C247   C     0.20618   0.49755   0.09296   0.00000  Uiso   1.00
C248   C     0.08418   0.51574   0.43249   0.00000  Uiso   1.00
C249   C     0.06813   0.51423   0.48585   0.00000  Uiso   1.00
C250   C     0.09461   0.49275   0.01388   0.00000  Uiso   1.00
Cu251  Cu    0.11978   0.49999   0.25000   0.00000  Uiso   1.00
Cu252  Cu    0.21355   0.50001   0.25000   0.00000  Uiso   1.00
H253   H     0.23174   0.36974   0.18845   0.00000  Uiso   1.00
H254   H     0.09768   0.37275   0.30798   0.00000  Uiso   1.00
H255   H     0.09680   0.63007   0.30707   0.00000  Uiso   1.00
H256   H     0.27431   0.54921   0.30305   0.00000  Uiso   1.00
H257   H     0.05970   0.45437   0.19192   0.00000  Uiso   1.00
H258   H     0.13364   0.49782   0.09203   0.00000  Uiso   1.00
H259   H     0.06194   0.53150   0.41164   0.00000  Uiso   1.00
H260   H     0.03389   0.52838   0.00489   0.00000  Uiso   1.00
H261   H     0.21018   0.44715   0.37230   0.00000  Uiso   1.00
H262   H     0.23371   0.62725   0.19069   0.00000  Uiso   1.00
N263   N     0.04931   0.49999   0.24999   0.00000  Uiso   1.00
N264   N     0.28402   0.50002   0.25000   0.00000  Uiso   1.00
O265   O     0.12708   0.56011   0.25001   0.00000  Uiso   1.00
O266   O     0.20627   0.56012   0.25001   0.00000  Uiso   1.00
O267   O     0.10775   0.49998   0.32549   0.00000  Uiso   1.00
O268   O     0.18694   0.49999   0.32549   0.00000  Uiso   1.00
O269   O     0.12706   0.43988   0.25000   0.00000  Uiso   1.00
O270   O     0.20625   0.43989   0.25000   0.00000  Uiso   1.00
O271   O     0.14640   0.50001   0.17451   0.00000  Uiso   1.00
O272   O     0.22559   0.50002   0.17451   0.00000  Uiso   1.00
O273   O     0.28232   0.53200   0.06938   0.00000  Uiso   1.00
C274   C     0.30903   0.52280   0.10487   0.00000  Uiso   1.00
H275   H     0.31363   0.48907   0.11064   0.00000  Uiso   1.00
H276   H     0.29314   0.53943   0.14196   0.00000  Uiso   1.00
H277   H     0.01154   0.53674   0.09106   0.00000  Uiso   1.00
O278   O     0.03454   0.55453   0.31165   0.00000  Uiso   1.00
C279   C     0.33254   0.57090   0.35474   0.00000  Uiso   1.00
H280   H     0.01763   0.58609   0.38103   0.00000  Uiso   1.00
H281   H     0.30969   0.54623   0.37719   0.00000  Uiso   1.00
H282   H     0.31051   0.59533   0.34244   0.00000  Uiso   1.00
O283   O     0.30157   0.44322   0.19022   0.00000  Uiso   1.00
C284   C     0.31354   0.40248   0.20236   0.00000  Uiso   1.00
H285   H     0.30938   0.38124   0.17140   0.00000  Uiso   1.00
H286   H     0.01812   0.39788   0.20328   0.00000  Uiso   1.00
H287   H     0.28917   0.39292   0.24002   0.00000  Uiso   1.00
O288   O     0.28094   0.43469   0.41586   0.00000  Uiso   1.00
H289   H     0.28171   0.42556   0.38027   0.00000  Uiso   1.00
O290   O     0.31239   0.48088   0.48330   0.00000  Uiso   1.00
H291   H     0.31390   0.49255   0.44879   0.00000  Uiso   1.00
O292   O     0.07123   0.48053   0.06346   0.00000  Uiso   1.00
C293   C     0.06717   0.43705   0.06391   0.00000  Uiso   1.00
H294   H     0.10300   0.42128   0.05645   0.00000  Uiso   1.00
H295   H     0.04789   0.42638   0.03555   0.00000  Uiso   1.00
H296   H     0.04576   0.42771   0.10292   0.00000  Uiso   1.00
C297   C     0.49964   0.57915   0.25008   0.00000  Uiso   1.00
C298   C     0.47683   0.48246   0.48961   0.00000  Uiso   1.00
C299   C     0.49120   0.47897   0.43500   0.00000  Uiso   1.00
C300   C     0.51272   0.48012   0.01676   0.00000  Uiso   1.00
C301   C     0.56101   0.47080   0.48930   0.00000  Uiso   1.00
C302   C     0.57057   0.45422   0.43861   0.00000  Uiso   1.00
C303   C     0.53542   0.45878   0.41162   0.00000  Uiso   1.00
C304   C     0.50294   0.49135   0.06910   0.00000  Uiso   1.00
C305   C     0.58744   0.49927   0.06205   0.00000  Uiso   1.00
C306   C     0.46080   0.49604   0.40622   0.00000  Uiso   1.00
C307   C     0.53756   0.64434   0.21679   0.00000  Uiso   1.00
C308   C     0.47479   0.49810   0.34957   0.00000  Uiso   1.00
C309   C     0.53726   0.35388   0.21633   0.00000  Uiso   1.00
C310   C     0.49981   0.37614   0.25020   0.00000  Uiso   1.00
C311   C     0.46072   0.35558   0.28235   0.00000  Uiso   1.00
C312   C     0.46017   0.64595   0.28179   0.00000  Uiso   1.00
C313   C     0.49905   0.62375   0.24963   0.00000  Uiso   1.00
C314   C     0.63358   0.52728   0.28022   0.00000  Uiso   1.00
C315   C     0.34994   0.52687   0.28171   0.00000  Uiso   1.00
C316   C     0.36676   0.47388   0.21862   0.00000  Uiso   1.00
C317   C     0.65011   0.47172   0.22081   0.00000  Uiso   1.00
C318   C     0.50012   0.42082   0.25011   0.00000  Uiso   1.00
C319   C     0.52561   0.50115   0.15002   0.00000  Uiso   1.00
C320   C     0.59843   0.48178   0.01180   0.00000  Uiso   1.00
C321   C     0.53951   0.49755   0.09296   0.00000  Uiso   1.00
C322   C     0.41751   0.51574   0.43249   0.00000  Uiso   1.00
C323   C     0.40146   0.51423   0.48585   0.00000  Uiso   1.00
C324   C     0.42794   0.49275   0.01388   0.00000  Uiso   1.00
Cu325  Cu    0.45311   0.49999   0.25000   0.00000  Uiso   1.00
Cu326  Cu    0.54689   0.50001   0.25000   0.00000  Uiso   1.00
H327   H     0.56507   0.36974   0.18845   0.00000  Uiso   1.00
H328   H     0.43101   0.37275   0.30798   0.00000  Uiso   1.00
H329   H     0.43014   0.63007   0.30707   0.00000  Uiso   1.00
H330   H     0.60764   0.54921   0.30305   0.00000  Uiso   1.00
H331   H     0.39303   0.45437   0.19192   0.00000  Uiso   1.00
H332   H     0.46698   0.49782   0.09203   0.00000  Uiso   1.00
H333   H     0.39528   0.53150   0.41164   0.00000  Uiso   1.00
H334   H     0.36723   0.52838   0.00489   0.00000  Uiso   1.00
H335   H     0.54352   0.44715   0.37230   0.00000  Uiso   1.00
H336   H     0.56705   0.62725   0.19069   0.00000  Uiso   1.00
N337   N     0.38265   0.49999   0.24999   0.00000  Uiso   1.00
N338   N     0.61735   0.50002   0.25000   0.00000  Uiso   1.00
O339   O     0.46042   0.56011   0.25001   0.00000  Uiso   1.00
O340   O     0.53961   0.56012   0.25001   0.00000  Uiso   1.00
O341   O     0.44108   0.49998   0.32549   0.00000  Uiso   1.00
O342   O     0.52027   0.49999   0.32549   0.00000  Uiso   1.00
O343   O     0.46039   0.43988   0.25000   0.00000  Uiso   1.00
O344   O     0.53958   0.43989   0.25000   0.00000  Uiso   1.00
O345   O     0.47973   0.50001   0.17451   0.00000  Uiso   1.00
O346   O     0.55892   0.50002   0.17451   0.00000  Uiso   1.00
O347   O     0.61565   0.53200   0.06938   0.00000  Uiso   1.00
C348   C     0.64237   0.52280   0.10487   0.00000  Uiso   1.00
H349   H     0.64696   0.48907   0.11064   0.00000  Uiso   1.00
H350   H     0.62647   0.53943   0.14196   0.00000  Uiso   1.00
H351   H     0.34488   0.53674   0.09106   0.00000  Uiso   1.00
O352   O     0.36788   0.55453   0.31165   0.00000  Uiso   1.00
C353   C     0.66587   0.57090   0.35474   0.00000  Uiso   1.00
H354   H     0.35096   0.58609   0.38103   0.00000  Uiso   1.00
H355   H     0.64303   0.54623   0.37719   0.00000  Uiso   1.00
H356   H     0.64385   0.59533   0.34244   0.00000  Uiso   1.00
O357   O     0.63491   0.44322   0.19022   0.00000  Uiso   1.00
C358   C     0.64687   0.40248   0.20236   0.00000  Uiso   1.00
H359   H     0.64271   0.38124   0.17140   0.00000  Uiso   1.00
H360   H     0.35146   0.39788   0.20328   0.00000  Uiso   1.00
H361   H     0.62250   0.39292   0.24002   0.00000  Uiso   1.00
O362   O     0.61428   0.43469   0.41586   0.00000  Uiso   1.00
H363   H     0.61505   0.42556   0.38027   0.00000  Uiso   1.00
O364   O     0.64573   0.48088   0.48330   0.00000  Uiso   1.00
H365   H     0.64723   0.49255   0.44879   0.00000  Uiso   1.00
O366   O     0.40457   0.48053   0.06346   0.00000  Uiso   1.00
C367   C     0.40051   0.43705   0.06391   0.00000  Uiso   1.00
H368   H     0.43633   0.42128   0.05645   0.00000  Uiso   1.00
H369   H     0.38123   0.42638   0.03555   0.00000  Uiso   1.00
H370   H     0.37909   0.42771   0.10292   0.00000  Uiso   1.00
C371   C     0.83297   0.57915   0.25008   0.00000  Uiso   1.00
C372   C     0.81016   0.48246   0.48961   0.00000  Uiso   1.00
C373   C     0.82453   0.47897   0.43500   0.00000  Uiso   1.00
C374   C     0.84605   0.48012   0.01676   0.00000  Uiso   1.00
C375   C     0.89434   0.47080   0.48930   0.00000  Uiso   1.00
C376   C     0.90390   0.45422   0.43861   0.00000  Uiso   1.00
C377   C     0.86876   0.45878   0.41162   0.00000  Uiso   1.00
C378   C     0.83627   0.49135   0.06910   0.00000  Uiso   1.00
C379   C     0.92077   0.49927   0.06205   0.00000  Uiso   1.00
C380   C     0.79413   0.49604   0.40622   0.00000  Uiso   1.00
C381   C     0.87089   0.64434   0.21679   0.00000  Uiso   1.00
C382   C     0.80812   0.49810   0.34957   0.00000  Uiso   1.00
C383   C     0.87060   0.35388   0.21633   0.00000  Uiso   1.00
C384   C     0.83315   0.37614   0.25020   0.00000  Uiso   1.00
C385   C     0.79405   0.35558   0.28235   0.00000  Uiso   1.00
C386   C     0.79350   0.64595   0.28179   0.00000  Uiso   1.00
C387   C     0.83239   0.62375   0.24963   0.00000  Uiso   1.00
C388   C     0.96691   0.52728   0.28022   0.00000  Uiso   1.00
C389   C     0.68327   0.52687   0.28171   0.00000  Uiso   1.00
C390   C     0.70009   0.47388   0.21862   0.00000  Uiso   1.00
C391   C     0.98345   0.47172   0.22081   0.00000  Uiso   1.00
C392   C     0.83345   0.42082   0.25011   0.00000  Uiso   1.00
C393   C     0.85895   0.50115   0.15002   0.00000  Uiso   1.00
C394   C     0.93176   0.48178   0.01180   0.00000  Uiso   1.00
C395   C     0.87285   0.49755   0.09296   0.00000  Uiso   1.00
C396   C     0.75084   0.51574   0.43249   0.00000  Uiso   1.00
C397   C     0.73480   0.51423   0.48585   0.00000  Uiso   1.00
C398   C     0.76128   0.49275   0.01388   0.00000  Uiso   1.00
Cu399  Cu    0.78645   0.49999   0.25000   0.00000  Uiso   1.00
Cu400  Cu    0.88022   0.50001   0.25000   0.00000  Uiso   1.00
H401   H     0.89840   0.36974   0.18845   0.00000  Uiso   1.00
H402   H     0.76435   0.37275   0.30798   0.00000  Uiso   1.00
H403   H     0.76347   0.63007   0.30707   0.00000  Uiso   1.00
H404   H     0.94098   0.54921   0.30305   0.00000  Uiso   1.00
H405   H     0.72637   0.45437   0.19192   0.00000  Uiso   1.00
H406   H     0.80031   0.49782   0.09203   0.00000  Uiso   1.00
H407   H     0.72861   0.53150   0.41164   0.00000  Uiso   1.00
H408   H     0.70056   0.52838   0.00489   0.00000  Uiso   1.00
H409   H     0.87685   0.44715   0.37230   0.00000  Uiso   1.00
H410   H     0.90038   0.62725   0.19069   0.00000  Uiso   1.00
N411   N     0.71598   0.49999   0.24999   0.00000  Uiso   1.00
N412   N     0.95069   0.50002   0.25000   0.00000  Uiso   1.00
O413   O     0.79375   0.56011   0.25001   0.00000  Uiso   1.00
O414   O     0.87294   0.56012   0.25001   0.00000  Uiso   1.00
O415   O     0.77441   0.49998   0.32549   0.00000  Uiso   1.00
O416   O     0.85360   0.49999   0.32549   0.00000  Uiso   1.00
O417   O     0.79373   0.43988   0.25000   0.00000  Uiso   1.00
O418   O     0.87292   0.43989   0.25000   0.00000  Uiso   1.00
O419   O     0.81306   0.50001   0.17451   0.00000  Uiso   1.00
O420   O     0.89225   0.50002   0.17451   0.00000  Uiso   1.00
O421   O     0.94899   0.53200   0.06938   0.00000  Uiso   1.00
C422   C     0.97570   0.52280   0.10487   0.00000  Uiso   1.00
H423   H     0.98030   0.48907   0.11064   0.00000  Uiso   1.00
H424   H     0.95981   0.53943   0.14196   0.00000  Uiso   1.00
H425   H     0.67821   0.53674   0.09106   0.00000  Uiso   1.00
O426   O     0.70121   0.55453   0.31165   0.00000  Uiso   1.00
C427   C     0.99920   0.57090   0.35474   0.00000  Uiso   1.00
H428   H     0.68429   0.58609   0.38103   0.00000  Uiso   1.00
H429   H     0.97636   0.54623   0.37719   0.00000  Uiso   1.00
H430   H     0.97718   0.59533   0.34244   0.00000  Uiso   1.00
O431   O     0.96824   0.44322   0.19022   0.00000  Uiso   1.00
C432   C     0.98020   0.40248   0.20236   0.00000  Uiso   1.00
H433   H     0.97605   0.38124   0.17140   0.00000  Uiso   1.00
H434   H     0.68479   0.39788   0.20328   0.00000  Uiso   1.00
H435   H     0.95583   0.39292   0.24002   0.00000  Uiso   1.00
O436   O     0.94761   0.43469   0.41586   0.00000  Uiso   1.00
H437   H     0.94838   0.42556   0.38027   0.00000  Uiso   1.00
O438   O     0.97906   0.48088   0.48330   0.00000  Uiso   1.00
H439   H     0.98057   0.49255   0.44879   0.00000  Uiso   1.00
O440   O     0.73790   0.48053   0.06346   0.00000  Uiso   1.00
C441   C     0.73384   0.43705   0.06391   0.00000  Uiso   1.00
H442   H     0.76966   0.42128   0.05645   0.00000  Uiso   1.00
H443   H     0.71456   0.42638   0.03555   0.00000  Uiso   1.00
H444   H     0.71242   0.42771   0.10292   0.00000  Uiso   1.00
C445   C     0.16630   0.91248   0.25008   0.00000  Uiso   1.00
C446   C     0.14349   0.81580   0.48961   0.00000  Uiso   1.00
C447   C     0.15786   0.81230   0.43500   0.00000  Uiso   1.00
C448   C     0.17938   0.81345   0.01676   0.00000  Uiso   1.00
C449   C     0.22768   0.80413   0.48930   0.00000  Uiso   1.00
C450   C     0.23724   0.78755   0.43861   0.00000  Uiso   1.00
C451   C     0.20209   0.79211   0.41162   0.00000  Uiso   1.00
C452   C     0.16960   0.82468   0.06910   0.00000  Uiso   1.00
C453   C     0.25411   0.83260   0.06205   0.00000  Uiso   1.00
C454   C     0.12746   0.82937   0.40622   0.00000  Uiso   1.00
C455   C     0.20423   0.97767   0.21679   0.00000  Uiso   1.00
C456   C     0.14146   0.83143   0.34957   0.00000  Uiso   1.00
C457   C     0.20393   0.68722   0.21633   0.00000  Uiso   1.00
C458   C     0.16648   0.70948   0.25020   0.00000  Uiso   1.00
C459   C     0.12739   0.68892   0.28235   0.00000  Uiso   1.00
C460   C     0.12683   0.97928   0.28179   0.00000  Uiso   1.00
C461   C     0.16572   0.95709   0.24963   0.00000  Uiso   1.00
C462   C     0.30024   0.86061   0.28022   0.00000  Uiso   1.00
C463   C     0.01660   0.86020   0.28171   0.00000  Uiso   1.00
C464   C     0.03343   0.80721   0.21862   0.00000  Uiso   1.00
C465   C     0.31678   0.80506   0.22081   0.00000  Uiso   1.00
C466   C     0.16679   0.75415   0.25011   0.00000  Uiso   1.00
C467   C     0.19228   0.83448   0.15002   0.00000  Uiso   1.00
C468   C     0.26509   0.81512   0.01180   0.00000  Uiso   1.00
C469   C     0.20618   0.83089   0.09296   0.00000  Uiso   1.00
C470   C     0.08418   0.84907   0.43249   0.00000  Uiso   1.00
C471   C     0.06813   0.84756   0.48585   0.00000  Uiso   1.00
C472   C     0.09461   0.82608   0.01388   0.00000  Uiso   1.00
Cu473  Cu    0.11978   0.83333   0.25000   0.00000  Uiso   1.00
Cu474  Cu    0.21355   0.83334   0.25000   0.00000  Uiso   1.00
H475   H     0.23174   0.70308   0.18845   0.00000  Uiso   1.00
H476   H     0.09768   0.70608   0.30798   0.00000  Uiso   1.00
H477   H     0.09680   0.96341   0.30707   0.00000  Uiso   1.00
H478   H     0.27431   0.88254   0.30305   0.00000  Uiso   1.00
H479   H     0.05970   0.78770   0.19192   0.00000  Uiso   1.00
H480   H     0.13364   0.83115   0.09203   0.00000  Uiso   1.00
H481   H     0.06194   0.86484   0.41164   0.00000  Uiso   1.00
H482   H     0.03389   0.86171   0.00489   0.00000  Uiso   1.00
H483   H     0.21018   0.78049   0.37230   0.00000  Uiso   1.00
H484   H     0.23371   0.96059   0.19069   0.00000  Uiso   1.00
N485   N     0.04931   0.83332   0.24999   0.00000  Uiso   1.00
N486   N     0.28402   0.83335   0.25000   0.00000  Uiso   1.00
O487   O     0.12708   0.89345   0.25001   0.00000  Uiso   1.00
O488   O     0.20627   0.89346   0.25001   0.00000  Uiso   1.00
O489   O     0.10775   0.83332   0.32549   0.00000  Uiso   1.00
O490   O     0.18694   0.83333   0.32549   0.00000  Uiso   1.00
O491   O     0.12706   0.77321   0.25000   0.00000  Uiso   1.00
O492   O     0.20625   0.77322   0.25000   0.00000  Uiso   1.00
O493   O     0.14640   0.83334   0.17451   0.00000  Uiso   1.00
O494   O     0.22559   0.83335   0.17451   0.00000  Uiso   1.00
O495   O     0.28232   0.86533   0.06938   0.00000  Uiso   1.00
C496   C     0.30903   0.85613   0.10487   0.00000  Uiso   1.00
H497   H     0.31363   0.82240   0.11064   0.00000  Uiso   1.00
H498   H     0.29314   0.87276   0.14196   0.00000  Uiso   1.00
H499   H     0.01154   0.87007   0.09106   0.00000  Uiso   1.00
O500   O     0.03454   0.88787   0.31165   0.00000  Uiso   1.00
C501   C     0.33254   0.90423   0.35474   0.00000  Uiso   1.00
H502   H     0.01763   0.91943   0.38103   0.00000  Uiso   1.00
H503   H     0.30969   0.87956   0.37719   0.00000  Uiso   1.00
H504   H     0.31051   0.92866   0.34244   0.00000  Uiso   1.00
O505   O     0.30157   0.77655   0.19022   0.00000  Uiso   1.00
C506   C     0.31354   0.73582   0.20236   0.00000  Uiso   1.00
H507   H     0.30938   0.71457   0.17140   0.00000  Uiso   1.00
H508   H     0.01812   0.73121   0.20328   0.00000  Uiso   1.00
H509   H     0.28917   0.72625   0.24002   0.00000  Uiso   1.00
O510   O     0.28094   0.76802   0.41586   0.00000  Uiso   1.00
H511   H     0.28171   0.75890   0.38027   0.00000  Uiso   1.00
O512   O     0.31239   0.81422   0.48330   0.00000  Uiso   1.00
H513   H     0.31390   0.82588   0.44879   0.00000  Uiso   1.00
O514   O     0.07123   0.81387   0.06346   0.00000  Uiso   1.00
C515   C     0.06717   0.77039   0.06391   0.00000  Uiso   1.00
H516   H     0.10300   0.75462   0.05645   0.00000  Uiso   1.00
H517   H     0.04789   0.75971   0.03555   0.00000  Uiso   1.00
H518   H     0.04576   0.76104   0.10292   0.00000  Uiso   1.00
C519   C     0.49964   0.91248   0.25008   0.00000  Uiso   1.00
C520   C     0.47683   0.81580   0.48961   0.00000  Uiso   1.00
C521   C     0.49120   0.81230   0.43500   0.00000  Uiso   1.00
C522   C     0.51272   0.81345   0.01676   0.00000  Uiso   1.00
C523   C     0.56101   0.80413   0.48930   0.00000  Uiso   1.00
C524   C     0.57057   0.78755   0.43861   0.00000  Uiso   1.00
C525   C     0.53542   0.79211   0.41162   0.00000  Uiso   1.00
C526   C     0.50294   0.82468   0.06910   0.00000  Uiso   1.00
C527   C     0.58744   0.83260   0.06205   0.00000  Uiso   1.00
C528   C     0.46080   0.82937   0.40622   0.00000  Uiso   1.00
C529   C     0.53756   0.97767   0.21679   0.00000  Uiso   1.00
C530   C     0.47479   0.83143   0.34957   0.00000  Uiso   1.00
C531   C     0.53726   0.68722   0.21633   0.00000  Uiso   1.00
C532   C     0.49981   0.70948   0.25020   0.00000  Uiso   1.00
C533   C     0.46072   0.68892   0.28235   0.00000  Uiso   1.00
C534   C     0.46017   0.97928   0.28179   0.00000  Uiso   1.00
C535   C     0.49905   0.95709   0.24963   0.00000  Uiso   1.00
C536   C     0.63358   0.86061   0.28022   0.00000  Uiso   1.00
C537   C     0.34994   0.86020   0.28171   0.00000  Uiso   1.00
C538   C     0.36676   0.80721   0.21862   0.00000  Uiso   1.00
C539   C     0.65011   0.80506   0.22081   0.00000  Uiso   1.00
C540   C     0.50012   0.75415   0.25011   0.00000  Uiso   1.00
C541   C     0.52561   0.83448   0.15002   0.00000  Uiso   1.00
C542   C     0.59843   0.81512   0.01180   0.00000  Uiso   1.00
C543   C     0.53951   0.83089   0.09296   0.00000  Uiso   1.00
C544   C     0.41751   0.84907   0.43249   0.00000  Uiso   1.00
C545   C     0.40146   0.84756   0.48585   0.00000  Uiso   1.00
C546   C     0.42794   0.82608   0.01388   0.00000  Uiso   1.00
Cu547  Cu    0.45311   0.83333   0.25000   0.00000  Uiso   1.00
Cu548  Cu    0.54689   0.83334   0.25000   0.00000  Uiso   1.00
H549   H     0.56507   0.70308   0.18845   0.00000  Uiso   1.00
H550   H     0.43101   0.70608   0.30798   0.00000  Uiso   1.00
H551   H     0.43014   0.96341   0.30707   0.00000  Uiso   1.00
H552   H     0.60764   0.88254   0.30305   0.00000  Uiso   1.00
H553   H     0.39303   0.78770   0.19192   0.00000  Uiso   1.00
H554   H     0.46698   0.83115   0.09203   0.00000  Uiso   1.00
H555   H     0.39528   0.86484   0.41164   0.00000  Uiso   1.00
H556   H     0.36723   0.86171   0.00489   0.00000  Uiso   1.00
H557   H     0.54352   0.78049   0.37230   0.00000  Uiso   1.00
H558   H     0.56705   0.96059   0.19069   0.00000  Uiso   1.00
N559   N     0.38265   0.83332   0.24999   0.00000  Uiso   1.00
N560   N     0.61735   0.83335   0.25000   0.00000  Uiso   1.00
O561   O     0.46042   0.89345   0.25001   0.00000  Uiso   1.00
O562   O     0.53961   0.89346   0.25001   0.00000  Uiso   1.00
O563   O     0.44108   0.83332   0.32549   0.00000  Uiso   1.00
O564   O     0.52027   0.83333   0.32549   0.00000  Uiso   1.00
O565   O     0.46039   0.77321   0.25000   0.00000  Uiso   1.00
O566   O     0.53958   0.77322   0.25000   0.00000  Uiso   1.00
O567   O     0.47973   0.83334   0.17451   0.00000  Uiso   1.00
O568   O     0.55892   0.83335   0.17451   0.00000  Uiso   1.00
O569   O     0.61565   0.86533   0.06938   0.00000  Uiso   1.00
C570   C     0.64237   0.85613   0.10487   0.00000  Uiso   1.00
H571   H     0.64696   0.82240   0.11064   0.00000  Uiso   1.00
H572   H     0.62647   0.87276   0.14196   0.00000  Uiso   1.00
H573   H     0.34488   0.87007   0.09106   0.00000  Uiso   1.00
O574   O     0.36788   0.88787   0.31165   0.00000  Uiso   1.00
C575   C     0.66587   0.90423   0.35474   0.00000  Uiso   1.00
H576   H     0.35096   0.91943   0.38103   0.00000  Uiso   1.00
H577   H     0.64303   0.87956   0.37719   0.00000  Uiso   1.00
H578   H     0.64385   0.92866   0.34244   0.00000  Uiso   1.00
O579   O     0.63491   0.77655   0.19022   0.00000  Uiso   1.00
C580   C     0.64687   0.73582   0.20236   0.00000  Uiso   1.00
H581   H     0.64271   0.71457   0.17140   0.00000  Uiso   1.00
H582   H     0.35146   0.73121   0.20328   0.00000  Uiso   1.00
H583   H     0.62250   0.72625   0.24002   0.00000  Uiso   1.00
O584   O     0.61428   0.76802   0.41586   0.00000  Uiso   1.00
H585   H     0.61505   0.75890   0.38027   0.00000  Uiso   1.00
O586   O     0.64573   0.81422   0.48330   0.00000  Uiso   1.00
H587   H     0.64723   0.82588   0.44879   0.00000  Uiso   1.00
O588   O     0.40457   0.81387   0.06346   0.00000  Uiso   1.00
C589   C     0.40051   0.77039   0.06391   0.00000  Uiso   1.00
H590   H     0.43633   0.75462   0.05645   0.00000  Uiso   1.00
H591   H     0.38123   0.75971   0.03555   0.00000  Uiso   1.00
H592   H     0.37909   0.76104   0.10292   0.00000  Uiso   1.00
C593   C     0.83297   0.91248   0.25008   0.00000  Uiso   1.00
C594   C     0.81016   0.81580   0.48961   0.00000  Uiso   1.00
C595   C     0.82453   0.81230   0.43500   0.00000  Uiso   1.00
C596   C     0.84605   0.81345   0.01676   0.00000  Uiso   1.00
C597   C     0.89434   0.80413   0.48930   0.00000  Uiso   1.00
C598   C     0.90390   0.78755   0.43861   0.00000  Uiso   1.00
C599   C     0.86876   0.79211   0.41162   0.00000  Uiso   1.00
C600   C     0.83627   0.82468   0.06910   0.00000  Uiso   1.00
C601   C     0.92077   0.83260   0.06205   0.00000  Uiso   1.00
C602   C     0.79413   0.82937   0.40622   0.00000  Uiso   1.00
C603   C     0.87089   0.97767   0.21679   0.00000  Uiso   1.00
C604   C     0.80812   0.83143   0.34957   0.00000  Uiso   1.00
C605   C     0.87060   0.68722   0.21633   0.00000  Uiso   1.00
C606   C     0.83315   0.70948   0.25020   0.00000  Uiso   1.00
C607   C     0.79405   0.68892   0.28235   0.00000  Uiso   1.00
C608   C     0.79350   0.97928   0.28179   0.00000  Uiso   1.00
C609   C     0.83239   0.95709   0.24963   0.00000  Uiso   1.00
C610   C     0.96691   0.86061   0.28022   0.00000  Uiso   1.00
C611   C     0.68327   0.86020   0.28171   0.00000  Uiso   1.00
C612   C     0.70009   0.80721   0.21862   0.00000  Uiso   1.00
C613   C     0.98345   0.80506   0.22081   0.00000  Uiso   1.00
C614   C     0.83345   0.75415   0.25011   0.00000  Uiso   1.00
C615   C     0.85895   0.83448   0.15002   0.00000  Uiso   1.00
C616   C     0.93176   0.81512   0.01180   0.00000  Uiso   1.00
C617   C     0.87285   0.83089   0.09296   0.00000  Uiso   1.00
C618   C     0.75084   0.84907   0.43249   0.00000  Uiso   1.00
C619   C     0.73480   0.84756   0.48585   0.00000  Uiso   1.00
C620   C     0.76128   0.82608   0.01388   0.00000  Uiso   1.00
Cu621  Cu    0.78645   0.83333   0.25000   0.00000  Uiso   1.00
Cu622  Cu    0.88022   0.83334   0.25000   0.00000  Uiso   1.00
H623   H     0.89840   0.70308   0.18845   0.00000  Uiso   1.00
H624   H     0.76435   0.70608   0.30798   0.00000  Uiso   1.00
H625   H     0.76347   0.96341   0.30707   0.00000  Uiso   1.00
H626   H     0.94098   0.88254   0.30305   0.00000  Uiso   1.00
H627   H     0.72637   0.78770   0.19192   0.00000  Uiso   1.00
H628   H     0.80031   0.83115   0.09203   0.00000  Uiso   1.00
H629   H     0.72861   0.86484   0.41164   0.00000  Uiso   1.00
H630   H     0.70056   0.86171   0.00489   0.00000  Uiso   1.00
H631   H     0.87685   0.78049   0.37230   0.00000  Uiso   1.00
H632   H     0.90038   0.96059   0.19069   0.00000  Uiso   1.00
N633   N     0.71598   0.83332   0.24999   0.00000  Uiso   1.00
N634   N     0.95069   0.83335   0.25000   0.00000  Uiso   1.00
O635   O     0.79375   0.89345   0.25001   0.00000  Uiso   1.00
O636   O     0.87294   0.89346   0.25001   0.00000  Uiso   1.00
O637   O     0.77441   0.83332   0.32549   0.00000  Uiso   1.00
O638   O     0.85360   0.83333   0.32549   0.00000  Uiso   1.00
O639   O     0.79373   0.77321   0.25000   0.00000  Uiso   1.00
O640   O     0.87292   0.77322   0.25000   0.00000  Uiso   1.00
O641   O     0.81306   0.83334   0.17451   0.00000  Uiso   1.00
O642   O     0.89225   0.83335   0.17451   0.00000  Uiso   1.00
O643   O     0.94899   0.86533   0.06938   0.00000  Uiso   1.00
C644   C     0.97570   0.85613   0.10487   0.00000  Uiso   1.00
H645   H     0.98030   0.82240   0.11064   0.00000  Uiso   1.00
H646   H     0.95981   0.87276   0.14196   0.00000  Uiso   1.00
H647   H     0.67821   0.87007   0.09106   0.00000  Uiso   1.00
O648   O     0.70121   0.88787   0.31165   0.00000  Uiso   1.00
C649   C     0.99920   0.90423   0.35474   0.00000  Uiso   1.00
H650   H     0.68429   0.91943   0.38103   0.00000  Uiso   1.00
H651   H     0.97636   0.87956   0.37719   0.00000  Uiso   1.00
H652   H     0.97718   0.92866   0.34244   0.00000  Uiso   1.00
O653   O     0.96824   0.77655   0.19022   0.00000  Uiso   1.00
C654   C     0.98020   0.73582   0.20236   0.00000  Uiso   1.00
H655   H     0.97605   0.71457   0.17140   0.00000  Uiso   1.00
H656   H     0.68479   0.73121   0.20328   0.00000  Uiso   1.00
H657   H     0.95583   0.72625   0.24002   0.00000  Uiso   1.00
O658   O     0.94761   0.76802   0.41586   0.00000  Uiso   1.00
H659   H     0.94838   0.75890   0.38027   0.00000  Uiso   1.00
O660   O     0.97906   0.81422   0.48330   0.00000  Uiso   1.00
H661   H     0.98057   0.82588   0.44879   0.00000  Uiso   1.00
O662   O     0.73790   0.81387   0.06346   0.00000  Uiso   1.00
C663   C     0.73384   0.77039   0.06391   0.00000  Uiso   1.00
H664   H     0.76966   0.75462   0.05645   0.00000  Uiso   1.00
H665   H     0.71456   0.75971   0.03555   0.00000  Uiso   1.00
H666   H     0.71242   0.76104   0.10292   0.00000  Uiso   1.00
C667   C     0.16630   0.24581   0.75008   0.00000  Uiso   1.00
C668   C     0.14349   0.14913   0.98961   0.00000  Uiso   1.00
C669   C     0.15786   0.14564   0.93500   0.00000  Uiso   1.00
C670   C     0.17938   0.14679   0.51676   0.00000  Uiso   1.00
C671   C     0.22768   0.13746   0.98930   0.00000  Uiso   1.00
C672   C     0.23724   0.12089   0.93861   0.00000  Uiso   1.00
C673   C     0.20209   0.12544   0.91162   0.00000  Uiso   1.00
C674   C     0.16960   0.15802   0.56910   0.00000  Uiso   1.00
C675   C     0.25411   0.16593   0.56205   0.00000  Uiso   1.00
C676   C     0.12746   0.16271   0.90622   0.00000  Uiso   1.00
C677   C     0.20423   0.31101   0.71679   0.00000  Uiso   1.00
C678   C     0.14146   0.16477   0.84957   0.00000  Uiso   1.00
C679   C     0.20393   0.02055   0.71633   0.00000  Uiso   1.00
C680   C     0.16648   0.04281   0.75020   0.00000  Uiso   1.00
C681   C     0.12739   0.02225   0.78235   0.00000  Uiso   1.00
C682   C     0.12683   0.31262   0.78179   0.00000  Uiso   1.00
C683   C     0.16572   0.29042   0.74963   0.00000  Uiso   1.00
C684   C     0.30024   0.19395   0.78022   0.00000  Uiso   1.00
C685   C     0.01660   0.19354   0.78171   0.00000  Uiso   1.00
C686   C     0.03343   0.14054   0.71862   0.00000  Uiso   1.00
C687   C     0.31678   0.13839   0.72081   0.00000  Uiso   1.00
C688   C     0.16679   0.08749   0.75011   0.00000  Uiso   1.00
C689   C     0.19228   0.16781   0.65002   0.00000  Uiso   1.00
C690   C     0.26509   0.14845   0.51180   0.00000  Uiso   1.00
C691   C     0.20618   0.16422   0.59296   0.00000  Uiso   1.00
C692   C     0.08418   0.18241   0.93249   0.00000  Uiso   1.00
C693   C     0.06813   0.18090   0.98585   0.00000  Uiso   1.00
C694   C     0.09461   0.15941   0.51388   0.00000  Uiso   1.00
Cu695  Cu    0.11978   0.16666   0.75000   0.00000  Uiso   1.00
Cu696  Cu    0.21355   0.16667   0.75000   0.00000  Uiso   1.00
H697   H     0.23174   0.03641   0.68845   0.00000  Uiso   1.00
H698   H     0.09768   0.03941   0.80798   0.00000  Uiso   1.00
H699   H     0.09680   0.29674   0.80707   0.00000  Uiso   1.00
H700   H     0.27431   0.21587   0.80305   0.00000  Uiso   1.00
H701   H     0.05970   0.12104   0.69192   0.00000  Uiso   1.00
H702   H     0.13364   0.16448   0.59203   0.00000  Uiso   1.00
H703   H     0.06194   0.19817   0.91164   0.00000  Uiso   1.00
H704   H     0.03389   0.19505   0.50489   0.00000  Uiso   1.00
H705   H     0.21018   0.11382   0.87230   0.00000  Uiso   1.00
H706   H     0.23371   0.29392   0.69069   0.00000  Uiso   1.00
N707   N     0.04931   0.16666   0.74999   0.00000  Uiso   1.00
N708   N     0.28402   0.16669   0.75000   0.00000  Uiso   1.00
O709   O     0.12708   0.22678   0.75001   0.00000  Uiso   1.00
O710   O     0.20627   0.22679   0.75001   0.00000  Uiso   1.00
O711   O     0.10775   0.16665   0.82549   0.00000  Uiso   1.00
O712   O     0.18694   0.16666   0.82549   0.00000  Uiso   1.00
O713   O     0.12706   0.10654   0.75000   0.00000  Uiso   1.00
O714   O     0.20625   0.10655   0.75000   0.00000  Uiso   1.00
O715   O     0.14640   0.16667   0.67451   0.00000  Uiso   1.00
O716   O     0.22559   0.16668   0.67451   0.00000  Uiso   1.00
O717   O     0.28232   0.19867   0.56938   0.00000  Uiso   1.00
C718   C     0.30903   0.18947   0.60487   0.00000  Uiso   1.00
H719   H     0.31363   0.15574   0.61064   0.00000  Uiso   1.00
H720   H     0.29314   0.20610   0.64196   0.00000  Uiso   1.00
H721   H     0.01154   0.20341   0.59106   0.00000  Uiso   1.00
O722   O     0.03454   0.22120   0.81165   0.00000  Uiso   1.00
C723   C     0.33254   0.23756   0.85474   0.00000  Uiso   1.00
H724   H     0.01763   0.25276   0.88103   0.00000  Uiso   1.00
H725   H     0.30969   0.21289   0.87719   0.00000  Uiso   1.00
H726   H     0.31051   0.26200   0.84244   0.00000  Uiso   1.00
O727   O     0.30157   0.10988   0.69022   0.00000  Uiso   1.00
C728   C     0.31354   0.06915   0.70236   0.00000  Uiso   1.00
H729   H     0.30938   0.04790   0.67140   0.00000  Uiso   1.00
H730   H     0.01812   0.06454   0.70328   0.00000  Uiso   1.00
H731   H     0.28917   0.05959   0.74002   0.00000  Uiso   1.00
O732   O     0.28094   0.10135   0.91586   0.00000  Uiso   1.00
H733   H     0.28171   0.09223   0.88027   0.00000  Uiso   1.00
O734   O     0.31239   0.14755   0.98330   0.00000  Uiso   1.00
H735   H     0.31390   0.15921   0.94879   0.00000  Uiso   1.00
O736   O     0.07123   0.14720   0.56346   0.00000  Uiso   1.00
C737   C     0.06717   0.10372   0.56391   0.00000  Uiso   1.00
H738   H     0.10300   0.08795   0.55645   0.00000  Uiso   1.00
H739   H     0.04789   0.09304   0.53555   0.00000  Uiso   1.00
H740   H     0.04576   0.09437   0.60292   0.00000  Uiso   1.00
C741   C     0.49964   0.24581   0.75008   0.00000  Uiso   1.00
C742   C     0.47683   0.14913   0.98961   0.00000  Uiso   1.00
C743   C     0.49120   0.14564   0.93500   0.00000  Uiso   1.00
C744   C     0.51272   0.14679   0.51676   0.00000  Uiso   1.00
C745   C     0.56101   0.13746   0.98930   0.00000  Uiso   1.00
C746   C     0.57057   0.12089   0.93861   0.00000  Uiso   1.00
C747   C     0.53542   0.12544   0.91162   0.00000  Uiso   1.00
C748   C     0.50294   0.15802   0.56910   0.00000  Uiso   1.00
C749   C     0.58744   0.16593   0.56205   0.00000  Uiso   1.00
C750   C     0.46080   0.16271   0.90622   0.00000  Uiso   1.00
C751   C     0.53756   0.31101   0.71679   0.00000  Uiso   1.00
C752   C     0.47479   0.16477   0.84957   0.00000  Uiso   1.00
C753   C     0.53726   0.02055   0.71633   0.00000  Uiso   1.00
C754   C     0.49981   0.04281   0.75020   0.00000  Uiso   1.00
C755   C     0.46072   0.02225   0.78235   0.00000  Uiso   1.00
C756   C     0.46017   0.31262   0.78179   0.00000  Uiso   1.00
C757   C     0.49905   0.29042   0.74963   0.00000  Uiso   1.00
C758   C     0.63358   0.19395   0.78022   0.00000  Uiso   1.00
C759   C     0.34994   0.19354   0.78171   0.00000  Uiso   1.00
C760   C     0.36676   0.14054   0.71862   0.00000  Uiso   1.00
C761   C     0.65011   0.13839   0.72081   0.00000  Uiso   1.00
C762   C     0.50012   0.08749   0.75011   0.00000  Uiso   1.00
C763   C     0.52561   0.16781   0.65002   0.00000  Uiso   1.00
C764   C     0.59843   0.14845   0.51180   0.00000  Uiso   1.00
C765   C     0.53951   0.16422   0.59296   0.00000  Uiso   1.00
C766   C     0.41751   0.18241   0.93249   0.00000  Uiso   1.00
C767   C     0.40146   0.18090   0.98585   0.00000  Uiso   1.00
C768   C     0.42794   0.15941   0.51388   0.00000  Uiso   1.00
Cu769  Cu    0.45311   0.16666   0.75000   0.00000  Uiso   1.00
Cu770  Cu    0.54689   0.16667   0.75000   0.00000  Uiso   1.00
H771   H     0.56507   0.03641   0.68845   0.00000  Uiso   1.00
H772   H     0.43101   0.03941   0.80798   0.00000  Uiso   1.00
H773   H     0.43014   0.29674   0.80707   0.00000  Uiso   1.00
H774   H     0.60764   0.21587   0.80305   0.00000  Uiso   1.00
H775   H     0.39303   0.12104   0.69192   0.00000  Uiso   1.00
H776   H     0.46698   0.16448   0.59203   0.00000  Uiso   1.00
H777   H     0.39528   0.19817   0.91164   0.00000  Uiso   1.00
H778   H     0.36723   0.19505   0.50489   0.00000  Uiso   1.00
H779   H     0.54352   0.11382   0.87230   0.00000  Uiso   1.00
H780   H     0.56705   0.29392   0.69069   0.00000  Uiso   1.00
N781   N     0.38265   0.16666   0.74999   0.00000  Uiso   1.00
N782   N     0.61735   0.16669   0.75000   0.00000  Uiso   1.00
O783   O     0.46042   0.22678   0.75001   0.00000  Uiso   1.00
O784   O     0.53961   0.22679   0.75001   0.00000  Uiso   1.00
O785   O     0.44108   0.16665   0.82549   0.00000  Uiso   1.00
O786   O     0.52027   0.16666   0.82549   0.00000  Uiso   1.00
O787   O     0.46039   0.10654   0.75000   0.00000  Uiso   1.00
O788   O     0.53958   0.10655   0.75000   0.00000  Uiso   1.00
O789   O     0.47973   0.16667   0.67451   0.00000  Uiso   1.00
O790   O     0.55892   0.16668   0.67451   0.00000  Uiso   1.00
O791   O     0.61565   0.19867   0.56938   0.00000  Uiso   1.00
C792   C     0.64237   0.18947   0.60487   0.00000  Uiso   1.00
H793   H     0.64696   0.15574   0.61064   0.00000  Uiso   1.00
H794   H     0.62647   0.20610   0.64196   0.00000  Uiso   1.00
H795   H     0.34488   0.20341   0.59106   0.00000  Uiso   1.00
O796   O     0.36788   0.22120   0.81165   0.00000  Uiso   1.00
C797   C     0.66587   0.23756   0.85474   0.00000  Uiso   1.00
H798   H     0.35096   0.25276   0.88103   0.00000  Uiso   1.00
H799   H     0.64303   0.21289   0.87719   0.00000  Uiso   1.00
H800   H     0.64385   0.26200   0.84244   0.00000  Uiso   1.00
O801   O     0.63491   0.10988   0.69022   0.00000  Uiso   1.00
C802   C     0.64687   0.06915   0.70236   0.00000  Uiso   1.00
H803   H     0.64271   0.04790   0.67140   0.00000  Uiso   1.00
H804   H     0.35146   0.06454   0.70328   0.00000  Uiso   1.00
H805   H     0.62250   0.05959   0.74002   0.00000  Uiso   1.00
O806   O     0.61428   0.10135   0.91586   0.00000  Uiso   1.00
H807   H     0.61505   0.09223   0.88027   0.00000  Uiso   1.00
O808   O     0.64573   0.14755   0.98330   0.00000  Uiso   1.00
H809   H     0.64723   0.15921   0.94879   0.00000  Uiso   1.00
O810   O     0.40457   0.14720   0.56346   0.00000  Uiso   1.00
C811   C     0.40051   0.10372   0.56391   0.00000  Uiso   1.00
H812   H     0.43633   0.08795   0.55645   0.00000  Uiso   1.00
H813   H     0.38123   0.09304   0.53555   0.00000  Uiso   1.00
H814   H     0.37909   0.09437   0.60292   0.00000  Uiso   1.00
C815   C     0.83297   0.24581   0.75008   0.00000  Uiso   1.00
C816   C     0.81016   0.14913   0.98961   0.00000  Uiso   1.00
C817   C     0.82453   0.14564   0.93500   0.00000  Uiso   1.00
C818   C     0.84605   0.14679   0.51676   0.00000  Uiso   1.00
C819   C     0.89434   0.13746   0.98930   0.00000  Uiso   1.00
C820   C     0.90390   0.12089   0.93861   0.00000  Uiso   1.00
C821   C     0.86876   0.12544   0.91162   0.00000  Uiso   1.00
C822   C     0.83627   0.15802   0.56910   0.00000  Uiso   1.00
C823   C     0.92077   0.16593   0.56205   0.00000  Uiso   1.00
C824   C     0.79413   0.16271   0.90622   0.00000  Uiso   1.00
C825   C     0.87089   0.31101   0.71679   0.00000  Uiso   1.00
C826   C     0.80812   0.16477   0.84957   0.00000  Uiso   1.00
C827   C     0.87060   0.02055   0.71633   0.00000  Uiso   1.00
C828   C     0.83315   0.04281   0.75020   0.00000  Uiso   1.00
C829   C     0.79405   0.02225   0.78235   0.00000  Uiso   1.00
C830   C     0.79350   0.31262   0.78179   0.00000  Uiso   1.00
C831   C     0.83239   0.29042   0.74963   0.00000  Uiso   1.00
C832   C     0.96691   0.19395   0.78022   0.00000  Uiso   1.00
C833   C     0.68327   0.19354   0.78171   0.00000  Uiso   1.00
C834   C     0.70009   0.14054   0.71862   0.00000  Uiso   1.00
C835   C     0.98345   0.13839   0.72081   0.00000  Uiso   1.00
C836   C     0.83345   0.08749   0.75011   0.00000  Uiso   1.00
C837   C     0.85895   0.16781   0.65002   0.00000  Uiso   1.00
C838   C     0.93176   0.14845   0.51180   0.00000  Uiso   1.00
C839   C     0.87285   0.16422   0.59296   0.00000  Uiso   1.00
C840   C     0.75084   0.18241   0.93249   0.00000  Uiso   1.00
C841   C     0.73480   0.18090   0.98585   0.00000  Uiso   1.00
C842   C     0.76128   0.15941   0.51388   0.00000  Uiso   1.00
Cu843  Cu    0.78645   0.16666   0.75000   0.00000  Uiso   1.00
Cu844  Cu    0.88022   0.16667   0.75000   0.00000  Uiso   1.00
H845   H     0.89840   0.03641   0.68845   0.00000  Uiso   1.00
H846   H     0.76435   0.03941   0.80798   0.00000  Uiso   1.00
H847   H     0.76347   0.29674   0.80707   0.00000  Uiso   1.00
H848   H     0.94098   0.21587   0.80305   0.00000  Uiso   1.00
H849   H     0.72637   0.12104   0.69192   0.00000  Uiso   1.00
H850   H     0.80031   0.16448   0.59203   0.00000  Uiso   1.00
H851   H     0.72861   0.19817   0.91164   0.00000  Uiso   1.00
H852   H     0.70056   0.19505   0.50489   0.00000  Uiso   1.00
H853   H     0.87685   0.11382   0.87230   0.00000  Uiso   1.00
H854   H     0.90038   0.29392   0.69069   0.00000  Uiso   1.00
N855   N     0.71598   0.16666   0.74999   0.00000  Uiso   1.00
N856   N     0.95069   0.16669   0.75000   0.00000  Uiso   1.00
O857   O     0.79375   0.22678   0.75001   0.00000  Uiso   1.00
O858   O     0.87294   0.22679   0.75001   0.00000  Uiso   1.00
O859   O     0.77441   0.16665   0.82549   0.00000  Uiso   1.00
O860   O     0.85360   0.16666   0.82549   0.00000  Uiso   1.00
O861   O     0.79373   0.10654   0.75000   0.00000  Uiso   1.00
O862   O     0.87292   0.10655   0.75000   0.00000  Uiso   1.00
O863   O     0.81306   0.16667   0.67451   0.00000  Uiso   1.00
O864   O     0.89225   0.16668   0.67451   0.00000  Uiso   1.00
O865   O     0.94899   0.19867   0.56938   0.00000  Uiso   1.00
C866   C     0.97570   0.18947   0.60487   0.00000  Uiso   1.00
H867   H     0.98030   0.15574   0.61064   0.00000  Uiso   1.00
H868   H     0.95981   0.20610   0.64196   0.00000  Uiso   1.00
H869   H     0.67821   0.20341   0.59106   0.00000  Uiso   1.00
O870   O     0.70121   0.22120   0.81165   0.00000  Uiso   1.00
C871   C     0.99920   0.23756   0.85474   0.00000  Uiso   1.00
H872   H     0.68429   0.25276   0.88103   0.00000  Uiso   1.00
H873   H     0.97636   0.21289   0.87719   0.00000  Uiso   1.00
H874   H     0.97718   0.26200   0.84244   0.00000  Uiso   1.00
O875   O     0.96824   0.10988   0.69022   0.00000  Uiso   1.00
C876   C     0.98020   0.06915   0.70236   0.00000  Uiso   1.00
H877   H     0.97605   0.04790   0.67140   0.00000  Uiso   1.00
H878   H     0.68479   0.06454   0.70328   0.00000  Uiso   1.00
H879   H     0.95583   0.05959   0.74002   0.00000  Uiso   1.00
O880   O     0.94761   0.10135   0.91586   0.00000  Uiso   1.00
H881   H     0.94838   0.09223   0.88027   0.00000  Uiso   1.00
O882   O     0.97906   0.14755   0.98330   0.00000  Uiso   1.00
H883   H     0.98057   0.15921   0.94879   0.00000  Uiso   1.00
O884   O     0.73790   0.14720   0.56346   0.00000  Uiso   1.00
C885   C     0.73384   0.10372   0.56391   0.00000  Uiso   1.00
H886   H     0.76966   0.08795   0.55645   0.00000  Uiso   1.00
H887   H     0.71456   0.09304   0.53555   0.00000  Uiso   1.00
H888   H     0.71242   0.09437   0.60292   0.00000  Uiso   1.00
C889   C     0.16630   0.57915   0.75008   0.00000  Uiso   1.00
C890   C     0.14349   0.48246   0.98961   0.00000  Uiso   1.00
C891   C     0.15786   0.47897   0.93500   0.00000  Uiso   1.00
C892   C     0.17938   0.48012   0.51676   0.00000  Uiso   1.00
C893   C     0.22768   0.47080   0.98930   0.00000  Uiso   1.00
C894   C     0.23724   0.45422   0.93861   0.00000  Uiso   1.00
C895   C     0.20209   0.45878   0.91162   0.00000  Uiso   1.00
C896   C     0.16960   0.49135   0.56910   0.00000  Uiso   1.00
C897   C     0.25411   0.49927   0.56205   0.00000  Uiso   1.00
C898   C     0.12746   0.49604   0.90622   0.00000  Uiso   1.00
C899   C     0.20423   0.64434   0.71679   0.00000  Uiso   1.00
C900   C     0.14146   0.49810   0.84957   0.00000  Uiso   1.00
C901   C     0.20393   0.35388   0.71633   0.00000  Uiso   1.00
C902   C     0.16648   0.37614   0.75020   0.00000  Uiso   1.00
C903   C     0.12739   0.35558   0.78235   0.00000  Uiso   1.00
C904   C     0.12683   0.64595   0.78179   0.00000  Uiso   1.00
C905   C     0.16572   0.62375   0.74963   0.00000  Uiso   1.00
C906   C     0.30024   0.52728   0.78022   0.00000  Uiso   1.00
C907   C     0.01660   0.52687   0.78171   0.00000  Uiso   1.00
C908   C     0.03343   0.47388   0.71862   0.00000  Uiso   1.00
C909   C     0.31678   0.47172   0.72081   0.00000  Uiso   1.00
C910   C     0.16679   0.42082   0.75011   0.00000  Uiso   1.00
C911   C     0.19228   0.50115   0.65002   0.00000  Uiso   1.00
C912   C     0.26509   0.48178   0.51180   0.00000  Uiso   1.00
C913   C     0.20618   0.49755   0.59296   0.00000  Uiso   1.00
C914   C     0.08418   0.51574   0.93249   0.00000  Uiso   1.00
C915   C     0.06813   0.51423   0.98585   0.00000  Uiso   1.00
C916   C     0.09461   0.49275   0.51388   0.00000  Uiso   1.00
Cu917  Cu    0.11978   0.49999   0.75000   0.00000  Uiso   1.00
Cu918  Cu    0.21355   0.50001   0.75000   0.00000  Uiso   1.00
H919   H     0.23174   0.36974   0.68845   0.00000  Uiso   1.00
H920   H     0.09768   0.37275   0.80798   0.00000  Uiso   1.00
H921   H     0.09680   0.63007   0.80707   0.00000  Uiso   1.00
H922   H     0.27431   0.54921   0.80305   0.00000  Uiso   1.00
H923   H     0.05970   0.45437   0.69192   0.00000  Uiso   1.00
H924   H     0.13364   0.49782   0.59203   0.00000  Uiso   1.00
H925   H     0.06194   0.53150   0.91164   0.00000  Uiso   1.00
H926   H     0.03389   0.52838   0.50489   0.00000  Uiso   1.00
H927   H     0.21018   0.44715   0.87230   0.00000  Uiso   1.00
H928   H     0.23371   0.62725   0.69069   0.00000  Uiso   1.00
N929   N     0.04931   0.49999   0.74999   0.00000  Uiso   1.00
N930   N     0.28402   0.50002   0.75000   0.00000  Uiso   1.00
O931   O     0.12708   0.56011   0.75001   0.00000  Uiso   1.00
O932   O     0.20627   0.56012   0.75001   0.00000  Uiso   1.00
O933   O     0.10775   0.49998   0.82549   0.00000  Uiso   1.00
O934   O     0.18694   0.49999   0.82549   0.00000  Uiso   1.00
O935   O     0.12706   0.43988   0.75000   0.00000  Uiso   1.00
O936   O     0.20625   0.43989   0.75000   0.00000  Uiso   1.00
O937   O     0.14640   0.50001   0.67451   0.00000  Uiso   1.00
O938   O     0.22559   0.50002   0.67451   0.00000  Uiso   1.00
O939   O     0.28232   0.53200   0.56938   0.00000  Uiso   1.00
C940   C     0.30903   0.52280   0.60487   0.00000  Uiso   1.00
H941   H     0.31363   0.48907   0.61064   0.00000  Uiso   1.00
H942   H     0.29314   0.53943   0.64196   0.00000  Uiso   1.00
H943   H     0.01154   0.53674   0.59106   0.00000  Uiso   1.00
O944   O     0.03454   0.55453   0.81165   0.00000  Uiso   1.00
C945   C     0.33254   0.57090   0.85474   0.00000  Uiso   1.00
H946   H     0.01763   0.58609   0.88103   0.00000  Uiso   1.00
H947   H     0.30969   0.54623   0.87719   0.00000  Uiso   1.00
H948   H     0.31051   0.59533   0.84244   0.00000  Uiso   1.00
O949   O     0.30157   0.44322   0.69022   0.00000  Uiso   1.00
C950   C     0.31354   0.40248   0.70236   0.00000  Uiso   1.00
H951   H     0.30938   0.38124   0.67140   0.00000  Uiso   1.00
H952   H     0.01812   0.39788   0.70328   0.00000  Uiso   1.00
H953   H     0.28917   0.39292   0.74002   0.00000  Uiso   1.00
O954   O     0.28094   0.43469   0.91586   0.00000  Uiso   1.00
H955   H     0.28171   0.42556   0.88027   0.00000  Uiso   1.00
O956   O     0.31239   0.48088   0.98330   0.00000  Uiso   1.00
H957   H     0.31390   0.49255   0.94879   0.00000  Uiso   1.00
O958   O     0.07123   0.48053   0.56346   0.00000  Uiso   1.00
C959   C     0.06717   0.43705   0.56391   0.00000  Uiso   1.00
H960   H     0.10300   0.42128   0.55645   0.00000  Uiso   1.00
H961   H     0.04789   0.42638   0.53555   0.00000  Uiso   1.00
H962   H     0.04576   0.42771   0.60292   0.00000  Uiso   1.00
C963   C     0.49964   0.57915   0.75008   0.00000  Uiso   1.00
C964   C     0.47683   0.48246   0.98961   0.00000  Uiso   1.00
C965   C     0.49120   0.47897   0.93500   0.00000  Uiso   1.00
C966   C     0.51272   0.48012   0.51676   0.00000  Uiso   1.00
C967   C     0.56101   0.47080   0.98930   0.00000  Uiso   1.00
C968   C     0.57057   0.45422   0.93861   0.00000  Uiso   1.00
C969   C     0.53542   0.45878   0.91162   0.00000  Uiso   1.00
C970   C     0.50294   0.49135   0.56910   0.00000  Uiso   1.00
C971   C     0.58744   0.49927   0.56205   0.00000  Uiso   1.00
C972   C     0.46080   0.49604   0.90622   0.00000  Uiso   1.00
C973   C     0.53756   0.64434   0.71679   0.00000  Uiso   1.00
C974   C     0.47479   0.49810   0.84957   0.00000  Uiso   1.00
C975   C     0.53726   0.35388   0.71633   0.00000  Uiso   1.00
C976   C     0.49981   0.37614   0.75020   0.00000  Uiso   1.00
C977   C     0.46072   0.35558   0.78235   0.00000  Uiso   1.00
C978   C     0.46017   0.64595   0.78179   0.00000  Uiso   1.00
C979   C     0.49905   0.62375   0.74963   0.00000  Uiso   1.00
C980   C     0.63358   0.52728   0.78022   0.00000  Uiso   1.00
C981   C     0.34994   0.52687   0.78171   0.00000  Uiso   1.00
C982   C     0.36676   0.47388   0.71862   0.00000  Uiso   1.00
C983   C     0.65011   0.47172   0.72081   0.00000  Uiso   1.00
C984   C     0.50012   0.42082   0.75011   0.00000  Uiso   1.00
C985   C     0.52561   0.50115   0.65002   0.00000  Uiso   1.00
C986   C     0.59843   0.48178   0.51180   0.00000  Uiso   1.00
C987   C     0.53951   0.49755   0.59296   0.00000  Uiso   1.00
C988   C     0.41751   0.51574   0.93249   0.00000  Uiso   1.00
C989   C     0.40146   0.51423   0.98585   0.00000  Uiso   1.00
C990   C     0.42794   0.49275   0.51388   0.00000  Uiso   1.00
Cu991  Cu    0.45311   0.49999   0.75000   0.00000  Uiso   1.00
Cu992  Cu    0.54689   0.50001   0.75000   0.00000  Uiso   1.00
H993   H     0.56507   0.36974   0.68845   0.00000  Uiso   1.00
H994   H     0.43101   0.37275   0.80798   0.00000  Uiso   1.00
H995   H     0.43014   0.63007   0.80707   0.00000  Uiso   1.00
H996   H     0.60764   0.54921   0.80305   0.00000  Uiso   1.00
H997   H     0.39303   0.45437   0.69192   0.00000  Uiso   1.00
H998   H     0.46698   0.49782   0.59203   0.00000  Uiso   1.00
H999   H     0.39528   0.53150   0.91164   0.00000  Uiso   1.00
H1000  H     0.36723   0.52838   0.50489   0.00000  Uiso   1.00
H1001  H     0.54352   0.44715   0.87230   0.00000  Uiso   1.00
H1002  H     0.56705   0.62725   0.69069   0.00000  Uiso   1.00
N1003  N     0.38265   0.49999   0.74999   0.00000  Uiso   1.00
N1004  N     0.61735   0.50002   0.75000   0.00000  Uiso   1.00
O1005  O     0.46042   0.56011   0.75001   0.00000  Uiso   1.00
O1006  O     0.53961   0.56012   0.75001   0.00000  Uiso   1.00
O1007  O     0.44108   0.49998   0.82549   0.00000  Uiso   1.00
O1008  O     0.52027   0.49999   0.82549   0.00000  Uiso   1.00
O1009  O     0.46039   0.43988   0.75000   0.00000  Uiso   1.00
O1010  O     0.53958   0.43989   0.75000   0.00000  Uiso   1.00
O1011  O     0.47973   0.50001   0.67451   0.00000  Uiso   1.00
O1012  O     0.55892   0.50002   0.67451   0.00000  Uiso   1.00
O1013  O     0.61565   0.53200   0.56938   0.00000  Uiso   1.00
C1014  C     0.64237   0.52280   0.60487   0.00000  Uiso   1.00
H1015  H     0.64696   0.48907   0.61064   0.00000  Uiso   1.00
H1016  H     0.62647   0.53943   0.64196   0.00000  Uiso   1.00
H1017  H     0.34488   0.53674   0.59106   0.00000  Uiso   1.00
O1018  O     0.36788   0.55453   0.81165   0.00000  Uiso   1.00
C1019  C     0.66587   0.57090   0.85474   0.00000  Uiso   1.00
H1020  H     0.35096   0.58609   0.88103   0.00000  Uiso   1.00
H1021  H     0.64303   0.54623   0.87719   0.00000  Uiso   1.00
H1022  H     0.64385   0.59533   0.84244   0.00000  Uiso   1.00
O1023  O     0.63491   0.44322   0.69022   0.00000  Uiso   1.00
C1024  C     0.64687   0.40248   0.70236   0.00000  Uiso   1.00
H1025  H     0.64271   0.38124   0.67140   0.00000  Uiso   1.00
H1026  H     0.35146   0.39788   0.70328   0.00000  Uiso   1.00
H1027  H     0.62250   0.39292   0.74002   0.00000  Uiso   1.00
O1028  O     0.61428   0.43469   0.91586   0.00000  Uiso   1.00
H1029  H     0.61505   0.42556   0.88027   0.00000  Uiso   1.00
O1030  O     0.64573   0.48088   0.98330   0.00000  Uiso   1.00
H1031  H     0.64723   0.49255   0.94879   0.00000  Uiso   1.00
O1032  O     0.40457   0.48053   0.56346   0.00000  Uiso   1.00
C1033  C     0.40051   0.43705   0.56391   0.00000  Uiso   1.00
H1034  H     0.43633   0.42128   0.55645   0.00000  Uiso   1.00
H1035  H     0.38123   0.42638   0.53555   0.00000  Uiso   1.00
H1036  H     0.37909   0.42771   0.60292   0.00000  Uiso   1.00
C1037  C     0.83297   0.57915   0.75008   0.00000  Uiso   1.00
C1038  C     0.81016   0.48246   0.98961   0.00000  Uiso   1.00
C1039  C     0.82453   0.47897   0.93500   0.00000  Uiso   1.00
C1040  C     0.84605   0.48012   0.51676   0.00000  Uiso   1.00
C1041  C     0.89434   0.47080   0.98930   0.00000  Uiso   1.00
C1042  C     0.90390   0.45422   0.93861   0.00000  Uiso   1.00
C1043  C     0.86876   0.45878   0.91162   0.00000  Uiso   1.00
C1044  C     0.83627   0.49135   0.56910   0.00000  Uiso   1.00
C1045  C     0.92077   0.49927   0.56205   0.00000  Uiso   1.00
C1046  C     0.79413   0.49604   0.90622   0.00000  Uiso   1.00
C1047  C     0.87089   0.64434   0.71679   0.00000  Uiso   1.00
C1048  C     0.80812   0.49810   0.84957   0.00000  Uiso   1.00
C1049  C     0.87060   0.35388   0.71633   0.00000  Uiso   1.00
C1050  C     0.83315   0.37614   0.75020   0.00000  Uiso   1.00
C1051  C     0.79405   0.35558   0.78235   0.00000  Uiso   1.00
C1052  C     0.79350   0.64595   0.78179   0.00000  Uiso   1.00
C1053  C     0.83239   0.62375   0.74963   0.00000  Uiso   1.00
C1054  C     0.96691   0.52728   0.78022   0.00000  Uiso   1.00
C1055  C     0.68327   0.52687   0.78171   0.00000  Uiso   1.00
C1056  C     0.70009   0.47388   0.71862   0.00000  Uiso   1.00
C1057  C     0.98345   0.47172   0.72081   0.00000  Uiso   1.00
C1058  C     0.83345   0.42082   0.75011   0.00000  Uiso   1.00
C1059  C     0.85895   0.50115   0.65002   0.00000  Uiso   1.00
C1060  C     0.93176   0.48178   0.51180   0.00000  Uiso   1.00
C1061  C     0.87285   0.49755   0.59296   0.00000  Uiso   1.00
C1062  C     0.75084   0.51574   0.93249   0.00000  Uiso   1.00
C1063  C     0.73480   0.51423   0.98585   0.00000  Uiso   1.00
C1064  C     0.76128   0.49275   0.51388   0.00000  Uiso   1.00
Cu1065 Cu    0.78645   0.49999   0.75000   0.00000  Uiso   1.00
Cu1066 Cu    0.88022   0.50001   0.75000   0.00000  Uiso   1.00
H1067  H     0.89840   0.36974   0.68845   0.00000  Uiso   1.00
H1068  H     0.76435   0.37275   0.80798   0.00000  Uiso   1.00
H1069  H     0.76347   0.63007   0.80707   0.00000  Uiso   1.00
H1070  H     0.94098   0.54921   0.80305   0.00000  Uiso   1.00
H1071  H     0.72637   0.45437   0.69192   0.00000  Uiso   1.00
H1072  H     0.80031   0.49782   0.59203   0.00000  Uiso   1.00
H1073  H     0.72861   0.53150   0.91164   0.00000  Uiso   1.00
H1074  H     0.70056   0.52838   0.50489   0.00000  Uiso   1.00
H1075  H     0.87685   0.44715   0.87230   0.00000  Uiso   1.00
H1076  H     0.90038   0.62725   0.69069   0.00000  Uiso   1.00
N1077  N     0.71598   0.49999   0.74999   0.00000  Uiso   1.00
N1078  N     0.95069   0.50002   0.75000   0.00000  Uiso   1.00
O1079  O     0.79375   0.56011   0.75001   0.00000  Uiso   1.00
O1080  O     0.87294   0.56012   0.75001   0.00000  Uiso   1.00
O1081  O     0.77441   0.49998   0.82549   0.00000  Uiso   1.00
O1082  O     0.85360   0.49999   0.82549   0.00000  Uiso   1.00
O1083  O     0.79373   0.43988   0.75000   0.00000  Uiso   1.00
O1084  O     0.87292   0.43989   0.75000   0.00000  Uiso   1.00
O1085  O     0.81306   0.50001   0.67451   0.00000  Uiso   1.00
O1086  O     0.89225   0.50002   0.67451   0.00000  Uiso   1.00
O1087  O     0.94899   0.53200   0.56938   0.00000  Uiso   1.00
C1088  C     0.97570   0.52280   0.60487   0.00000  Uiso   1.00
H1089  H     0.98030   0.48907   0.61064   0.00000  Uiso   1.00
H1090  H     0.95981   0.53943   0.64196   0.00000  Uiso   1.00
H1091  H     0.67821   0.53674   0.59106   0.00000  Uiso   1.00
O1092  O     0.70121   0.55453   0.81165   0.00000  Uiso   1.00
C1093  C     0.99920   0.57090   0.85474   0.00000  Uiso   1.00
H1094  H     0.68429   0.58609   0.88103   0.00000  Uiso   1.00
H1095  H     0.97636   0.54623   0.87719   0.00000  Uiso   1.00
H1096  H     0.97718   0.59533   0.84244   0.00000  Uiso   1.00
O1097  O     0.96824   0.44322   0.69022   0.00000  Uiso   1.00
C1098  C     0.98020   0.40248   0.70236   0.00000  Uiso   1.00
H1099  H     0.97605   0.38124   0.67140   0.00000  Uiso   1.00
H1100  H     0.68479   0.39788   0.70328   0.00000  Uiso   1.00
H1101  H     0.95583   0.39292   0.74002   0.00000  Uiso   1.00
O1102  O     0.94761   0.43469   0.91586   0.00000  Uiso   1.00
H1103  H     0.94838   0.42556   0.88027   0.00000  Uiso   1.00
O1104  O     0.97906   0.48088   0.98330   0.00000  Uiso   1.00
H1105  H     0.98057   0.49255   0.94879   0.00000  Uiso   1.00
O1106  O     0.73790   0.48053   0.56346   0.00000  Uiso   1.00
C1107  C     0.73384   0.43705   0.56391   0.00000  Uiso   1.00
H1108  H     0.76966   0.42128   0.55645   0.00000  Uiso   1.00
H1109  H     0.71456   0.42638   0.53555   0.00000  Uiso   1.00
H1110  H     0.71242   0.42771   0.60292   0.00000  Uiso   1.00
C1111  C     0.16630   0.91248   0.75008   0.00000  Uiso   1.00
C1112  C     0.14349   0.81580   0.98961   0.00000  Uiso   1.00
C1113  C     0.15786   0.81230   0.93500   0.00000  Uiso   1.00
C1114  C     0.17938   0.81345   0.51676   0.00000  Uiso   1.00
C1115  C     0.22768   0.80413   0.98930   0.00000  Uiso   1.00
C1116  C     0.23724   0.78755   0.93861   0.00000  Uiso   1.00
C1117  C     0.20209   0.79211   0.91162   0.00000  Uiso   1.00
C1118  C     0.16960   0.82468   0.56910   0.00000  Uiso   1.00
C1119  C     0.25411   0.83260   0.56205   0.00000  Uiso   1.00
C1120  C     0.12746   0.82937   0.90622   0.00000  Uiso   1.00
C1121  C     0.20423   0.97767   0.71679   0.00000  Uiso   1.00
C1122  C     0.14146   0.83143   0.84957   0.00000  Uiso   1.00
C1123  C     0.20393   0.68722   0.71633   0.00000  Uiso   1.00
C1124  C     0.16648   0.70948   0.75020   0.00000  Uiso   1.00
C1125  C     0.12739   0.68892   0.78235   0.00000  Uiso   1.00
C1126  C     0.12683   0.97928   0.78179   0.00000  Uiso   1.00
C1127  C     0.16572   0.95709   0.74963   0.00000  Uiso   1.00
C1128  C     0.30024   0.86061   0.78022   0.00000  Uiso   1.00
C1129  C     0.01660   0.86020   0.78171   0.00000  Uiso   1.00
C1130  C     0.03343   0.80721   0.71862   0.00000  Uiso   1.00
C1131  C     0.31678   0.80506   0.72081   0.00000  Uiso   1.00
C1132  C     0.16679   0.75415   0.75011   0.00000  Uiso   1.00
C1133  C     0.19228   0.83448   0.65002   0.00000  Uiso   1.00
C1134  C     0.26509   0.81512   0.51180   0.00000  Uiso   1.00
C1135  C     0.20618   0.83089   0.59296   0.00000  Uiso   1.00
C1136  C     0.08418   0.84907   0.93249   0.00000  Uiso   1.00
C1137  C     0.06813   0.84756   0.98585   0.00000  Uiso   1.00
C1138  C     0.09461   0.82608   0.51388   0.00000  Uiso   1.00
Cu1139 Cu    0.11978   0.83333   0.75000   0.00000  Uiso   1.00
Cu1140 Cu    0.21355   0.83334   0.75000   0.00000  Uiso   1.00
H1141  H     0.23174   0.70308   0.68845   0.00000  Uiso   1.00
H1142  H     0.09768   0.70608   0.80798   0.00000  Uiso   1.00
H1143  H     0.09680   0.96341   0.80707   0.00000  Uiso   1.00
H1144  H     0.27431   0.88254   0.80305   0.00000  Uiso   1.00
H1145  H     0.05970   0.78770   0.69192   0.00000  Uiso   1.00
H1146  H     0.13364   0.83115   0.59203   0.00000  Uiso   1.00
H1147  H     0.06194   0.86484   0.91164   0.00000  Uiso   1.00
H1148  H     0.03389   0.86171   0.50489   0.00000  Uiso   1.00
H1149  H     0.21018   0.78049   0.87230   0.00000  Uiso   1.00
H1150  H     0.23371   0.96059   0.69069   0.00000  Uiso   1.00
N1151  N     0.04931   0.83332   0.74999   0.00000  Uiso   1.00
N1152  N     0.28402   0.83335   0.75000   0.00000  Uiso   1.00
O1153  O     0.12708   0.89345   0.75001   0.00000  Uiso   1.00
O1154  O     0.20627   0.89346   0.75001   0.00000  Uiso   1.00
O1155  O     0.10775   0.83332   0.82549   0.00000  Uiso   1.00
O1156  O     0.18694   0.83333   0.82549   0.00000  Uiso   1.00
O1157  O     0.12706   0.77321   0.75000   0.00000  Uiso   1.00
O1158  O     0.20625   0.77322   0.75000   0.00000  Uiso   1.00
O1159  O     0.14640   0.83334   0.67451   0.00000  Uiso   1.00
O1160  O     0.22559   0.83335   0.67451   0.00000  Uiso   1.00
O1161  O     0.28232   0.86533   0.56938   0.00000  Uiso   1.00
C1162  C     0.30903   0.85613   0.60487   0.00000  Uiso   1.00
H1163  H     0.31363   0.82240   0.61064   0.00000  Uiso   1.00
H1164  H     0.29314   0.87276   0.64196   0.00000  Uiso   1.00
H1165  H     0.01154   0.87007   0.59106   0.00000  Uiso   1.00
O1166  O     0.03454   0.88787   0.81165   0.00000  Uiso   1.00
C1167  C     0.33254   0.90423   0.85474   0.00000  Uiso   1.00
H1168  H     0.01763   0.91943   0.88103   0.00000  Uiso   1.00
H1169  H     0.30969   0.87956   0.87719   0.00000  Uiso   1.00
H1170  H     0.31051   0.92866   0.84244   0.00000  Uiso   1.00
O1171  O     0.30157   0.77655   0.69022   0.00000  Uiso   1.00
C1172  C     0.31354   0.73582   0.70236   0.00000  Uiso   1.00
H1173  H     0.30938   0.71457   0.67140   0.00000  Uiso   1.00
H1174  H     0.01812   0.73121   0.70328   0.00000  Uiso   1.00
H1175  H     0.28917   0.72625   0.74002   0.00000  Uiso   1.00
O1176  O     0.28094   0.76802   0.91586   0.00000  Uiso   1.00
H1177  H     0.28171   0.75890   0.88027   0.00000  Uiso   1.00
O1178  O     0.31239   0.81422   0.98330   0.00000  Uiso   1.00
H1179  H     0.31390   0.82588   0.94879   0.00000  Uiso   1.00
O1180  O     0.07123   0.81387   0.56346   0.00000  Uiso   1.00
C1181  C     0.06717   0.77039   0.56391   0.00000  Uiso   1.00
H1182  H     0.10300   0.75462   0.55645   0.00000  Uiso   1.00
H1183  H     0.04789   0.75971   0.53555   0.00000  Uiso   1.00
H1184  H     0.04576   0.76104   0.60292   0.00000  Uiso   1.00
C1185  C     0.49964   0.91248   0.75008   0.00000  Uiso   1.00
C1186  C     0.47683   0.81580   0.98961   0.00000  Uiso   1.00
C1187  C     0.49120   0.81230   0.93500   0.00000  Uiso   1.00
C1188  C     0.51272   0.81345   0.51676   0.00000  Uiso   1.00
C1189  C     0.56101   0.80413   0.98930   0.00000  Uiso   1.00
C1190  C     0.57057   0.78755   0.93861   0.00000  Uiso   1.00
C1191  C     0.53542   0.79211   0.91162   0.00000  Uiso   1.00
C1192  C     0.50294   0.82468   0.56910   0.00000  Uiso   1.00
C1193  C     0.58744   0.83260   0.56205   0.00000  Uiso   1.00
C1194  C     0.46080   0.82937   0.90622   0.00000  Uiso   1.00
C1195  C     0.53756   0.97767   0.71679   0.00000  Uiso   1.00
C1196  C     0.47479   0.83143   0.84957   0.00000  Uiso   1.00
C1197  C     0.53726   0.68722   0.71633   0.00000  Uiso   1.00
C1198  C     0.49981   0.70948   0.75020   0.00000  Uiso   1.00
C1199  C     0.46072   0.68892   0.78235   0.00000  Uiso   1.00
C1200  C     0.46017   0.97928   0.78179   0.00000  Uiso   1.00
C1201  C     0.49905   0.95709   0.74963   0.00000  Uiso   1.00
C1202  C     0.63358   0.86061   0.78022   0.00000  Uiso   1.00
C1203  C     0.34994   0.86020   0.78171   0.00000  Uiso   1.00
C1204  C     0.36676   0.80721   0.71862   0.00000  Uiso   1.00
C1205  C     0.65011   0.80506   0.72081   0.00000  Uiso   1.00
C1206  C     0.50012   0.75415   0.75011   0.00000  Uiso   1.00
C1207  C     0.52561   0.83448   0.65002   0.00000  Uiso   1.00
C1208  C     0.59843   0.81512   0.51180   0.00000  Uiso   1.00
C1209  C     0.53951   0.83089   0.59296   0.00000  Uiso   1.00
C1210  C     0.41751   0.84907   0.93249   0.00000  Uiso   1.00
C1211  C     0.40146   0.84756   0.98585   0.00000  Uiso   1.00
C1212  C     0.42794   0.82608   0.51388   0.00000  Uiso   1.00
Cu1213 Cu    0.45311   0.83333   0.75000   0.00000  Uiso   1.00
Cu1214 Cu    0.54689   0.83334   0.75000   0.00000  Uiso   1.00
H1215  H     0.56507   0.70308   0.68845   0.00000  Uiso   1.00
H1216  H     0.43101   0.70608   0.80798   0.00000  Uiso   1.00
H1217  H     0.43014   0.96341   0.80707   0.00000  Uiso   1.00
H1218  H     0.60764   0.88254   0.80305   0.00000  Uiso   1.00
H1219  H     0.39303   0.78770   0.69192   0.00000  Uiso   1.00
H1220  H     0.46698   0.83115   0.59203   0.00000  Uiso   1.00
H1221  H     0.39528   0.86484   0.91164   0.00000  Uiso   1.00
H1222  H     0.36723   0.86171   0.50489   0.00000  Uiso   1.00
H1223  H     0.54352   0.78049   0.87230   0.00000  Uiso   1.00
H1224  H     0.56705   0.96059   0.69069   0.00000  Uiso   1.00
N1225  N     0.38265   0.83332   0.74999   0.00000  Uiso   1.00
N1226  N     0.61735   0.83335   0.75000   0.00000  Uiso   1.00
O1227  O     0.46042   0.89345   0.75001   0.00000  Uiso   1.00
O1228  O     0.53961   0.89346   0.75001   0.00000  Uiso   1.00
O1229  O     0.44108   0.83332   0.82549   0.00000  Uiso   1.00
O1230  O     0.52027   0.83333   0.82549   0.00000  Uiso   1.00
O1231  O     0.46039   0.77321   0.75000   0.00000  Uiso   1.00
O1232  O     0.53958   0.77322   0.75000   0.00000  Uiso   1.00
O1233  O     0.47973   0.83334   0.67451   0.00000  Uiso   1.00
O1234  O     0.55892   0.83335   0.67451   0.00000  Uiso   1.00
O1235  O     0.61565   0.86533   0.56938   0.00000  Uiso   1.00
C1236  C     0.64237   0.85613   0.60487   0.00000  Uiso   1.00
H1237  H     0.64696   0.82240   0.61064   0.00000  Uiso   1.00
H1238  H     0.62647   0.87276   0.64196   0.00000  Uiso   1.00
H1239  H     0.34488   0.87007   0.59106   0.00000  Uiso   1.00
O1240  O     0.36788   0.88787   0.81165   0.00000  Uiso   1.00
C1241  C     0.66587   0.90423   0.85474   0.00000  Uiso   1.00
H1242  H     0.35096   0.91943   0.88103   0.00000  Uiso   1.00
H1243  H     0.64303   0.87956   0.87719   0.00000  Uiso   1.00
H1244  H     0.64385   0.92866   0.84244   0.00000  Uiso   1.00
O1245  O     0.63491   0.77655   0.69022   0.00000  Uiso   1.00
C1246  C     0.64687   0.73582   0.70236   0.00000  Uiso   1.00
H1247  H     0.64271   0.71457   0.67140   0.00000  Uiso   1.00
H1248  H     0.35146   0.73121   0.70328   0.00000  Uiso   1.00
H1249  H     0.62250   0.72625   0.74002   0.00000  Uiso   1.00
O1250  O     0.61428   0.76802   0.91586   0.00000  Uiso   1.00
H1251  H     0.61505   0.75890   0.88027   0.00000  Uiso   1.00
O1252  O     0.64573   0.81422   0.98330   0.00000  Uiso   1.00
H1253  H     0.64723   0.82588   0.94879   0.00000  Uiso   1.00
O1254  O     0.40457   0.81387   0.56346   0.00000  Uiso   1.00
C1255  C     0.40051   0.77039   0.56391   0.00000  Uiso   1.00
H1256  H     0.43633   0.75462   0.55645   0.00000  Uiso   1.00
H1257  H     0.38123   0.75971   0.53555   0.00000  Uiso   1.00
H1258  H     0.37909   0.76104   0.60292   0.00000  Uiso   1.00
C1259  C     0.83297   0.91248   0.75008   0.00000  Uiso   1.00
C1260  C     0.81016   0.81580   0.98961   0.00000  Uiso   1.00
C1261  C     0.82453   0.81230   0.93500   0.00000  Uiso   1.00
C1262  C     0.84605   0.81345   0.51676   0.00000  Uiso   1.00
C1263  C     0.89434   0.80413   0.98930   0.00000  Uiso   1.00
C1264  C     0.90390   0.78755   0.93861   0.00000  Uiso   1.00
C1265  C     0.86876   0.79211   0.91162   0.00000  Uiso   1.00
C1266  C     0.83627   0.82468   0.56910   0.00000  Uiso   1.00
C1267  C     0.92077   0.83260   0.56205   0.00000  Uiso   1.00
C1268  C     0.79413   0.82937   0.90622   0.00000  Uiso   1.00
C1269  C     0.87089   0.97767   0.71679   0.00000  Uiso   1.00
C1270  C     0.80812   0.83143   0.84957   0.00000  Uiso   1.00
C1271  C     0.87060   0.68722   0.71633   0.00000  Uiso   1.00
C1272  C     0.83315   0.70948   0.75020   0.00000  Uiso   1.00
C1273  C     0.79405   0.68892   0.78235   0.00000  Uiso   1.00
C1274  C     0.79350   0.97928   0.78179   0.00000  Uiso   1.00
C1275  C     0.83239   0.95709   0.74963   0.00000  Uiso   1.00
C1276  C     0.96691   0.86061   0.78022   0.00000  Uiso   1.00
C1277  C     0.68327   0.86020   0.78171   0.00000  Uiso   1.00
C1278  C     0.70009   0.80721   0.71862   0.00000  Uiso   1.00
C1279  C     0.98345   0.80506   0.72081   0.00000  Uiso   1.00
C1280  C     0.83345   0.75415   0.75011   0.00000  Uiso   1.00
C1281  C     0.85895   0.83448   0.65002   0.00000  Uiso   1.00
C1282  C     0.93176   0.81512   0.51180   0.00000  Uiso   1.00
C1283  C     0.87285   0.83089   0.59296   0.00000  Uiso   1.00
C1284  C     0.75084   0.84907   0.93249   0.00000  Uiso   1.00
C1285  C     0.73480   0.84756   0.98585   0.00000  Uiso   1.00
C1286  C     0.76128   0.82608   0.51388   0.00000  Uiso   1.00
Cu1287 Cu    0.78645   0.83333   0.75000   0.00000  Uiso   1.00
Cu1288 Cu    0.88022   0.83334   0.75000   0.00000  Uiso   1.00
H1289  H     0.89840   0.70308   0.68845   0.00000  Uiso   1.00
H1290  H     0.76435   0.70608   0.80798   0.00000  Uiso   1.00
H1291  H     0.76347   0.96341   0.80707   0.00000  Uiso   1.00
H1292  H     0.94098   0.88254   0.80305   0.00000  Uiso   1.00
H1293  H     0.72637   0.78770   0.69192   0.00000  Uiso   1.00
H1294  H     0.80031   0.83115   0.59203   0.00000  Uiso   1.00
H1295  H     0.72861   0.86484   0.91164   0.00000  Uiso   1.00
H1296  H     0.70056   0.86171   0.50489   0.00000  Uiso   1.00
H1297  H     0.87685   0.78049   0.87230   0.00000  Uiso   1.00
H1298  H     0.90038   0.96059   0.69069   0.00000  Uiso   1.00
N1299  N     0.71598   0.83332   0.74999   0.00000  Uiso   1.00
N1300  N     0.95069   0.83335   0.75000   0.00000  Uiso   1.00
O1301  O     0.79375   0.89345   0.75001   0.00000  Uiso   1.00
O1302  O     0.87294   0.89346   0.75001   0.00000  Uiso   1.00
O1303  O     0.77441   0.83332   0.82549   0.00000  Uiso   1.00
O1304  O     0.85360   0.83333   0.82549   0.00000  Uiso   1.00
O1305  O     0.79373   0.77321   0.75000   0.00000  Uiso   1.00
O1306  O     0.87292   0.77322   0.75000   0.00000  Uiso   1.00
O1307  O     0.81306   0.83334   0.67451   0.00000  Uiso   1.00
O1308  O     0.89225   0.83335   0.67451   0.00000  Uiso   1.00
O1309  O     0.94899   0.86533   0.56938   0.00000  Uiso   1.00
C1310  C     0.97570   0.85613   0.60487   0.00000  Uiso   1.00
H1311  H     0.98030   0.82240   0.61064   0.00000  Uiso   1.00
H1312  H     0.95981   0.87276   0.64196   0.00000  Uiso   1.00
H1313  H     0.67821   0.87007   0.59106   0.00000  Uiso   1.00
O1314  O     0.70121   0.88787   0.81165   0.00000  Uiso   1.00
C1315  C     0.99920   0.90423   0.85474   0.00000  Uiso   1.00
H1316  H     0.68429   0.91943   0.88103   0.00000  Uiso   1.00
H1317  H     0.97636   0.87956   0.87719   0.00000  Uiso   1.00
H1318  H     0.97718   0.92866   0.84244   0.00000  Uiso   1.00
O1319  O     0.96824   0.77655   0.69022   0.00000  Uiso   1.00
C1320  C     0.98020   0.73582   0.70236   0.00000  Uiso   1.00
H1321  H     0.97605   0.71457   0.67140   0.00000  Uiso   1.00
H1322  H     0.68479   0.73121   0.70328   0.00000  Uiso   1.00
H1323  H     0.95583   0.72625   0.74002   0.00000  Uiso   1.00
O1324  O     0.94761   0.76802   0.91586   0.00000  Uiso   1.00
H1325  H     0.94838   0.75890   0.88027   0.00000  Uiso   1.00
O1326  O     0.97906   0.81422   0.98330   0.00000  Uiso   1.00
H1327  H     0.98057   0.82588   0.94879   0.00000  Uiso   1.00
O1328  O     0.73790   0.81387   0.56346   0.00000  Uiso   1.00
C1329  C     0.73384   0.77039   0.56391   0.00000  Uiso   1.00
H1330  H     0.76966   0.75462   0.55645   0.00000  Uiso   1.00
H1331  H     0.71456   0.75971   0.53555   0.00000  Uiso   1.00
H1332  H     0.71242   0.76104   0.60292   0.00000  Uiso   1.00
loop_
_geom_bond_atom_site_label_1
_geom_bond_atom_site_label_2
_geom_bond_distance
_geom_bond_site_symmetry_2
_ccdc_geom_bond_type
C1     O44     1.297   .     A
C1     O43     1.298   .     A
C1     C17     1.441   .     S
C2     C3      1.413   .     A
C2     C670    1.420   .     S
C2     C694    1.417   .     S
C3     C10     1.423   .     A
C3     C7      1.407   .     A
C4     C8      1.399   .     A
C4     C668    1.420   1_554 S
C4     C671    1.415   1_554 S
C5     C6      1.412   .     A
C5     C670    1.415   .     S
C5     C690    1.422   .     S
C6     C7      1.403   .     A
C6     O66     1.383   .     S
C7     H39     1.080   .     S
C8     C25     1.392   .     A
C8     H36     1.069   .     S
C9     C24     1.411   .     A
C9     O51     1.391   .     S
C9     C25     1.409   .     A
C10    C26     1.397   .     A
C10    C12     1.464   .     S
C11    H40     1.084   .     S
C11    C17     1.398   .     A
C11    C235    1.385   .     S
C12    O45     1.306   .     A
C12    O46     1.299   .     A
C13    C14     1.394   .     A
C13    H31     1.076   .     S
C13    C455    1.385   1_545 S
C14    C22     1.443   .     S
C14    C15     1.401   .     A
C15    H32     1.084   .     S
C15    C460    1.388   1_545 S
C16    H33     1.084   .     S
C16    C17     1.399   .     A
C16    C237    1.388   .     S
C18    H34     1.079   .     S
C18    N42     1.365   .     A
C18    C93     1.445   .     S
C19    O56     1.395   .     S
C19    N41     1.377   .     A
C19    C166    1.445   1_455 S
C20    N41     1.358   .     A
C20    H35     1.081   .     S
C20    C169    1.431   1_455 S
C21    O61     1.384   .     S
C21    N42     1.379   .     A
C21    C94     1.431   .     S
C22    O48     1.304   .     A
C22    O47     1.292   .     A
C23    C25     1.476   .     S
C23    O49     1.310   .     A
C23    O50     1.303   .     A
C24    C671    1.422   1_554 S
C24    O734    1.371   1_554 S
C26    H37     1.081   .     S
C26    C27     1.381   .     A
C27    C694    1.389   .     S
C27    H704    1.074   .     S
C28    O70     1.381   .     S
C28    C668    1.417   1_554 S
C28    C693    1.389   1_554 S
Cu29   O49     1.961   .     S
Cu29   O43     1.957   .     S
Cu29   Cu30    2.707   .     S
Cu29   O47     1.949   .     S
Cu29   N41     2.034   .     S
Cu29   O45     1.959   .     S
Cu30   N42     2.034   .     S
Cu30   O50     1.959   .     S
Cu30   O44     1.949   .     S
Cu30   O48     1.957   .     S
Cu30   O46     1.961   .     S
H38    C693    1.074   1_554 S
O51    C52     1.408   .     S
C52    H54     1.107   .     S
C52    H53     1.112   .     S
C52    H129    1.105   .     S
H55    C200    1.105   1_455 S
O56    C205    1.411   1_455 S
C57    H59     1.114   .     S
C57    H60     1.111   .     S
C57    O130    1.411   .     S
C57    H132    1.109   .     S
H58    C205    1.109   1_455 S
O61    C62     1.416   .     S
C62    H63     1.107   .     S
C62    H65     1.111   .     S
C62    H138    1.109   .     S
H64    C210    1.109   1_455 S
O66    H67     0.992   .     S
O68    H69     0.991   .     S
O68    C690    1.371   .     S
O70    C71     1.411   .     S
C71    H74     1.107   .     S
C71    H72     1.112   .     S
C71    H73     1.114   .     S
C75    O118    1.297   .     A
C75    O117    1.298   .     A
C75    C91     1.441   .     S
C76    C77     1.413   .     A
C76    C744    1.420   .     S
C76    C768    1.417   .     S
C77    C84     1.423   .     A
C77    C81     1.407   .     A
C78    C82     1.399   .     A
C78    C742    1.420   1_554 S
C78    C745    1.415   1_554 S
C79    C80     1.412   .     A
C79    C744    1.415   .     S
C79    C764    1.422   .     S
C80    C81     1.403   .     A
C80    O140    1.383   .     S
C81    H113    1.080   .     S
C82    C99     1.392   .     A
C82    H110    1.069   .     S
C83    C98     1.411   .     A
C83    O125    1.391   .     S
C83    C99     1.409   .     A
C84    C100    1.397   .     A
C84    C86     1.464   .     S
C85    H114    1.084   .     S
C85    C91     1.398   .     A
C85    C309    1.385   .     S
C86    O119    1.306   .     A
C86    O120    1.299   .     A
C87    C88     1.394   .     A
C87    H105    1.076   .     S
C87    C529    1.385   1_545 S
C88    C96     1.443   .     S
C88    C89     1.401   .     A
C89    H106    1.084   .     S
C89    C534    1.388   1_545 S
C90    H107    1.084   .     S
C90    C91     1.399   .     A
C90    C311    1.388   .     S
C92    H108    1.079   .     S
C92    N116    1.365   .     A
C92    C167    1.445   .     S
C93    O130    1.395   .     S
C93    N115    1.377   .     A
C94    N115    1.358   .     A
C94    H109    1.081   .     S
C95    O135    1.384   .     S
C95    N116    1.379   .     A
C95    C168    1.431   .     S
C96    O122    1.304   .     A
C96    O121    1.292   .     A
C97    C99     1.476   .     S
C97    O123    1.310   .     A
C97    O124    1.303   .     A
C98    C745    1.422   1_554 S
C98    O808    1.371   1_554 S
C100   H111    1.081   .     S
C100   C101    1.381   .     A
C101   C768    1.389   .     S
C101   H778    1.074   .     S
C102   O144    1.381   .     S
C102   C742    1.417   1_554 S
C102   C767    1.389   1_554 S
Cu103  O123    1.961   .     S
Cu103  O117    1.957   .     S
Cu103  Cu104   2.707   .     S
Cu103  O121    1.949   .     S
Cu103  N115    2.034   .     S
Cu103  O119    1.959   .     S
Cu104  N116    2.034   .     S
Cu104  O124    1.959   .     S
Cu104  O118    1.949   .     S
Cu104  O122    1.957   .     S
Cu104  O120    1.961   .     S
H112   C767    1.074   1_554 S
O125   C126    1.408   .     S
C126   H128    1.107   .     S
C126   H127    1.112   .     S
C126   H203    1.105   .     S
C131   H133    1.114   .     S
C131   H134    1.111   .     S
C131   O204    1.411   .     S
C131   H206    1.109   .     S
O135   C136    1.416   .     S
C136   H137    1.107   .     S
C136   H139    1.111   .     S
C136   H212    1.109   .     S
O140   H141    0.992   .     S
O142   H143    0.991   .     S
O142   C764    1.371   .     S
O144   C145    1.411   .     S
C145   H148    1.107   .     S
C145   H146    1.112   .     S
C145   H147    1.114   .     S
C149   O192    1.297   .     A
C149   O191    1.298   .     A
C149   C165    1.441   .     S
C150   C151    1.413   .     A
C150   C818    1.420   .     S
C150   C842    1.417   .     S
C151   C158    1.423   .     A
C151   C155    1.407   .     A
C152   C156    1.399   .     A
C152   C816    1.420   1_554 S
C152   C819    1.415   1_554 S
C153   C154    1.412   .     A
C153   C818    1.415   .     S
C153   C838    1.422   .     S
C154   C155    1.403   .     A
C154   O214    1.383   .     S
C155   H187    1.080   .     S
C156   C173    1.392   .     A
C156   H184    1.069   .     S
C157   C172    1.411   .     A
C157   O199    1.391   .     S
C157   C173    1.409   .     A
C158   C174    1.397   .     A
C158   C160    1.464   .     S
C159   H188    1.084   .     S
C159   C165    1.398   .     A
C159   C383    1.385   .     S
C160   O193    1.306   .     A
C160   O194    1.299   .     A
C161   C162    1.394   .     A
C161   H179    1.076   .     S
C161   C603    1.385   1_545 S
C162   C170    1.443   .     S
C162   C163    1.401   .     A
C163   H180    1.084   .     S
C163   C608    1.388   1_545 S
C164   H181    1.084   .     S
C164   C165    1.399   .     A
C164   C385    1.388   .     S
C166   H182    1.079   .     S
C166   N190    1.365   .     A
C166   C19     1.445   1_655 S
C167   O204    1.395   .     S
C167   N189    1.377   .     A
C168   N189    1.358   .     A
C168   H183    1.081   .     S
C169   O209    1.384   .     S
C169   N190    1.379   .     A
C169   C20     1.431   1_655 S
C170   O196    1.304   .     A
C170   O195    1.292   .     A
C171   C173    1.476   .     S
C171   O197    1.310   .     A
C171   O198    1.303   .     A
C172   C819    1.422   1_554 S
C172   O882    1.371   1_554 S
C174   H185    1.081   .     S
C174   C175    1.381   .     A
C175   C842    1.389   .     S
C175   H852    1.074   .     S
C176   O218    1.381   .     S
C176   C816    1.417   1_554 S
C176   C841    1.389   1_554 S
Cu177  O197    1.961   .     S
Cu177  O191    1.957   .     S
Cu177  Cu178   2.707   .     S
Cu177  O195    1.949   .     S
Cu177  N189    2.034   .     S
Cu177  O193    1.959   .     S
Cu178  N190    2.034   .     S
Cu178  O198    1.959   .     S
Cu178  O192    1.949   .     S
Cu178  O196    1.957   .     S
Cu178  O194    1.961   .     S
H186   C841    1.074   1_554 S
O199   C200    1.408   .     S
C200   H202    1.107   .     S
C200   H201    1.112   .     S
C200   H55     1.105   1_655 S
C205   H207    1.114   .     S
C205   H208    1.111   .     S
C205   O56     1.411   1_655 S
C205   H58     1.109   1_655 S
O209   C210    1.416   .     S
C210   H211    1.107   .     S
C210   H213    1.111   .     S
C210   H64     1.109   1_655 S
O214   H215    0.992   .     S
O216   H217    0.991   .     S
O216   C838    1.371   .     S
O218   C219    1.411   .     S
C219   H222    1.107   .     S
C219   H220    1.112   .     S
C219   H221    1.114   .     S
C223   O266    1.297   .     A
C223   O265    1.298   .     A
C223   C239    1.441   .     S
C224   C225    1.413   .     A
C224   C892    1.420   .     S
C224   C916    1.417   .     S
C225   C232    1.423   .     A
C225   C229    1.407   .     A
C226   C230    1.399   .     A
C226   C890    1.420   1_554 S
C226   C893    1.415   1_554 S
C227   C228    1.412   .     A
C227   C892    1.415   .     S
C227   C912    1.422   .     S
C228   C229    1.403   .     A
C228   O288    1.383   .     S
C229   H261    1.080   .     S
C230   C247    1.392   .     A
C230   H258    1.069   .     S
C231   C246    1.411   .     A
C231   O273    1.391   .     S
C231   C247    1.409   .     A
C232   C248    1.397   .     A
C232   C234    1.464   .     S
C233   H262    1.084   .     S
C233   C239    1.398   .     A
C233   C457    1.385   .     S
C234   O267    1.306   .     A
C234   O268    1.299   .     A
C235   C236    1.394   .     A
C235   H253    1.076   .     S
C236   C244    1.443   .     S
C236   C237    1.401   .     A
C237   H254    1.084   .     S
C238   H255    1.084   .     S
C238   C239    1.399   .     A
C238   C459    1.388   .     S
C240   H256    1.079   .     S
C240   N264    1.365   .     A
C240   C315    1.445   .     S
C241   O278    1.395   .     S
C241   N263    1.377   .     A
C241   C388    1.445   1_455 S
C242   N263    1.358   .     A
C242   H257    1.081   .     S
C242   C391    1.431   1_455 S
C243   O283    1.384   .     S
C243   N264    1.379   .     A
C243   C316    1.431   .     S
C244   O270    1.304   .     A
C244   O269    1.292   .     A
C245   C247    1.476   .     S
C245   O271    1.310   .     A
C245   O272    1.303   .     A
C246   C893    1.422   1_554 S
C246   O956    1.371   1_554 S
C248   H259    1.081   .     S
C248   C249    1.381   .     A
C249   C916    1.389   .     S
C249   H926    1.074   .     S
C250   O292    1.381   .     S
C250   C890    1.417   1_554 S
C250   C915    1.389   1_554 S
Cu251  O271    1.961   .     S
Cu251  O265    1.957   .     S
Cu251  Cu252   2.707   .     S
Cu251  O269    1.949   .     S
Cu251  N263    2.034   .     S
Cu251  O267    1.959   .     S
Cu252  N264    2.034   .     S
Cu252  O272    1.959   .     S
Cu252  O266    1.949   .     S
Cu252  O270    1.957   .     S
Cu252  O268    1.961   .     S
H260   C915    1.074   1_554 S
O273   C274    1.408   .     S
C274   H276    1.107   .     S
C274   H275    1.112   .     S
C274   H351    1.105   .     S
H277   C422    1.105   1_455 S
O278   C427    1.411   1_455 S
C279   H281    1.114   .     S
C279   H282    1.111   .     S
C279   O352    1.411   .     S
C279   H354    1.109   .     S
H280   C427    1.109   1_455 S
O283   C284    1.416   .     S
C284   H285    1.107   .     S
C284   H287    1.111   .     S
C284   H360    1.109   .     S
H286   C432    1.109   1_455 S
O288   H289    0.992   .     S
O290   H291    0.991   .     S
O290   C912    1.371   .     S
O292   C293    1.411   .     S
C293   H296    1.107   .     S
C293   H294    1.112   .     S
C293   H295    1.114   .     S
C297   O340    1.297   .     A
C297   O339    1.298   .     A
C297   C313    1.441   .     S
C298   C299    1.413   .     A
C298   C966    1.420   .     S
C298   C990    1.417   .     S
C299   C306    1.423   .     A
C299   C303    1.407   .     A
C300   C304    1.399   .     A
C300   C964    1.420   1_554 S
C300   C967    1.415   1_554 S
C301   C302    1.412   .     A
C301   C966    1.415   .     S
C301   C986    1.422   .     S
C302   C303    1.403   .     A
C302   O362    1.383   .     S
C303   H335    1.080   .     S
C304   C321    1.392   .     A
C304   H332    1.069   .     S
C305   C320    1.411   .     A
C305   O347    1.391   .     S
C305   C321    1.409   .     A
C306   C322    1.397   .     A
C306   C308    1.464   .     S
C307   H336    1.084   .     S
C307   C313    1.398   .     A
C307   C531    1.385   .     S
C308   O341    1.306   .     A
C308   O342    1.299   .     A
C309   C310    1.394   .     A
C309   H327    1.076   .     S
C310   C318    1.443   .     S
C310   C311    1.401   .     A
C311   H328    1.084   .     S
C312   H329    1.084   .     S
C312   C313    1.399   .     A
C312   C533    1.388   .     S
C314   H330    1.079   .     S
C314   N338    1.365   .     A
C314   C389    1.445   .     S
C315   O352    1.395   .     S
C315   N337    1.377   .     A
C316   N337    1.358   .     A
C316   H331    1.081   .     S
C317   O357    1.384   .     S
C317   N338    1.379   .     A
C317   C390    1.431   .     S
C318   O344    1.304   .     A
C318   O343    1.292   .     A
C319   C321    1.476   .     S
C319   O345    1.310   .     A
C319   O346    1.303   .     A
C320   C967    1.422   1_554 S
C320   O1030   1.371   1_554 S
C322   H333    1.081   .     S
C322   C323    1.381   .     A
C323   C990    1.389   .     S
C323   H1000   1.074   .     S
C324   O366    1.381   .     S
C324   C964    1.417   1_554 S
C324   C989    1.389   1_554 S
Cu325  O345    1.961   .     S
Cu325  O339    1.957   .     S
Cu325  Cu326   2.707   .     S
Cu325  O343    1.949   .     S
Cu325  N337    2.034   .     S
Cu325  O341    1.959   .     S
Cu326  N338    2.034   .     S
Cu326  O346    1.959   .     S
Cu326  O340    1.949   .     S
Cu326  O344    1.957   .     S
Cu326  O342    1.961   .     S
H334   C989    1.074   1_554 S
O347   C348    1.408   .     S
C348   H350    1.107   .     S
C348   H349    1.112   .     S
C348   H425    1.105   .     S
C353   H355    1.114   .     S
C353   H356    1.111   .     S
C353   O426    1.411   .     S
C353   H428    1.109   .     S
O357   C358    1.416   .     S
C358   H359    1.107   .     S
C358   H361    1.111   .     S
C358   H434    1.109   .     S
O362   H363    0.992   .     S
O364   H365    0.991   .     S
O364   C986    1.371   .     S
O366   C367    1.411   .     S
C367   H370    1.107   .     S
C367   H368    1.112   .     S
C367   H369    1.114   .     S
C371   O414    1.297   .     A
C371   O413    1.298   .     A
C371   C387    1.441   .     S
C372   C373    1.413   .     A
C372   C1040   1.420   .     S
C372   C1064   1.417   .     S
C373   C380    1.423   .     A
C373   C377    1.407   .     A
C374   C378    1.399   .     A
C374   C1038   1.420   1_554 S
C374   C1041   1.415   1_554 S
C375   C376    1.412   .     A
C375   C1040   1.415   .     S
C375   C1060   1.422   .     S
C376   C377    1.403   .     A
C376   O436    1.383   .     S
C377   H409    1.080   .     S
C378   C395    1.392   .     A
C378   H406    1.069   .     S
C379   C394    1.411   .     A
C379   O421    1.391   .     S
C379   C395    1.409   .     A
C380   C396    1.397   .     A
C380   C382    1.464   .     S
C381   H410    1.084   .     S
C381   C387    1.398   .     A
C381   C605    1.385   .     S
C382   O415    1.306   .     A
C382   O416    1.299   .     A
C383   C384    1.394   .     A
C383   H401    1.076   .     S
C384   C392    1.443   .     S
C384   C385    1.401   .     A
C385   H402    1.084   .     S
C386   H403    1.084   .     S
C386   C387    1.399   .     A
C386   C607    1.388   .     S
C388   H404    1.079   .     S
C388   N412    1.365   .     A
C388   C241    1.445   1_655 S
C389   O426    1.395   .     S
C389   N411    1.377   .     A
C390   N411    1.358   .     A
C390   H405    1.081   .     S
C391   O431    1.384   .     S
C391   N412    1.379   .     A
C391   C242    1.431   1_655 S
C392   O418    1.304   .     A
C392   O417    1.292   .     A
C393   C395    1.476   .     S
C393   O419    1.310   .     A
C393   O420    1.303   .     A
C394   C1041   1.422   1_554 S
C394   O1104   1.371   1_554 S
C396   H407    1.081   .     S
C396   C397    1.381   .     A
C397   C1064   1.389   .     S
C397   H1074   1.074   .     S
C398   O440    1.381   .     S
C398   C1038   1.417   1_554 S
C398   C1063   1.389   1_554 S
Cu399  O419    1.961   .     S
Cu399  O413    1.957   .     S
Cu399  Cu400   2.707   .     S
Cu399  O417    1.949   .     S
Cu399  N411    2.034   .     S
Cu399  O415    1.959   .     S
Cu400  N412    2.034   .     S
Cu400  O420    1.959   .     S
Cu400  O414    1.949   .     S
Cu400  O418    1.957   .     S
Cu400  O416    1.961   .     S
H408   C1063   1.074   1_554 S
O421   C422    1.408   .     S
C422   H424    1.107   .     S
C422   H423    1.112   .     S
C422   H277    1.105   1_655 S
C427   H429    1.114   .     S
C427   H430    1.111   .     S
C427   O278    1.411   1_655 S
C427   H280    1.109   1_655 S
O431   C432    1.416   .     S
C432   H433    1.107   .     S
C432   H435    1.111   .     S
C432   H286    1.109   1_655 S
O436   H437    0.992   .     S
O438   H439    0.991   .     S
O438   C1060   1.371   .     S
O440   C441    1.411   .     S
C441   H444    1.107   .     S
C441   H442    1.112   .     S
C441   H443    1.114   .     S
C445   O488    1.297   .     A
C445   O487    1.298   .     A
C445   C461    1.441   .     S
C446   C447    1.413   .     A
C446   C1114   1.420   .     S
C446   C1138   1.417   .     S
C447   C454    1.423   .     A
C447   C451    1.407   .     A
C448   C452    1.399   .     A
C448   C1112   1.420   1_554 S
C448   C1115   1.415   1_554 S
C449   C450    1.412   .     A
C449   C1114   1.415   .     S
C449   C1134   1.422   .     S
C450   C451    1.403   .     A
C450   O510    1.383   .     S
C451   H483    1.080   .     S
C452   C469    1.392   .     A
C452   H480    1.069   .     S
C453   C468    1.411   .     A
C453   O495    1.391   .     S
C453   C469    1.409   .     A
C454   C470    1.397   .     A
C454   C456    1.464   .     S
C455   H484    1.084   .     S
C455   C461    1.398   .     A
C455   C13     1.385   1_565 S
C456   O489    1.306   .     A
C456   O490    1.299   .     A
C457   C458    1.394   .     A
C457   H475    1.076   .     S
C458   C466    1.443   .     S
C458   C459    1.401   .     A
C459   H476    1.084   .     S
C460   H477    1.084   .     S
C460   C461    1.399   .     A
C460   C15     1.388   1_565 S
C462   H478    1.079   .     S
C462   N486    1.365   .     A
C462   C537    1.445   .     S
C463   O500    1.395   .     S
C463   N485    1.377   .     A
C463   C610    1.445   1_455 S
C464   N485    1.358   .     A
C464   H479    1.081   .     S
C464   C613    1.431   1_455 S
C465   O505    1.384   .     S
C465   N486    1.379   .     A
C465   C538    1.431   .     S
C466   O492    1.304   .     A
C466   O491    1.292   .     A
C467   C469    1.476   .     S
C467   O493    1.310   .     A
C467   O494    1.303   .     A
C468   C1115   1.422   1_554 S
C468   O1178   1.371   1_554 S
C470   H481    1.081   .     S
C470   C471    1.381   .     A
C471   C1138   1.389   .     S
C471   H1148   1.074   .     S
C472   O514    1.381   .     S
C472   C1112   1.417   1_554 S
C472   C1137   1.389   1_554 S
Cu473  O493    1.961   .     S
Cu473  O487    1.957   .     S
Cu473  Cu474   2.707   .     S
Cu473  O491    1.949   .     S
Cu473  N485    2.034   .     S
Cu473  O489    1.959   .     S
Cu474  N486    2.034   .     S
Cu474  O494    1.959   .     S
Cu474  O488    1.949   .     S
Cu474  O492    1.957   .     S
Cu474  O490    1.961   .     S
H482   C1137   1.074   1_554 S
O495   C496    1.408   .     S
C496   H498    1.107   .     S
C496   H497    1.112   .     S
C496   H573    1.105   .     S
H499   C644    1.105   1_455 S
O500   C649    1.411   1_455 S
C501   H503    1.114   .     S
C501   H504    1.111   .     S
C501   O574    1.411   .     S
C501   H576    1.109   .     S
H502   C649    1.109   1_455 S
O505   C506    1.416   .     S
C506   H507    1.107   .     S
C506   H509    1.111   .     S
C506   H582    1.109   .     S
H508   C654    1.109   1_455 S
O510   H511    0.992   .     S
O512   H513    0.991   .     S
O512   C1134   1.371   .     S
O514   C515    1.411   .     S
C515   H518    1.107   .     S
C515   H516    1.112   .     S
C515   H517    1.114   .     S
C519   O562    1.297   .     A
C519   O561    1.298   .     A
C519   C535    1.441   .     S
C520   C521    1.413   .     A
C520   C1188   1.420   .     S
C520   C1212   1.417   .     S
C521   C528    1.423   .     A
C521   C525    1.407   .     A
C522   C526    1.399   .     A
C522   C1186   1.420   1_554 S
C522   C1189   1.415   1_554 S
C523   C524    1.412   .     A
C523   C1188   1.415   .     S
C523   C1208   1.422   .     S
C524   C525    1.403   .     A
C524   O584    1.383   .     S
C525   H557    1.080   .     S
C526   C543    1.392   .     A
C526   H554    1.069   .     S
C527   C542    1.411   .     A
C527   O569    1.391   .     S
C527   C543    1.409   .     A
C528   C544    1.397   .     A
C528   C530    1.464   .     S
C529   H558    1.084   .     S
C529   C535    1.398   .     A
C529   C87     1.385   1_565 S
C530   O563    1.306   .     A
C530   O564    1.299   .     A
C531   C532    1.394   .     A
C531   H549    1.076   .     S
C532   C540    1.443   .     S
C532   C533    1.401   .     A
C533   H550    1.084   .     S
C534   H551    1.084   .     S
C534   C535    1.399   .     A
C534   C89     1.388   1_565 S
C536   H552    1.079   .     S
C536   N560    1.365   .     A
C536   C611    1.445   .     S
C537   O574    1.395   .     S
C537   N559    1.377   .     A
C538   N559    1.358   .     A
C538   H553    1.081   .     S
C539   O579    1.384   .     S
C539   N560    1.379   .     A
C539   C612    1.431   .     S
C540   O566    1.304   .     A
C540   O565    1.292   .     A
C541   C543    1.476   .     S
C541   O567    1.310   .     A
C541   O568    1.303   .     A
C542   C1189   1.422   1_554 S
C542   O1252   1.371   1_554 S
C544   H555    1.081   .     S
C544   C545    1.381   .     A
C545   C1212   1.389   .     S
C545   H1222   1.074   .     S
C546   O588    1.381   .     S
C546   C1186   1.417   1_554 S
C546   C1211   1.389   1_554 S
Cu547  O567    1.961   .     S
Cu547  O561    1.957   .     S
Cu547  Cu548   2.707   .     S
Cu547  O565    1.949   .     S
Cu547  N559    2.034   .     S
Cu547  O563    1.959   .     S
Cu548  N560    2.034   .     S
Cu548  O568    1.959   .     S
Cu548  O562    1.949   .     S
Cu548  O566    1.957   .     S
Cu548  O564    1.961   .     S
H556   C1211   1.074   1_554 S
O569   C570    1.408   .     S
C570   H572    1.107   .     S
C570   H571    1.112   .     S
C570   H647    1.105   .     S
C575   H577    1.114   .     S
C575   H578    1.111   .     S
C575   O648    1.411   .     S
C575   H650    1.109   .     S
O579   C580    1.416   .     S
C580   H581    1.107   .     S
C580   H583    1.111   .     S
C580   H656    1.109   .     S
O584   H585    0.992   .     S
O586   H587    0.991   .     S
O586   C1208   1.371   .     S
O588   C589    1.411   .     S
C589   H592    1.107   .     S
C589   H590    1.112   .     S
C589   H591    1.114   .     S
C593   O636    1.297   .     A
C593   O635    1.298   .     A
C593   C609    1.441   .     S
C594   C595    1.413   .     A
C594   C1262   1.420   .     S
C594   C1286   1.417   .     S
C595   C602    1.423   .     A
C595   C599    1.407   .     A
C596   C600    1.399   .     A
C596   C1260   1.420   1_554 S
C596   C1263   1.415   1_554 S
C597   C598    1.412   .     A
C597   C1262   1.415   .     S
C597   C1282   1.422   .     S
C598   C599    1.403   .     A
C598   O658    1.383   .     S
C599   H631    1.080   .     S
C600   C617    1.392   .     A
C600   H628    1.069   .     S
C601   C616    1.411   .     A
C601   O643    1.391   .     S
C601   C617    1.409   .     A
C602   C618    1.397   .     A
C602   C604    1.464   .     S
C603   H632    1.084   .     S
C603   C609    1.398   .     A
C603   C161    1.385   1_565 S
C604   O637    1.306   .     A
C604   O638    1.299   .     A
C605   C606    1.394   .     A
C605   H623    1.076   .     S
C606   C614    1.443   .     S
C606   C607    1.401   .     A
C607   H624    1.084   .     S
C608   H625    1.084   .     S
C608   C609    1.399   .     A
C608   C163    1.388   1_565 S
C610   H626    1.079   .     S
C610   N634    1.365   .     A
C610   C463    1.445   1_655 S
C611   O648    1.395   .     S
C611   N633    1.377   .     A
C612   N633    1.358   .     A
C612   H627    1.081   .     S
C613   O653    1.384   .     S
C613   N634    1.379   .     A
C613   C464    1.431   1_655 S
C614   O640    1.304   .     A
C614   O639    1.292   .     A
C615   C617    1.476   .     S
C615   O641    1.310   .     A
C615   O642    1.303   .     A
C616   C1263   1.422   1_554 S
C616   O1326   1.371   1_554 S
C618   H629    1.081   .     S
C618   C619    1.381   .     A
C619   C1286   1.389   .     S
C619   H1296   1.074   .     S
C620   O662    1.381   .     S
C620   C1260   1.417   1_554 S
C620   C1285   1.389   1_554 S
Cu621  O641    1.961   .     S
Cu621  O635    1.957   .     S
Cu621  Cu622   2.707   .     S
Cu621  O639    1.949   .     S
Cu621  N633    2.034   .     S
Cu621  O637    1.959   .     S
Cu622  N634    2.034   .     S
Cu622  O642    1.959   .     S
Cu622  O636    1.949   .     S
Cu622  O640    1.957   .     S
Cu622  O638    1.961   .     S
H630   C1285   1.074   1_554 S
O643   C644    1.408   .     S
C644   H646    1.107   .     S
C644   H645    1.112   .     S
C644   H499    1.105   1_655 S
C649   H651    1.114   .     S
C649   H652    1.111   .     S
C649   O500    1.411   1_655 S
C649   H502    1.109   1_655 S
O653   C654    1.416   .     S
C654   H655    1.107   .     S
C654   H657    1.111   .     S
C654   H508    1.109   1_655 S
O658   H659    0.992   .     S
O660   H661    0.991   .     S
O660   C1282   1.371   .     S
O662   C663    1.411   .     S
C663   H666    1.107   .     S
C663   H664    1.112   .     S
C663   H665    1.114   .     S
C667   O710    1.297   .     A
C667   O709    1.298   .     A
C667   C683    1.441   .     S
C668   C669    1.413   .     A
C668   C4      1.420   1_556 S
C668   C28     1.417   1_556 S
C669   C676    1.423   .     A
C669   C673    1.407   .     A
C670   C674    1.399   .     A
C671   C672    1.412   .     A
C671   C4      1.415   1_556 S
C671   C24     1.422   1_556 S
C672   C673    1.403   .     A
C672   O732    1.383   .     S
C673   H705    1.080   .     S
C674   C691    1.392   .     A
C674   H702    1.069   .     S
C675   C690    1.411   .     A
C675   O717    1.391   .     S
C675   C691    1.409   .     A
C676   C692    1.397   .     A
C676   C678    1.464   .     S
C677   H706    1.084   .     S
C677   C683    1.398   .     A
C677   C901    1.385   .     S
C678   O711    1.306   .     A
C678   O712    1.299   .     A
C679   C680    1.394   .     A
C679   H697    1.076   .     S
C679   C1121   1.385   1_545 S
C680   C688    1.443   .     S
C680   C681    1.401   .     A
C681   H698    1.084   .     S
C681   C1126   1.388   1_545 S
C682   H699    1.084   .     S
C682   C683    1.399   .     A
C682   C903    1.388   .     S
C684   H700    1.079   .     S
C684   N708    1.365   .     A
C684   C759    1.445   .     S
C685   O722    1.395   .     S
C685   N707    1.377   .     A
C685   C832    1.445   1_455 S
C686   N707    1.358   .     A
C686   H701    1.081   .     S
C686   C835    1.431   1_455 S
C687   O727    1.384   .     S
C687   N708    1.379   .     A
C687   C760    1.431   .     S
C688   O714    1.304   .     A
C688   O713    1.292   .     A
C689   C691    1.476   .     S
C689   O715    1.310   .     A
C689   O716    1.303   .     A
C692   H703    1.081   .     S
C692   C693    1.381   .     A
C693   C28     1.389   1_556 S
C693   H38     1.074   1_556 S
C694   O736    1.381   .     S
Cu695  O715    1.961   .     S
Cu695  O709    1.957   .     S
Cu695  Cu696   2.707   .     S
Cu695  O713    1.949   .     S
Cu695  N707    2.034   .     S
Cu695  O711    1.959   .     S
Cu696  N708    2.034   .     S
Cu696  O716    1.959   .     S
Cu696  O710    1.949   .     S
Cu696  O714    1.957   .     S
Cu696  O712    1.961   .     S
O717   C718    1.408   .     S
C718   H720    1.107   .     S
C718   H719    1.112   .     S
C718   H795    1.105   .     S
H721   C866    1.105   1_455 S
O722   C871    1.411   1_455 S
C723   H725    1.114   .     S
C723   H726    1.111   .     S
C723   O796    1.411   .     S
C723   H798    1.109   .     S
H724   C871    1.109   1_455 S
O727   C728    1.416   .     S
C728   H729    1.107   .     S
C728   H731    1.111   .     S
C728   H804    1.109   .     S
H730   C876    1.109   1_455 S
O732   H733    0.992   .     S
O734   H735    0.991   .     S
O734   C24     1.371   1_556 S
O736   C737    1.411   .     S
C737   H740    1.107   .     S
C737   H738    1.112   .     S
C737   H739    1.114   .     S
C741   O784    1.297   .     A
C741   O783    1.298   .     A
C741   C757    1.441   .     S
C742   C743    1.413   .     A
C742   C78     1.420   1_556 S
C742   C102    1.417   1_556 S
C743   C750    1.423   .     A
C743   C747    1.407   .     A
C744   C748    1.399   .     A
C745   C746    1.412   .     A
C745   C78     1.415   1_556 S
C745   C98     1.422   1_556 S
C746   C747    1.403   .     A
C746   O806    1.383   .     S
C747   H779    1.080   .     S
C748   C765    1.392   .     A
C748   H776    1.069   .     S
C749   C764    1.411   .     A
C749   O791    1.391   .     S
C749   C765    1.409   .     A
C750   C766    1.397   .     A
C750   C752    1.464   .     S
C751   H780    1.084   .     S
C751   C757    1.398   .     A
C751   C975    1.385   .     S
C752   O785    1.306   .     A
C752   O786    1.299   .     A
C753   C754    1.394   .     A
C753   H771    1.076   .     S
C753   C1195   1.385   1_545 S
C754   C762    1.443   .     S
C754   C755    1.401   .     A
C755   H772    1.084   .     S
C755   C1200   1.388   1_545 S
C756   H773    1.084   .     S
C756   C757    1.399   .     A
C756   C977    1.388   .     S
C758   H774    1.079   .     S
C758   N782    1.365   .     A
C758   C833    1.445   .     S
C759   O796    1.395   .     S
C759   N781    1.377   .     A
C760   N781    1.358   .     A
C760   H775    1.081   .     S
C761   O801    1.384   .     S
C761   N782    1.379   .     A
C761   C834    1.431   .     S
C762   O788    1.304   .     A
C762   O787    1.292   .     A
C763   C765    1.476   .     S
C763   O789    1.310   .     A
C763   O790    1.303   .     A
C766   H777    1.081   .     S
C766   C767    1.381   .     A
C767   C102    1.389   1_556 S
C767   H112    1.074   1_556 S
C768   O810    1.381   .     S
Cu769  O789    1.961   .     S
Cu769  O783    1.957   .     S
Cu769  Cu770   2.707   .     S
Cu769  O787    1.949   .     S
Cu769  N781    2.034   .     S
Cu769  O785    1.959   .     S
Cu770  N782    2.034   .     S
Cu770  O790    1.959   .     S
Cu770  O784    1.949   .     S
Cu770  O788    1.957   .     S
Cu770  O786    1.961   .     S
O791   C792    1.408   .     S
C792   H794    1.107   .     S
C792   H793    1.112   .     S
C792   H869    1.105   .     S
C797   H799    1.114   .     S
C797   H800    1.111   .     S
C797   O870    1.411   .     S
C797   H872    1.109   .     S
O801   C802    1.416   .     S
C802   H803    1.107   .     S
C802   H805    1.111   .     S
C802   H878    1.109   .     S
O806   H807    0.992   .     S
O808   H809    0.991   .     S
O808   C98     1.371   1_556 S
O810   C811    1.411   .     S
C811   H814    1.107   .     S
C811   H812    1.112   .     S
C811   H813    1.114   .     S
C815   O858    1.297   .     A
C815   O857    1.298   .     A
C815   C831    1.441   .     S
C816   C817    1.413   .     A
C816   C152    1.420   1_556 S
C816   C176    1.417   1_556 S
C817   C824    1.423   .     A
C817   C821    1.407   .     A
C818   C822    1.399   .     A
C819   C820    1.412   .     A
C819   C152    1.415   1_556 S
C819   C172    1.422   1_556 S
C820   C821    1.403   .     A
C820   O880    1.383   .     S
C821   H853    1.080   .     S
C822   C839    1.392   .     A
C822   H850    1.069   .     S
C823   C838    1.411   .     A
C823   O865    1.391   .     S
C823   C839    1.409   .     A
C824   C840    1.397   .     A
C824   C826    1.464   .     S
C825   H854    1.084   .     S
C825   C831    1.398   .     A
C825   C1049   1.385   .     S
C826   O859    1.306   .     A
C826   O860    1.299   .     A
C827   C828    1.394   .     A
C827   H845    1.076   .     S
C827   C1269   1.385   1_545 S
C828   C836    1.443   .     S
C828   C829    1.401   .     A
C829   H846    1.084   .     S
C829   C1274   1.388   1_545 S
C830   H847    1.084   .     S
C830   C831    1.399   .     A
C830   C1051   1.388   .     S
C832   H848    1.079   .     S
C832   N856    1.365   .     A
C832   C685    1.445   1_655 S
C833   O870    1.395   .     S
C833   N855    1.377   .     A
C834   N855    1.358   .     A
C834   H849    1.081   .     S
C835   O875    1.384   .     S
C835   N856    1.379   .     A
C835   C686    1.431   1_655 S
C836   O862    1.304   .     A
C836   O861    1.292   .     A
C837   C839    1.476   .     S
C837   O863    1.310   .     A
C837   O864    1.303   .     A
C840   H851    1.081   .     S
C840   C841    1.381   .     A
C841   C176    1.389   1_556 S
C841   H186    1.074   1_556 S
C842   O884    1.381   .     S
Cu843  O863    1.961   .     S
Cu843  O857    1.957   .     S
Cu843  Cu844   2.707   .     S
Cu843  O861    1.949   .     S
Cu843  N855    2.034   .     S
Cu843  O859    1.959   .     S
Cu844  N856    2.034   .     S
Cu844  O864    1.959   .     S
Cu844  O858    1.949   .     S
Cu844  O862    1.957   .     S
Cu844  O860    1.961   .     S
O865   C866    1.408   .     S
C866   H868    1.107   .     S
C866   H867    1.112   .     S
C866   H721    1.105   1_655 S
C871   H873    1.114   .     S
C871   H874    1.111   .     S
C871   O722    1.411   1_655 S
C871   H724    1.109   1_655 S
O875   C876    1.416   .     S
C876   H877    1.107   .     S
C876   H879    1.111   .     S
C876   H730    1.109   1_655 S
O880   H881    0.992   .     S
O882   H883    0.991   .     S
O882   C172    1.371   1_556 S
O884   C885    1.411   .     S
C885   H888    1.107   .     S
C885   H886    1.112   .     S
C885   H887    1.114   .     S
C889   O932    1.297   .     A
C889   O931    1.298   .     A
C889   C905    1.441   .     S
C890   C891    1.413   .     A
C890   C226    1.420   1_556 S
C890   C250    1.417   1_556 S
C891   C898    1.423   .     A
C891   C895    1.407   .     A
C892   C896    1.399   .     A
C893   C894    1.412   .     A
C893   C226    1.415   1_556 S
C893   C246    1.422   1_556 S
C894   C895    1.403   .     A
C894   O954    1.383   .     S
C895   H927    1.080   .     S
C896   C913    1.392   .     A
C896   H924    1.069   .     S
C897   C912    1.411   .     A
C897   O939    1.391   .     S
C897   C913    1.409   .     A
C898   C914    1.397   .     A
C898   C900    1.464   .     S
C899   H928    1.084   .     S
C899   C905    1.398   .     A
C899   C1123   1.385   .     S
C900   O933    1.306   .     A
C900   O934    1.299   .     A
C901   C902    1.394   .     A
C901   H919    1.076   .     S
C902   C910    1.443   .     S
C902   C903    1.401   .     A
C903   H920    1.084   .     S
C904   H921    1.084   .     S
C904   C905    1.399   .     A
C904   C1125   1.388   .     S
C906   H922    1.079   .     S
C906   N930    1.365   .     A
C906   C981    1.445   .     S
C907   O944    1.395   .     S
C907   N929    1.377   .     A
C907   C1054   1.445   1_455 S
C908   N929    1.358   .     A
C908   H923    1.081   .     S
C908   C1057   1.431   1_455 S
C909   O949    1.384   .     S
C909   N930    1.379   .     A
C909   C982    1.431   .     S
C910   O936    1.304   .     A
C910   O935    1.292   .     A
C911   C913    1.476   .     S
C911   O937    1.310   .     A
C911   O938    1.303   .     A
C914   H925    1.081   .     S
C914   C915    1.381   .     A
C915   C250    1.389   1_556 S
C915   H260    1.074   1_556 S
C916   O958    1.381   .     S
Cu917  O937    1.961   .     S
Cu917  O931    1.957   .     S
Cu917  Cu918   2.707   .     S
Cu917  O935    1.949   .     S
Cu917  N929    2.034   .     S
Cu917  O933    1.959   .     S
Cu918  N930    2.034   .     S
Cu918  O938    1.959   .     S
Cu918  O932    1.949   .     S
Cu918  O936    1.957   .     S
Cu918  O934    1.961   .     S
O939   C940    1.408   .     S
C940   H942    1.107   .     S
C940   H941    1.112   .     S
C940   H1017   1.105   .     S
H943   C1088   1.105   1_455 S
O944   C1093   1.411   1_455 S
C945   H947    1.114   .     S
C945   H948    1.111   .     S
C945   O1018   1.411   .     S
C945   H1020   1.109   .     S
H946   C1093   1.109   1_455 S
O949   C950    1.416   .     S
C950   H951    1.107   .     S
C950   H953    1.111   .     S
C950   H1026   1.109   .     S
H952   C1098   1.109   1_455 S
O954   H955    0.992   .     S
O956   H957    0.991   .     S
O956   C246    1.371   1_556 S
O958   C959    1.411   .     S
C959   H962    1.107   .     S
C959   H960    1.112   .     S
C959   H961    1.114   .     S
C963   O1006   1.297   .     A
C963   O1005   1.298   .     A
C963   C979    1.441   .     S
C964   C965    1.413   .     A
C964   C300    1.420   1_556 S
C964   C324    1.417   1_556 S
C965   C972    1.423   .     A
C965   C969    1.407   .     A
C966   C970    1.399   .     A
C967   C968    1.412   .     A
C967   C300    1.415   1_556 S
C967   C320    1.422   1_556 S
C968   C969    1.403   .     A
C968   O1028   1.383   .     S
C969   H1001   1.080   .     S
C970   C987    1.392   .     A
C970   H998    1.069   .     S
C971   C986    1.411   .     A
C971   O1013   1.391   .     S
C971   C987    1.409   .     A
C972   C988    1.397   .     A
C972   C974    1.464   .     S
C973   H1002   1.084   .     S
C973   C979    1.398   .     A
C973   C1197   1.385   .     S
C974   O1007   1.306   .     A
C974   O1008   1.299   .     A
C975   C976    1.394   .     A
C975   H993    1.076   .     S
C976   C984    1.443   .     S
C976   C977    1.401   .     A
C977   H994    1.084   .     S
C978   H995    1.084   .     S
C978   C979    1.399   .     A
C978   C1199   1.388   .     S
C980   H996    1.079   .     S
C980   N1004   1.365   .     A
C980   C1055   1.445   .     S
C981   O1018   1.395   .     S
C981   N1003   1.377   .     A
C982   N1003   1.358   .     A
C982   H997    1.081   .     S
C983   O1023   1.384   .     S
C983   N1004   1.379   .     A
C983   C1056   1.431   .     S
C984   O1010   1.304   .     A
C984   O1009   1.292   .     A
C985   C987    1.476   .     S
C985   O1011   1.310   .     A
C985   O1012   1.303   .     A
C988   H999    1.081   .     S
C988   C989    1.381   .     A
C989   C324    1.389   1_556 S
C989   H334    1.074   1_556 S
C990   O1032   1.381   .     S
Cu991  O1011   1.961   .     S
Cu991  O1005   1.957   .     S
Cu991  Cu992   2.707   .     S
Cu991  O1009   1.949   .     S
Cu991  N1003   2.034   .     S
Cu991  O1007   1.959   .     S
Cu992  N1004   2.034   .     S
Cu992  O1012   1.959   .     S
Cu992  O1006   1.949   .     S
Cu992  O1010   1.957   .     S
Cu992  O1008   1.961   .     S
O1013  C1014   1.408   .     S
C1014  H1016   1.107   .     S
C1014  H1015   1.112   .     S
C1014  H1091   1.105   .     S
C1019  H1021   1.114   .     S
C1019  H1022   1.111   .     S
C1019  O1092   1.411   .     S
C1019  H1094   1.109   .     S
O1023  C1024   1.416   .     S
C1024  H1025   1.107   .     S
C1024  H1027   1.111   .     S
C1024  H1100   1.109   .     S
O1028  H1029   0.992   .     S
O1030  H1031   0.991   .     S
O1030  C320    1.371   1_556 S
O1032  C1033   1.411   .     S
C1033  H1036   1.107   .     S
C1033  H1034   1.112   .     S
C1033  H1035   1.114   .     S
C1037  O1080   1.297   .     A
C1037  O1079   1.298   .     A
C1037  C1053   1.441   .     S
C1038  C1039   1.413   .     A
C1038  C374    1.420   1_556 S
C1038  C398    1.417   1_556 S
C1039  C1046   1.423   .     A
C1039  C1043   1.407   .     A
C1040  C1044   1.399   .     A
C1041  C1042   1.412   .     A
C1041  C374    1.415   1_556 S
C1041  C394    1.422   1_556 S
C1042  C1043   1.403   .     A
C1042  O1102   1.383   .     S
C1043  H1075   1.080   .     S
C1044  C1061   1.392   .     A
C1044  H1072   1.069   .     S
C1045  C1060   1.411   .     A
C1045  O1087   1.391   .     S
C1045  C1061   1.409   .     A
C1046  C1062   1.397   .     A
C1046  C1048   1.464   .     S
C1047  H1076   1.084   .     S
C1047  C1053   1.398   .     A
C1047  C1271   1.385   .     S
C1048  O1081   1.306   .     A
C1048  O1082   1.299   .     A
C1049  C1050   1.394   .     A
C1049  H1067   1.076   .     S
C1050  C1058   1.443   .     S
C1050  C1051   1.401   .     A
C1051  H1068   1.084   .     S
C1052  H1069   1.084   .     S
C1052  C1053   1.399   .     A
C1052  C1273   1.388   .     S
C1054  H1070   1.079   .     S
C1054  N1078   1.365   .     A
C1054  C907    1.445   1_655 S
C1055  O1092   1.395   .     S
C1055  N1077   1.377   .     A
C1056  N1077   1.358   .     A
C1056  H1071   1.081   .     S
C1057  O1097   1.384   .     S
C1057  N1078   1.379   .     A
C1057  C908    1.431   1_655 S
C1058  O1084   1.304   .     A
C1058  O1083   1.292   .     A
C1059  C1061   1.476   .     S
C1059  O1085   1.310   .     A
C1059  O1086   1.303   .     A
C1062  H1073   1.081   .     S
C1062  C1063   1.381   .     A
C1063  C398    1.389   1_556 S
C1063  H408    1.074   1_556 S
C1064  O1106   1.381   .     S
Cu1065 O1085   1.961   .     S
Cu1065 O1079   1.957   .     S
Cu1065 Cu1066  2.707   .     S
Cu1065 O1083   1.949   .     S
Cu1065 N1077   2.034   .     S
Cu1065 O1081   1.959   .     S
Cu1066 N1078   2.034   .     S
Cu1066 O1086   1.959   .     S
Cu1066 O1080   1.949   .     S
Cu1066 O1084   1.957   .     S
Cu1066 O1082   1.961   .     S
O1087  C1088   1.408   .     S
C1088  H1090   1.107   .     S
C1088  H1089   1.112   .     S
C1088  H943    1.105   1_655 S
C1093  H1095   1.114   .     S
C1093  H1096   1.111   .     S
C1093  O944    1.411   1_655 S
C1093  H946    1.109   1_655 S
O1097  C1098   1.416   .     S
C1098  H1099   1.107   .     S
C1098  H1101   1.111   .     S
C1098  H952    1.109   1_655 S
O1102  H1103   0.992   .     S
O1104  H1105   0.991   .     S
O1104  C394    1.371   1_556 S
O1106  C1107   1.411   .     S
C1107  H1110   1.107   .     S
C1107  H1108   1.112   .     S
C1107  H1109   1.114   .     S
C1111  O1154   1.297   .     A
C1111  O1153   1.298   .     A
C1111  C1127   1.441   .     S
C1112  C1113   1.413   .     A
C1112  C448    1.420   1_556 S
C1112  C472    1.417   1_556 S
C1113  C1120   1.423   .     A
C1113  C1117   1.407   .     A
C1114  C1118   1.399   .     A
C1115  C1116   1.412   .     A
C1115  C448    1.415   1_556 S
C1115  C468    1.422   1_556 S
C1116  C1117   1.403   .     A
C1116  O1176   1.383   .     S
C1117  H1149   1.080   .     S
C1118  C1135   1.392   .     A
C1118  H1146   1.069   .     S
C1119  C1134   1.411   .     A
C1119  O1161   1.391   .     S
C1119  C1135   1.409   .     A
C1120  C1136   1.397   .     A
C1120  C1122   1.464   .     S
C1121  H1150   1.084   .     S
C1121  C1127   1.398   .     A
C1121  C679    1.385   1_565 S
C1122  O1155   1.306   .     A
C1122  O1156   1.299   .     A
C1123  C1124   1.394   .     A
C1123  H1141   1.076   .     S
C1124  C1132   1.443   .     S
C1124  C1125   1.401   .     A
C1125  H1142   1.084   .     S
C1126  H1143   1.084   .     S
C1126  C1127   1.399   .     A
C1126  C681    1.388   1_565 S
C1128  H1144   1.079   .     S
C1128  N1152   1.365   .     A
C1128  C1203   1.445   .     S
C1129  O1166   1.395   .     S
C1129  N1151   1.377   .     A
C1129  C1276   1.445   1_455 S
C1130  N1151   1.358   .     A
C1130  H1145   1.081   .     S
C1130  C1279   1.431   1_455 S
C1131  O1171   1.384   .     S
C1131  N1152   1.379   .     A
C1131  C1204   1.431   .     S
C1132  O1158   1.304   .     A
C1132  O1157   1.292   .     A
C1133  C1135   1.476   .     S
C1133  O1159   1.310   .     A
C1133  O1160   1.303   .     A
C1136  H1147   1.081   .     S
C1136  C1137   1.381   .     A
C1137  C472    1.389   1_556 S
C1137  H482    1.074   1_556 S
C1138  O1180   1.381   .     S
Cu1139 O1159   1.961   .     S
Cu1139 O1153   1.957   .     S
Cu1139 Cu1140  2.707   .     S
Cu1139 O1157   1.949   .     S
Cu1139 N1151   2.034   .     S
Cu1139 O1155   1.959   .     S
Cu1140 N1152   2.034   .     S
Cu1140 O1160   1.959   .     S
Cu1140 O1154   1.949   .     S
Cu1140 O1158   1.957   .     S
Cu1140 O1156   1.961   .     S
O1161  C1162   1.408   .     S
C1162  H1164   1.107   .     S
C1162  H1163   1.112   .     S
C1162  H1239   1.105   .     S
H1165  C1310   1.105   1_455 S
O1166  C1315   1.411   1_455 S
C1167  H1169   1.114   .     S
C1167  H1170   1.111   .     S
C1167  O1240   1.411   .     S
C1167  H1242   1.109   .     S
H1168  C1315   1.109   1_455 S
O1171  C1172   1.416   .     S
C1172  H1173   1.107   .     S
C1172  H1175   1.111   .     S
C1172  H1248   1.109   .     S
H1174  C1320   1.109   1_455 S
O1176  H1177   0.992   .     S
O1178  H1179   0.991   .     S
O1178  C468    1.371   1_556 S
O1180  C1181   1.411   .     S
C1181  H1184   1.107   .     S
C1181  H1182   1.112   .     S
C1181  H1183   1.114   .     S
C1185  O1228   1.297   .     A
C1185  O1227   1.298   .     A
C1185  C1201   1.441   .     S
C1186  C1187   1.413   .     A
C1186  C522    1.420   1_556 S
C1186  C546    1.417   1_556 S
C1187  C1194   1.423   .     A
C1187  C1191   1.407   .     A
C1188  C1192   1.399   .     A
C1189  C1190   1.412   .     A
C1189  C522    1.415   1_556 S
C1189  C542    1.422   1_556 S
C1190  C1191   1.403   .     A
C1190  O1250   1.383   .     S
C1191  H1223   1.080   .     S
C1192  C1209   1.392   .     A
C1192  H1220   1.069   .     S
C1193  C1208   1.411   .     A
C1193  O1235   1.391   .     S
C1193  C1209   1.409   .     A
C1194  C1210   1.397   .     A
C1194  C1196   1.464   .     S
C1195  H1224   1.084   .     S
C1195  C1201   1.398   .     A
C1195  C753    1.385   1_565 S
C1196  O1229   1.306   .     A
C1196  O1230   1.299   .     A
C1197  C1198   1.394   .     A
C1197  H1215   1.076   .     S
C1198  C1206   1.443   .     S
C1198  C1199   1.401   .     A
C1199  H1216   1.084   .     S
C1200  H1217   1.084   .     S
C1200  C1201   1.399   .     A
C1200  C755    1.388   1_565 S
C1202  H1218   1.079   .     S
C1202  N1226   1.365   .     A
C1202  C1277   1.445   .     S
C1203  O1240   1.395   .     S
C1203  N1225   1.377   .     A
C1204  N1225   1.358   .     A
C1204  H1219   1.081   .     S
C1205  O1245   1.384   .     S
C1205  N1226   1.379   .     A
C1205  C1278   1.431   .     S
C1206  O1232   1.304   .     A
C1206  O1231   1.292   .     A
C1207  C1209   1.476   .     S
C1207  O1233   1.310   .     A
C1207  O1234   1.303   .     A
C1210  H1221   1.081   .     S
C1210  C1211   1.381   .     A
C1211  C546    1.389   1_556 S
C1211  H556    1.074   1_556 S
C1212  O1254   1.381   .     S
Cu1213 O1233   1.961   .     S
Cu1213 O1227   1.957   .     S
Cu1213 Cu1214  2.707   .     S
Cu1213 O1231   1.949   .     S
Cu1213 N1225   2.034   .     S
Cu1213 O1229   1.959   .     S
Cu1214 N1226   2.034   .     S
Cu1214 O1234   1.959   .     S
Cu1214 O1228   1.949   .     S
Cu1214 O1232   1.957   .     S
Cu1214 O1230   1.961   .     S
O1235  C1236   1.408   .     S
C1236  H1238   1.107   .     S
C1236  H1237   1.112   .     S
C1236  H1313   1.105   .     S
C1241  H1243   1.114   .     S
C1241  H1244   1.111   .     S
C1241  O1314   1.411   .     S
C1241  H1316   1.109   .     S
O1245  C1246   1.416   .     S
C1246  H1247   1.107   .     S
C1246  H1249   1.111   .     S
C1246  H1322   1.109   .     S
O1250  H1251   0.992   .     S
O1252  H1253   0.991   .     S
O1252  C542    1.371   1_556 S
O1254  C1255   1.411   .     S
C1255  H1258   1.107   .     S
C1255  H1256   1.112   .     S
C1255  H1257   1.114   .     S
C1259  O1302   1.297   .     A
C1259  O1301   1.298   .     A
C1259  C1275   1.441   .     S
C1260  C1261   1.413   .     A
C1260  C596    1.420   1_556 S
C1260  C620    1.417   1_556 S
C1261  C1268   1.423   .     A
C1261  C1265   1.407   .     A
C1262  C1266   1.399   .     A
C1263  C1264   1.412   .     A
C1263  C596    1.415   1_556 S
C1263  C616    1.422   1_556 S
C1264  C1265   1.403   .     A
C1264  O1324   1.383   .     S
C1265  H1297   1.080   .     S
C1266  C1283   1.392   .     A
C1266  H1294   1.069   .     S
C1267  C1282   1.411   .     A
C1267  O1309   1.391   .     S
C1267  C1283   1.409   .     A
C1268  C1284   1.397   .     A
C1268  C1270   1.464   .     S
C1269  H1298   1.084   .     S
C1269  C1275   1.398   .     A
C1269  C827    1.385   1_565 S
C1270  O1303   1.306   .     A
C1270  O1304   1.299   .     A
C1271  C1272   1.394   .     A
C1271  H1289   1.076   .     S
C1272  C1280   1.443   .     S
C1272  C1273   1.401   .     A
C1273  H1290   1.084   .     S
C1274  H1291   1.084   .     S
C1274  C1275   1.399   .     A
C1274  C829    1.388   1_565 S
C1276  H1292   1.079   .     S
C1276  N1300   1.365   .     A
C1276  C1129   1.445   1_655 S
C1277  O1314   1.395   .     S
C1277  N1299   1.377   .     A
C1278  N1299   1.358   .     A
C1278  H1293   1.081   .     S
C1279  O1319   1.384   .     S
C1279  N1300   1.379   .     A
C1279  C1130   1.431   1_655 S
C1280  O1306   1.304   .     A
C1280  O1305   1.292   .     A
C1281  C1283   1.476   .     S
C1281  O1307   1.310   .     A
C1281  O1308   1.303   .     A
C1284  H1295   1.081   .     S
C1284  C1285   1.381   .     A
C1285  C620    1.389   1_556 S
C1285  H630    1.074   1_556 S
C1286  O1328   1.381   .     S
Cu1287 O1307   1.961   .     S
Cu1287 O1301   1.957   .     S
Cu1287 Cu1288  2.707   .     S
Cu1287 O1305   1.949   .     S
Cu1287 N1299   2.034   .     S
Cu1287 O1303   1.959   .     S
Cu1288 N1300   2.034   .     S
Cu1288 O1308   1.959   .     S
Cu1288 O1302   1.949   .     S
Cu1288 O1306   1.957   .     S
Cu1288 O1304   1.961   .     S
O1309  C1310   1.408   .     S
C1310  H1312   1.107   .     S
C1310  H1311   1.112   .     S
C1310  H1165   1.105   1_655 S
C1315  H1317   1.114   .     S
C1315  H1318   1.111   .     S
C1315  O1166   1.411   1_655 S
C1315  H1168   1.109   1_655 S
O1319  C1320   1.416   .     S
C1320  H1321   1.107   .     S
C1320  H1323   1.111   .     S
C1320  H1174   1.109   1_655 S
O1324  H1325   0.992   .     S
O1326  H1327   0.991   .     S
O1326  C616    1.371   1_556 S
O1328  C1329   1.411   .     S
C1329  H1332   1.107   .     S
C1329  H1330   1.112   .     S
C1329  H1331   1.114   .     S
