data_str_m2_o1_o18_pcu_sym.140
_audit_creation_date              2020-01-03
_audit_creation_method            'Materials Studio'
_symmetry_space_group_name_H-M    'P1'
_symmetry_Int_Tables_number       1
_symmetry_cell_setting            triclinic
loop_
_symmetry_equiv_pos_as_xyz
  x,y,z
_cell_length_a                    28.5521
_cell_length_b                    32.5019
_cell_length_c                    30.9910
_cell_angle_alpha                 89.8500
_cell_angle_beta                  74.2007
_cell_angle_gamma                 90.0024
loop_
_atom_site_label
_atom_site_type_symbol
_atom_site_fract_x
_atom_site_fract_y
_atom_site_fract_z
_atom_site_U_iso_or_equiv
_atom_site_adp_type
_atom_site_occupancy
C1     C     0.33331   0.08735   0.25005   0.00000  Uiso   1.00
C2     C     0.00002   0.24598   0.24999   0.00000  Uiso   1.00
C3     C     0.18635   0.20830   0.03999   0.00000  Uiso   1.00
C4     C     0.13695   0.16669   0.45075   0.00000  Uiso   1.00
C5     C     0.23424   0.21678   0.01673   0.00000  Uiso   1.00
C6     C     0.08812   0.16148   0.47333   0.00000  Uiso   1.00
C7     C     0.29071   0.02127   0.25019   0.00000  Uiso   1.00
C8     C     0.04259   0.31205   0.24993   0.00000  Uiso   1.00
C9     C     0.29073   0.31204   0.25015   0.00000  Uiso   1.00
C10    C     0.04257   0.02129   0.24997   0.00000  Uiso   1.00
C11    C     0.00000   0.29059   0.25002   0.00000  Uiso   1.00
C12    C     0.33330   0.04274   0.25008   0.00000  Uiso   1.00
C13    C     0.18284   0.14223   0.27910   0.00000  Uiso   1.00
C14    C     0.15048   0.19113   0.22093   0.00000  Uiso   1.00
C15    C     0.13323   0.14226   0.27911   0.00000  Uiso   1.00
C16    C     0.20010   0.19109   0.22091   0.00000  Uiso   1.00
C17    C     0.30597   0.16747   0.33605   0.00000  Uiso   1.00
C18    C     0.02746   0.16667   0.16377   0.00000  Uiso   1.00
C19    C     0.29053   0.17486   0.38446   0.00000  Uiso   1.00
C20    C     0.04265   0.16725   0.11434   0.00000  Uiso   1.00
C21    C     0.30194   0.21061   0.44918   0.00000  Uiso   1.00
C22    C     0.02331   0.15845   0.04348   0.00000  Uiso   1.00
C23    C     0.32001   0.19748   0.40506   0.00000  Uiso   1.00
C24    C     0.00854   0.16058   0.09009   0.00000  Uiso   1.00
C25    C     0.24306   0.16450   0.40852   0.00000  Uiso   1.00
C26    C     0.09173   0.17380   0.09121   0.00000  Uiso   1.00
C27    C     0.22218   0.18132   0.45134   0.00000  Uiso   1.00
C28    C     0.10652   0.17607   0.04400   0.00000  Uiso   1.00
C29    C     0.25305   0.20287   0.47268   0.00000  Uiso   1.00
C30    C     0.07237   0.16538   0.02006   0.00000  Uiso   1.00
C31    C     0.17176   0.17709   0.47370   0.00000  Uiso   1.00
C32    C     0.15506   0.18645   0.01996   0.00000  Uiso   1.00
Cu33   Cu    0.04689   0.16667   0.25000   0.00000  Uiso   1.00
Cu34   Cu    0.28645   0.16666   0.25000   0.00000  Uiso   1.00
H35    H     0.30391   0.15527   0.10728   0.00000  Uiso   1.00
H36    H     0.02343   0.20586   0.38666   0.00000  Uiso   1.00
H37    H     0.25740   0.03728   0.25031   0.00000  Uiso   1.00
H38    H     0.07590   0.29605   0.24982   0.00000  Uiso   1.00
H39    H     0.25744   0.29603   0.25022   0.00000  Uiso   1.00
H40    H     0.07587   0.03730   0.24990   0.00000  Uiso   1.00
N41    N     0.11736   0.16668   0.24999   0.00000  Uiso   1.00
N42    N     0.21597   0.16666   0.25001   0.00000  Uiso   1.00
O43    O     0.03958   0.10655   0.25000   0.00000  Uiso   1.00
O44    O     0.29375   0.22678   0.25000   0.00000  Uiso   1.00
O45    O     0.29372   0.10654   0.25001   0.00000  Uiso   1.00
O46    O     0.03961   0.22679   0.24999   0.00000  Uiso   1.00
O47    O     0.01852   0.16668   0.31491   0.00000  Uiso   1.00
O48    O     0.31481   0.16666   0.18509   0.00000  Uiso   1.00
O49    O     0.27267   0.16667   0.31492   0.00000  Uiso   1.00
O50    O     0.06067   0.16667   0.18508   0.00000  Uiso   1.00
F51    F     0.26207   0.23847   0.03791   0.00000  Uiso   1.00
F52    F     0.05678   0.15123   0.44911   0.00000  Uiso   1.00
F53    F     0.12562   0.17372   0.11462   0.00000  Uiso   1.00
F54    F     0.21917   0.13582   0.39070   0.00000  Uiso   1.00
F55    F     0.33201   0.23212   0.46806   0.00000  Uiso   1.00
F56    F     0.32280   0.14904   0.02164   0.00000  Uiso   1.00
H57    H     0.17357   0.22166   0.07296   0.00000  Uiso   1.00
H58    H     0.14603   0.16493   0.41468   0.00000  Uiso   1.00
H59    H     0.19463   0.12259   0.30236   0.00000  Uiso   1.00
H60    H     0.13869   0.21081   0.19771   0.00000  Uiso   1.00
H61    H     0.10762   0.12268   0.30238   0.00000  Uiso   1.00
H62    H     0.22571   0.21067   0.19764   0.00000  Uiso   1.00
C63    C     0.66664   0.08735   0.25005   0.00000  Uiso   1.00
C64    C     0.33335   0.24598   0.24999   0.00000  Uiso   1.00
C65    C     0.51969   0.20830   0.03999   0.00000  Uiso   1.00
C66    C     0.47029   0.16669   0.45075   0.00000  Uiso   1.00
C67    C     0.56758   0.21678   0.01673   0.00000  Uiso   1.00
C68    C     0.42145   0.16148   0.47333   0.00000  Uiso   1.00
C69    C     0.62405   0.02127   0.25019   0.00000  Uiso   1.00
C70    C     0.37592   0.31205   0.24993   0.00000  Uiso   1.00
C71    C     0.62406   0.31204   0.25015   0.00000  Uiso   1.00
C72    C     0.37590   0.02129   0.24997   0.00000  Uiso   1.00
C73    C     0.33334   0.29059   0.25002   0.00000  Uiso   1.00
C74    C     0.66664   0.04274   0.25008   0.00000  Uiso   1.00
C75    C     0.51617   0.14223   0.27910   0.00000  Uiso   1.00
C76    C     0.48382   0.19113   0.22093   0.00000  Uiso   1.00
C77    C     0.46656   0.14226   0.27911   0.00000  Uiso   1.00
C78    C     0.53344   0.19109   0.22091   0.00000  Uiso   1.00
C79    C     0.63930   0.16747   0.33605   0.00000  Uiso   1.00
C80    C     0.36079   0.16667   0.16377   0.00000  Uiso   1.00
C81    C     0.62386   0.17486   0.38446   0.00000  Uiso   1.00
C82    C     0.37598   0.16725   0.11434   0.00000  Uiso   1.00
C83    C     0.63527   0.21061   0.44918   0.00000  Uiso   1.00
C84    C     0.35664   0.15845   0.04348   0.00000  Uiso   1.00
C85    C     0.65334   0.19748   0.40506   0.00000  Uiso   1.00
C86    C     0.34187   0.16058   0.09009   0.00000  Uiso   1.00
C87    C     0.57639   0.16450   0.40852   0.00000  Uiso   1.00
C88    C     0.42507   0.17380   0.09121   0.00000  Uiso   1.00
C89    C     0.55552   0.18132   0.45134   0.00000  Uiso   1.00
C90    C     0.43985   0.17607   0.04400   0.00000  Uiso   1.00
C91    C     0.58639   0.20287   0.47268   0.00000  Uiso   1.00
C92    C     0.40570   0.16538   0.02006   0.00000  Uiso   1.00
C93    C     0.50509   0.17709   0.47370   0.00000  Uiso   1.00
C94    C     0.48839   0.18645   0.01996   0.00000  Uiso   1.00
Cu95   Cu    0.38022   0.16667   0.25000   0.00000  Uiso   1.00
Cu96   Cu    0.61978   0.16666   0.25000   0.00000  Uiso   1.00
H97    H     0.63724   0.15527   0.10728   0.00000  Uiso   1.00
H98    H     0.35676   0.20586   0.38666   0.00000  Uiso   1.00
H99    H     0.59073   0.03728   0.25031   0.00000  Uiso   1.00
H100   H     0.40923   0.29605   0.24982   0.00000  Uiso   1.00
H101   H     0.59077   0.29603   0.25022   0.00000  Uiso   1.00
H102   H     0.40920   0.03730   0.24990   0.00000  Uiso   1.00
N103   N     0.45069   0.16668   0.24999   0.00000  Uiso   1.00
N104   N     0.54931   0.16666   0.25001   0.00000  Uiso   1.00
O105   O     0.37291   0.10655   0.25000   0.00000  Uiso   1.00
O106   O     0.62709   0.22678   0.25000   0.00000  Uiso   1.00
O107   O     0.62706   0.10654   0.25001   0.00000  Uiso   1.00
O108   O     0.37294   0.22679   0.24999   0.00000  Uiso   1.00
O109   O     0.35186   0.16668   0.31491   0.00000  Uiso   1.00
O110   O     0.64814   0.16666   0.18509   0.00000  Uiso   1.00
O111   O     0.60600   0.16667   0.31492   0.00000  Uiso   1.00
O112   O     0.39400   0.16667   0.18508   0.00000  Uiso   1.00
F113   F     0.59540   0.23847   0.03791   0.00000  Uiso   1.00
F114   F     0.39011   0.15123   0.44911   0.00000  Uiso   1.00
F115   F     0.45895   0.17372   0.11462   0.00000  Uiso   1.00
F116   F     0.55251   0.13582   0.39070   0.00000  Uiso   1.00
F117   F     0.66534   0.23212   0.46806   0.00000  Uiso   1.00
F118   F     0.65613   0.14904   0.02164   0.00000  Uiso   1.00
H119   H     0.50690   0.22166   0.07296   0.00000  Uiso   1.00
H120   H     0.47937   0.16493   0.41468   0.00000  Uiso   1.00
H121   H     0.52796   0.12259   0.30236   0.00000  Uiso   1.00
H122   H     0.47202   0.21081   0.19771   0.00000  Uiso   1.00
H123   H     0.44096   0.12268   0.30238   0.00000  Uiso   1.00
H124   H     0.55904   0.21067   0.19764   0.00000  Uiso   1.00
C125   C     0.99997   0.08735   0.25005   0.00000  Uiso   1.00
C126   C     0.66668   0.24598   0.24999   0.00000  Uiso   1.00
C127   C     0.85302   0.20830   0.03999   0.00000  Uiso   1.00
C128   C     0.80362   0.16669   0.45075   0.00000  Uiso   1.00
C129   C     0.90091   0.21678   0.01673   0.00000  Uiso   1.00
C130   C     0.75479   0.16148   0.47333   0.00000  Uiso   1.00
C131   C     0.95738   0.02127   0.25019   0.00000  Uiso   1.00
C132   C     0.70925   0.31205   0.24993   0.00000  Uiso   1.00
C133   C     0.95740   0.31204   0.25015   0.00000  Uiso   1.00
C134   C     0.70924   0.02129   0.24997   0.00000  Uiso   1.00
C135   C     0.66667   0.29059   0.25002   0.00000  Uiso   1.00
C136   C     0.99997   0.04274   0.25008   0.00000  Uiso   1.00
C137   C     0.84951   0.14223   0.27910   0.00000  Uiso   1.00
C138   C     0.81715   0.19113   0.22093   0.00000  Uiso   1.00
C139   C     0.79990   0.14226   0.27911   0.00000  Uiso   1.00
C140   C     0.86677   0.19109   0.22091   0.00000  Uiso   1.00
C141   C     0.97263   0.16747   0.33605   0.00000  Uiso   1.00
C142   C     0.69413   0.16667   0.16377   0.00000  Uiso   1.00
C143   C     0.95719   0.17486   0.38446   0.00000  Uiso   1.00
C144   C     0.70931   0.16725   0.11434   0.00000  Uiso   1.00
C145   C     0.96861   0.21061   0.44918   0.00000  Uiso   1.00
C146   C     0.68997   0.15845   0.04348   0.00000  Uiso   1.00
C147   C     0.98667   0.19748   0.40506   0.00000  Uiso   1.00
C148   C     0.67521   0.16058   0.09009   0.00000  Uiso   1.00
C149   C     0.90973   0.16450   0.40852   0.00000  Uiso   1.00
C150   C     0.75840   0.17380   0.09121   0.00000  Uiso   1.00
C151   C     0.88885   0.18132   0.45134   0.00000  Uiso   1.00
C152   C     0.77318   0.17607   0.04400   0.00000  Uiso   1.00
C153   C     0.91972   0.20287   0.47268   0.00000  Uiso   1.00
C154   C     0.73903   0.16538   0.02006   0.00000  Uiso   1.00
C155   C     0.83842   0.17709   0.47370   0.00000  Uiso   1.00
C156   C     0.82173   0.18645   0.01996   0.00000  Uiso   1.00
Cu157  Cu    0.71355   0.16667   0.25000   0.00000  Uiso   1.00
Cu158  Cu    0.95311   0.16666   0.25000   0.00000  Uiso   1.00
H159   H     0.97058   0.15527   0.10728   0.00000  Uiso   1.00
H160   H     0.69009   0.20586   0.38666   0.00000  Uiso   1.00
H161   H     0.92407   0.03728   0.25031   0.00000  Uiso   1.00
H162   H     0.74257   0.29605   0.24982   0.00000  Uiso   1.00
H163   H     0.92410   0.29603   0.25022   0.00000  Uiso   1.00
H164   H     0.74253   0.03730   0.24990   0.00000  Uiso   1.00
N165   N     0.78403   0.16668   0.24999   0.00000  Uiso   1.00
N166   N     0.88264   0.16666   0.25001   0.00000  Uiso   1.00
O167   O     0.70625   0.10655   0.25000   0.00000  Uiso   1.00
O168   O     0.96042   0.22678   0.25000   0.00000  Uiso   1.00
O169   O     0.96039   0.10654   0.25001   0.00000  Uiso   1.00
O170   O     0.70628   0.22679   0.24999   0.00000  Uiso   1.00
O171   O     0.68519   0.16668   0.31491   0.00000  Uiso   1.00
O172   O     0.98148   0.16666   0.18509   0.00000  Uiso   1.00
O173   O     0.93933   0.16667   0.31492   0.00000  Uiso   1.00
O174   O     0.72733   0.16667   0.18508   0.00000  Uiso   1.00
F175   F     0.92874   0.23847   0.03791   0.00000  Uiso   1.00
F176   F     0.72345   0.15123   0.44911   0.00000  Uiso   1.00
F177   F     0.79229   0.17372   0.11462   0.00000  Uiso   1.00
F178   F     0.88584   0.13582   0.39070   0.00000  Uiso   1.00
F179   F     0.99868   0.23212   0.46806   0.00000  Uiso   1.00
F180   F     0.98947   0.14904   0.02164   0.00000  Uiso   1.00
H181   H     0.84023   0.22166   0.07296   0.00000  Uiso   1.00
H182   H     0.81270   0.16493   0.41468   0.00000  Uiso   1.00
H183   H     0.86129   0.12259   0.30236   0.00000  Uiso   1.00
H184   H     0.80535   0.21081   0.19771   0.00000  Uiso   1.00
H185   H     0.77429   0.12268   0.30238   0.00000  Uiso   1.00
H186   H     0.89238   0.21067   0.19764   0.00000  Uiso   1.00
C187   C     0.33331   0.42069   0.25005   0.00000  Uiso   1.00
C188   C     0.00002   0.57931   0.24999   0.00000  Uiso   1.00
C189   C     0.18635   0.54164   0.03999   0.00000  Uiso   1.00
C190   C     0.13695   0.50002   0.45075   0.00000  Uiso   1.00
C191   C     0.23424   0.55011   0.01673   0.00000  Uiso   1.00
C192   C     0.08812   0.49481   0.47333   0.00000  Uiso   1.00
C193   C     0.29071   0.35461   0.25019   0.00000  Uiso   1.00
C194   C     0.04259   0.64539   0.24993   0.00000  Uiso   1.00
C195   C     0.29073   0.64537   0.25015   0.00000  Uiso   1.00
C196   C     0.04257   0.35462   0.24997   0.00000  Uiso   1.00
C197   C     0.00000   0.62393   0.25002   0.00000  Uiso   1.00
C198   C     0.33330   0.37607   0.25008   0.00000  Uiso   1.00
C199   C     0.18284   0.47557   0.27910   0.00000  Uiso   1.00
C200   C     0.15048   0.52447   0.22093   0.00000  Uiso   1.00
C201   C     0.13323   0.47560   0.27911   0.00000  Uiso   1.00
C202   C     0.20010   0.52442   0.22091   0.00000  Uiso   1.00
C203   C     0.30597   0.50080   0.33605   0.00000  Uiso   1.00
C204   C     0.02746   0.50000   0.16377   0.00000  Uiso   1.00
C205   C     0.29053   0.50819   0.38446   0.00000  Uiso   1.00
C206   C     0.04265   0.50058   0.11434   0.00000  Uiso   1.00
C207   C     0.30194   0.54394   0.44918   0.00000  Uiso   1.00
C208   C     0.02331   0.49178   0.04348   0.00000  Uiso   1.00
C209   C     0.32001   0.53081   0.40506   0.00000  Uiso   1.00
C210   C     0.00854   0.49391   0.09009   0.00000  Uiso   1.00
C211   C     0.24306   0.49784   0.40852   0.00000  Uiso   1.00
C212   C     0.09173   0.50714   0.09121   0.00000  Uiso   1.00
C213   C     0.22218   0.51466   0.45134   0.00000  Uiso   1.00
C214   C     0.10652   0.50940   0.04400   0.00000  Uiso   1.00
C215   C     0.25305   0.53621   0.47268   0.00000  Uiso   1.00
C216   C     0.07237   0.49871   0.02006   0.00000  Uiso   1.00
C217   C     0.17176   0.51043   0.47370   0.00000  Uiso   1.00
C218   C     0.15506   0.51978   0.01996   0.00000  Uiso   1.00
Cu219  Cu    0.04689   0.50001   0.25000   0.00000  Uiso   1.00
Cu220  Cu    0.28645   0.49999   0.25000   0.00000  Uiso   1.00
H221   H     0.30391   0.48860   0.10728   0.00000  Uiso   1.00
H222   H     0.02343   0.53919   0.38666   0.00000  Uiso   1.00
H223   H     0.25740   0.37061   0.25031   0.00000  Uiso   1.00
H224   H     0.07590   0.62938   0.24982   0.00000  Uiso   1.00
H225   H     0.25744   0.62936   0.25022   0.00000  Uiso   1.00
H226   H     0.07587   0.37063   0.24990   0.00000  Uiso   1.00
N227   N     0.11736   0.50001   0.24999   0.00000  Uiso   1.00
N228   N     0.21597   0.49999   0.25001   0.00000  Uiso   1.00
O229   O     0.03958   0.43989   0.25000   0.00000  Uiso   1.00
O230   O     0.29375   0.56011   0.25000   0.00000  Uiso   1.00
O231   O     0.29372   0.43988   0.25001   0.00000  Uiso   1.00
O232   O     0.03961   0.56012   0.24999   0.00000  Uiso   1.00
O233   O     0.01852   0.50001   0.31491   0.00000  Uiso   1.00
O234   O     0.31481   0.49999   0.18509   0.00000  Uiso   1.00
O235   O     0.27267   0.50000   0.31492   0.00000  Uiso   1.00
O236   O     0.06067   0.50000   0.18508   0.00000  Uiso   1.00
F237   F     0.26207   0.57180   0.03791   0.00000  Uiso   1.00
F238   F     0.05678   0.48457   0.44911   0.00000  Uiso   1.00
F239   F     0.12562   0.50705   0.11462   0.00000  Uiso   1.00
F240   F     0.21917   0.46915   0.39070   0.00000  Uiso   1.00
F241   F     0.33201   0.56546   0.46806   0.00000  Uiso   1.00
F242   F     0.32280   0.48237   0.02164   0.00000  Uiso   1.00
H243   H     0.17357   0.55499   0.07296   0.00000  Uiso   1.00
H244   H     0.14603   0.49826   0.41468   0.00000  Uiso   1.00
H245   H     0.19463   0.45592   0.30236   0.00000  Uiso   1.00
H246   H     0.13869   0.54415   0.19771   0.00000  Uiso   1.00
H247   H     0.10762   0.45602   0.30238   0.00000  Uiso   1.00
H248   H     0.22571   0.54400   0.19764   0.00000  Uiso   1.00
C249   C     0.66664   0.42069   0.25005   0.00000  Uiso   1.00
C250   C     0.33335   0.57931   0.24999   0.00000  Uiso   1.00
C251   C     0.51969   0.54164   0.03999   0.00000  Uiso   1.00
C252   C     0.47029   0.50002   0.45075   0.00000  Uiso   1.00
C253   C     0.56758   0.55011   0.01673   0.00000  Uiso   1.00
C254   C     0.42145   0.49481   0.47333   0.00000  Uiso   1.00
C255   C     0.62405   0.35461   0.25019   0.00000  Uiso   1.00
C256   C     0.37592   0.64539   0.24993   0.00000  Uiso   1.00
C257   C     0.62406   0.64537   0.25015   0.00000  Uiso   1.00
C258   C     0.37590   0.35462   0.24997   0.00000  Uiso   1.00
C259   C     0.33334   0.62393   0.25002   0.00000  Uiso   1.00
C260   C     0.66664   0.37607   0.25008   0.00000  Uiso   1.00
C261   C     0.51617   0.47557   0.27910   0.00000  Uiso   1.00
C262   C     0.48382   0.52447   0.22093   0.00000  Uiso   1.00
C263   C     0.46656   0.47560   0.27911   0.00000  Uiso   1.00
C264   C     0.53344   0.52442   0.22091   0.00000  Uiso   1.00
C265   C     0.63930   0.50080   0.33605   0.00000  Uiso   1.00
C266   C     0.36079   0.50000   0.16377   0.00000  Uiso   1.00
C267   C     0.62386   0.50819   0.38446   0.00000  Uiso   1.00
C268   C     0.37598   0.50058   0.11434   0.00000  Uiso   1.00
C269   C     0.63527   0.54394   0.44918   0.00000  Uiso   1.00
C270   C     0.35664   0.49178   0.04348   0.00000  Uiso   1.00
C271   C     0.65334   0.53081   0.40506   0.00000  Uiso   1.00
C272   C     0.34187   0.49391   0.09009   0.00000  Uiso   1.00
C273   C     0.57639   0.49784   0.40852   0.00000  Uiso   1.00
C274   C     0.42507   0.50714   0.09121   0.00000  Uiso   1.00
C275   C     0.55552   0.51466   0.45134   0.00000  Uiso   1.00
C276   C     0.43985   0.50940   0.04400   0.00000  Uiso   1.00
C277   C     0.58639   0.53621   0.47268   0.00000  Uiso   1.00
C278   C     0.40570   0.49871   0.02006   0.00000  Uiso   1.00
C279   C     0.50509   0.51043   0.47370   0.00000  Uiso   1.00
C280   C     0.48839   0.51978   0.01996   0.00000  Uiso   1.00
Cu281  Cu    0.38022   0.50001   0.25000   0.00000  Uiso   1.00
Cu282  Cu    0.61978   0.49999   0.25000   0.00000  Uiso   1.00
H283   H     0.63724   0.48860   0.10728   0.00000  Uiso   1.00
H284   H     0.35676   0.53919   0.38666   0.00000  Uiso   1.00
H285   H     0.59073   0.37061   0.25031   0.00000  Uiso   1.00
H286   H     0.40923   0.62938   0.24982   0.00000  Uiso   1.00
H287   H     0.59077   0.62936   0.25022   0.00000  Uiso   1.00
H288   H     0.40920   0.37063   0.24990   0.00000  Uiso   1.00
N289   N     0.45069   0.50001   0.24999   0.00000  Uiso   1.00
N290   N     0.54931   0.49999   0.25001   0.00000  Uiso   1.00
O291   O     0.37291   0.43989   0.25000   0.00000  Uiso   1.00
O292   O     0.62709   0.56011   0.25000   0.00000  Uiso   1.00
O293   O     0.62706   0.43988   0.25001   0.00000  Uiso   1.00
O294   O     0.37294   0.56012   0.24999   0.00000  Uiso   1.00
O295   O     0.35186   0.50001   0.31491   0.00000  Uiso   1.00
O296   O     0.64814   0.49999   0.18509   0.00000  Uiso   1.00
O297   O     0.60600   0.50000   0.31492   0.00000  Uiso   1.00
O298   O     0.39400   0.50000   0.18508   0.00000  Uiso   1.00
F299   F     0.59540   0.57180   0.03791   0.00000  Uiso   1.00
F300   F     0.39011   0.48457   0.44911   0.00000  Uiso   1.00
F301   F     0.45895   0.50705   0.11462   0.00000  Uiso   1.00
F302   F     0.55251   0.46915   0.39070   0.00000  Uiso   1.00
F303   F     0.66534   0.56546   0.46806   0.00000  Uiso   1.00
F304   F     0.65613   0.48237   0.02164   0.00000  Uiso   1.00
H305   H     0.50690   0.55499   0.07296   0.00000  Uiso   1.00
H306   H     0.47937   0.49826   0.41468   0.00000  Uiso   1.00
H307   H     0.52796   0.45592   0.30236   0.00000  Uiso   1.00
H308   H     0.47202   0.54415   0.19771   0.00000  Uiso   1.00
H309   H     0.44096   0.45602   0.30238   0.00000  Uiso   1.00
H310   H     0.55904   0.54400   0.19764   0.00000  Uiso   1.00
C311   C     0.99997   0.42069   0.25005   0.00000  Uiso   1.00
C312   C     0.66668   0.57931   0.24999   0.00000  Uiso   1.00
C313   C     0.85302   0.54164   0.03999   0.00000  Uiso   1.00
C314   C     0.80362   0.50002   0.45075   0.00000  Uiso   1.00
C315   C     0.90091   0.55011   0.01673   0.00000  Uiso   1.00
C316   C     0.75479   0.49481   0.47333   0.00000  Uiso   1.00
C317   C     0.95738   0.35461   0.25019   0.00000  Uiso   1.00
C318   C     0.70925   0.64539   0.24993   0.00000  Uiso   1.00
C319   C     0.95740   0.64537   0.25015   0.00000  Uiso   1.00
C320   C     0.70924   0.35462   0.24997   0.00000  Uiso   1.00
C321   C     0.66667   0.62393   0.25002   0.00000  Uiso   1.00
C322   C     0.99997   0.37607   0.25008   0.00000  Uiso   1.00
C323   C     0.84951   0.47557   0.27910   0.00000  Uiso   1.00
C324   C     0.81715   0.52447   0.22093   0.00000  Uiso   1.00
C325   C     0.79990   0.47560   0.27911   0.00000  Uiso   1.00
C326   C     0.86677   0.52442   0.22091   0.00000  Uiso   1.00
C327   C     0.97263   0.50080   0.33605   0.00000  Uiso   1.00
C328   C     0.69413   0.50000   0.16377   0.00000  Uiso   1.00
C329   C     0.95719   0.50819   0.38446   0.00000  Uiso   1.00
C330   C     0.70931   0.50058   0.11434   0.00000  Uiso   1.00
C331   C     0.96861   0.54394   0.44918   0.00000  Uiso   1.00
C332   C     0.68997   0.49178   0.04348   0.00000  Uiso   1.00
C333   C     0.98667   0.53081   0.40506   0.00000  Uiso   1.00
C334   C     0.67521   0.49391   0.09009   0.00000  Uiso   1.00
C335   C     0.90973   0.49784   0.40852   0.00000  Uiso   1.00
C336   C     0.75840   0.50714   0.09121   0.00000  Uiso   1.00
C337   C     0.88885   0.51466   0.45134   0.00000  Uiso   1.00
C338   C     0.77318   0.50940   0.04400   0.00000  Uiso   1.00
C339   C     0.91972   0.53621   0.47268   0.00000  Uiso   1.00
C340   C     0.73903   0.49871   0.02006   0.00000  Uiso   1.00
C341   C     0.83842   0.51043   0.47370   0.00000  Uiso   1.00
C342   C     0.82173   0.51978   0.01996   0.00000  Uiso   1.00
Cu343  Cu    0.71355   0.50001   0.25000   0.00000  Uiso   1.00
Cu344  Cu    0.95311   0.49999   0.25000   0.00000  Uiso   1.00
H345   H     0.97058   0.48860   0.10728   0.00000  Uiso   1.00
H346   H     0.69009   0.53919   0.38666   0.00000  Uiso   1.00
H347   H     0.92407   0.37061   0.25031   0.00000  Uiso   1.00
H348   H     0.74257   0.62938   0.24982   0.00000  Uiso   1.00
H349   H     0.92410   0.62936   0.25022   0.00000  Uiso   1.00
H350   H     0.74253   0.37063   0.24990   0.00000  Uiso   1.00
N351   N     0.78403   0.50001   0.24999   0.00000  Uiso   1.00
N352   N     0.88264   0.49999   0.25001   0.00000  Uiso   1.00
O353   O     0.70625   0.43989   0.25000   0.00000  Uiso   1.00
O354   O     0.96042   0.56011   0.25000   0.00000  Uiso   1.00
O355   O     0.96039   0.43988   0.25001   0.00000  Uiso   1.00
O356   O     0.70628   0.56012   0.24999   0.00000  Uiso   1.00
O357   O     0.68519   0.50001   0.31491   0.00000  Uiso   1.00
O358   O     0.98148   0.49999   0.18509   0.00000  Uiso   1.00
O359   O     0.93933   0.50000   0.31492   0.00000  Uiso   1.00
O360   O     0.72733   0.50000   0.18508   0.00000  Uiso   1.00
F361   F     0.92874   0.57180   0.03791   0.00000  Uiso   1.00
F362   F     0.72345   0.48457   0.44911   0.00000  Uiso   1.00
F363   F     0.79229   0.50705   0.11462   0.00000  Uiso   1.00
F364   F     0.88584   0.46915   0.39070   0.00000  Uiso   1.00
F365   F     0.99868   0.56546   0.46806   0.00000  Uiso   1.00
F366   F     0.98947   0.48237   0.02164   0.00000  Uiso   1.00
H367   H     0.84023   0.55499   0.07296   0.00000  Uiso   1.00
H368   H     0.81270   0.49826   0.41468   0.00000  Uiso   1.00
H369   H     0.86129   0.45592   0.30236   0.00000  Uiso   1.00
H370   H     0.80535   0.54415   0.19771   0.00000  Uiso   1.00
H371   H     0.77429   0.45602   0.30238   0.00000  Uiso   1.00
H372   H     0.89238   0.54400   0.19764   0.00000  Uiso   1.00
C373   C     0.33331   0.75402   0.25005   0.00000  Uiso   1.00
C374   C     0.00002   0.91264   0.24999   0.00000  Uiso   1.00
C375   C     0.18635   0.87497   0.03999   0.00000  Uiso   1.00
C376   C     0.13695   0.83335   0.45075   0.00000  Uiso   1.00
C377   C     0.23424   0.88345   0.01673   0.00000  Uiso   1.00
C378   C     0.08812   0.82814   0.47333   0.00000  Uiso   1.00
C379   C     0.29071   0.68794   0.25019   0.00000  Uiso   1.00
C380   C     0.04259   0.97872   0.24993   0.00000  Uiso   1.00
C381   C     0.29073   0.97871   0.25015   0.00000  Uiso   1.00
C382   C     0.04257   0.68795   0.24997   0.00000  Uiso   1.00
C383   C     0.00000   0.95726   0.25002   0.00000  Uiso   1.00
C384   C     0.33330   0.70940   0.25008   0.00000  Uiso   1.00
C385   C     0.18284   0.80890   0.27910   0.00000  Uiso   1.00
C386   C     0.15048   0.85780   0.22093   0.00000  Uiso   1.00
C387   C     0.13323   0.80893   0.27911   0.00000  Uiso   1.00
C388   C     0.20010   0.85775   0.22091   0.00000  Uiso   1.00
C389   C     0.30597   0.83414   0.33605   0.00000  Uiso   1.00
C390   C     0.02746   0.83333   0.16377   0.00000  Uiso   1.00
C391   C     0.29053   0.84152   0.38446   0.00000  Uiso   1.00
C392   C     0.04265   0.83391   0.11434   0.00000  Uiso   1.00
C393   C     0.30194   0.87727   0.44918   0.00000  Uiso   1.00
C394   C     0.02331   0.82511   0.04348   0.00000  Uiso   1.00
C395   C     0.32001   0.86415   0.40506   0.00000  Uiso   1.00
C396   C     0.00854   0.82724   0.09009   0.00000  Uiso   1.00
C397   C     0.24306   0.83117   0.40852   0.00000  Uiso   1.00
C398   C     0.09173   0.84047   0.09121   0.00000  Uiso   1.00
C399   C     0.22218   0.84799   0.45134   0.00000  Uiso   1.00
C400   C     0.10652   0.84274   0.04400   0.00000  Uiso   1.00
C401   C     0.25305   0.86954   0.47268   0.00000  Uiso   1.00
C402   C     0.07237   0.83204   0.02006   0.00000  Uiso   1.00
C403   C     0.17176   0.84376   0.47370   0.00000  Uiso   1.00
C404   C     0.15506   0.85312   0.01996   0.00000  Uiso   1.00
Cu405  Cu    0.04689   0.83334   0.25000   0.00000  Uiso   1.00
Cu406  Cu    0.28645   0.83333   0.25000   0.00000  Uiso   1.00
H407   H     0.30391   0.82194   0.10728   0.00000  Uiso   1.00
H408   H     0.02343   0.87253   0.38666   0.00000  Uiso   1.00
H409   H     0.25740   0.70394   0.25031   0.00000  Uiso   1.00
H410   H     0.07590   0.96272   0.24982   0.00000  Uiso   1.00
H411   H     0.25744   0.96269   0.25022   0.00000  Uiso   1.00
H412   H     0.07587   0.70397   0.24990   0.00000  Uiso   1.00
N413   N     0.11736   0.83334   0.24999   0.00000  Uiso   1.00
N414   N     0.21597   0.83332   0.25001   0.00000  Uiso   1.00
O415   O     0.03958   0.77322   0.25000   0.00000  Uiso   1.00
O416   O     0.29375   0.89345   0.25000   0.00000  Uiso   1.00
O417   O     0.29372   0.77321   0.25001   0.00000  Uiso   1.00
O418   O     0.03961   0.89346   0.24999   0.00000  Uiso   1.00
O419   O     0.01852   0.83334   0.31491   0.00000  Uiso   1.00
O420   O     0.31481   0.83332   0.18509   0.00000  Uiso   1.00
O421   O     0.27267   0.83333   0.31492   0.00000  Uiso   1.00
O422   O     0.06067   0.83333   0.18508   0.00000  Uiso   1.00
F423   F     0.26207   0.90514   0.03791   0.00000  Uiso   1.00
F424   F     0.05678   0.81790   0.44911   0.00000  Uiso   1.00
F425   F     0.12562   0.84039   0.11462   0.00000  Uiso   1.00
F426   F     0.21917   0.80249   0.39070   0.00000  Uiso   1.00
F427   F     0.33201   0.89879   0.46806   0.00000  Uiso   1.00
F428   F     0.32280   0.81571   0.02164   0.00000  Uiso   1.00
H429   H     0.17357   0.88833   0.07296   0.00000  Uiso   1.00
H430   H     0.14603   0.83159   0.41468   0.00000  Uiso   1.00
H431   H     0.19463   0.78925   0.30236   0.00000  Uiso   1.00
H432   H     0.13869   0.87748   0.19771   0.00000  Uiso   1.00
H433   H     0.10762   0.78935   0.30238   0.00000  Uiso   1.00
H434   H     0.22571   0.87734   0.19764   0.00000  Uiso   1.00
C435   C     0.66664   0.75402   0.25005   0.00000  Uiso   1.00
C436   C     0.33335   0.91264   0.24999   0.00000  Uiso   1.00
C437   C     0.51969   0.87497   0.03999   0.00000  Uiso   1.00
C438   C     0.47029   0.83335   0.45075   0.00000  Uiso   1.00
C439   C     0.56758   0.88345   0.01673   0.00000  Uiso   1.00
C440   C     0.42145   0.82814   0.47333   0.00000  Uiso   1.00
C441   C     0.62405   0.68794   0.25019   0.00000  Uiso   1.00
C442   C     0.37592   0.97872   0.24993   0.00000  Uiso   1.00
C443   C     0.62406   0.97871   0.25015   0.00000  Uiso   1.00
C444   C     0.37590   0.68795   0.24997   0.00000  Uiso   1.00
C445   C     0.33334   0.95726   0.25002   0.00000  Uiso   1.00
C446   C     0.66664   0.70940   0.25008   0.00000  Uiso   1.00
C447   C     0.51617   0.80890   0.27910   0.00000  Uiso   1.00
C448   C     0.48382   0.85780   0.22093   0.00000  Uiso   1.00
C449   C     0.46656   0.80893   0.27911   0.00000  Uiso   1.00
C450   C     0.53344   0.85775   0.22091   0.00000  Uiso   1.00
C451   C     0.63930   0.83414   0.33605   0.00000  Uiso   1.00
C452   C     0.36079   0.83333   0.16377   0.00000  Uiso   1.00
C453   C     0.62386   0.84152   0.38446   0.00000  Uiso   1.00
C454   C     0.37598   0.83391   0.11434   0.00000  Uiso   1.00
C455   C     0.63527   0.87727   0.44918   0.00000  Uiso   1.00
C456   C     0.35664   0.82511   0.04348   0.00000  Uiso   1.00
C457   C     0.65334   0.86415   0.40506   0.00000  Uiso   1.00
C458   C     0.34187   0.82724   0.09009   0.00000  Uiso   1.00
C459   C     0.57639   0.83117   0.40852   0.00000  Uiso   1.00
C460   C     0.42507   0.84047   0.09121   0.00000  Uiso   1.00
C461   C     0.55552   0.84799   0.45134   0.00000  Uiso   1.00
C462   C     0.43985   0.84274   0.04400   0.00000  Uiso   1.00
C463   C     0.58639   0.86954   0.47268   0.00000  Uiso   1.00
C464   C     0.40570   0.83204   0.02006   0.00000  Uiso   1.00
C465   C     0.50509   0.84376   0.47370   0.00000  Uiso   1.00
C466   C     0.48839   0.85312   0.01996   0.00000  Uiso   1.00
Cu467  Cu    0.38022   0.83334   0.25000   0.00000  Uiso   1.00
Cu468  Cu    0.61978   0.83333   0.25000   0.00000  Uiso   1.00
H469   H     0.63724   0.82194   0.10728   0.00000  Uiso   1.00
H470   H     0.35676   0.87253   0.38666   0.00000  Uiso   1.00
H471   H     0.59073   0.70394   0.25031   0.00000  Uiso   1.00
H472   H     0.40923   0.96272   0.24982   0.00000  Uiso   1.00
H473   H     0.59077   0.96269   0.25022   0.00000  Uiso   1.00
H474   H     0.40920   0.70397   0.24990   0.00000  Uiso   1.00
N475   N     0.45069   0.83334   0.24999   0.00000  Uiso   1.00
N476   N     0.54931   0.83332   0.25001   0.00000  Uiso   1.00
O477   O     0.37291   0.77322   0.25000   0.00000  Uiso   1.00
O478   O     0.62709   0.89345   0.25000   0.00000  Uiso   1.00
O479   O     0.62706   0.77321   0.25001   0.00000  Uiso   1.00
O480   O     0.37294   0.89346   0.24999   0.00000  Uiso   1.00
O481   O     0.35186   0.83334   0.31491   0.00000  Uiso   1.00
O482   O     0.64814   0.83332   0.18509   0.00000  Uiso   1.00
O483   O     0.60600   0.83333   0.31492   0.00000  Uiso   1.00
O484   O     0.39400   0.83333   0.18508   0.00000  Uiso   1.00
F485   F     0.59540   0.90514   0.03791   0.00000  Uiso   1.00
F486   F     0.39011   0.81790   0.44911   0.00000  Uiso   1.00
F487   F     0.45895   0.84039   0.11462   0.00000  Uiso   1.00
F488   F     0.55251   0.80249   0.39070   0.00000  Uiso   1.00
F489   F     0.66534   0.89879   0.46806   0.00000  Uiso   1.00
F490   F     0.65613   0.81571   0.02164   0.00000  Uiso   1.00
H491   H     0.50690   0.88833   0.07296   0.00000  Uiso   1.00
H492   H     0.47937   0.83159   0.41468   0.00000  Uiso   1.00
H493   H     0.52796   0.78925   0.30236   0.00000  Uiso   1.00
H494   H     0.47202   0.87748   0.19771   0.00000  Uiso   1.00
H495   H     0.44096   0.78935   0.30238   0.00000  Uiso   1.00
H496   H     0.55904   0.87734   0.19764   0.00000  Uiso   1.00
C497   C     0.99997   0.75402   0.25005   0.00000  Uiso   1.00
C498   C     0.66668   0.91264   0.24999   0.00000  Uiso   1.00
C499   C     0.85302   0.87497   0.03999   0.00000  Uiso   1.00
C500   C     0.80362   0.83335   0.45075   0.00000  Uiso   1.00
C501   C     0.90091   0.88345   0.01673   0.00000  Uiso   1.00
C502   C     0.75479   0.82814   0.47333   0.00000  Uiso   1.00
C503   C     0.95738   0.68794   0.25019   0.00000  Uiso   1.00
C504   C     0.70925   0.97872   0.24993   0.00000  Uiso   1.00
C505   C     0.95740   0.97871   0.25015   0.00000  Uiso   1.00
C506   C     0.70924   0.68795   0.24997   0.00000  Uiso   1.00
C507   C     0.66667   0.95726   0.25002   0.00000  Uiso   1.00
C508   C     0.99997   0.70940   0.25008   0.00000  Uiso   1.00
C509   C     0.84951   0.80890   0.27910   0.00000  Uiso   1.00
C510   C     0.81715   0.85780   0.22093   0.00000  Uiso   1.00
C511   C     0.79990   0.80893   0.27911   0.00000  Uiso   1.00
C512   C     0.86677   0.85775   0.22091   0.00000  Uiso   1.00
C513   C     0.97263   0.83414   0.33605   0.00000  Uiso   1.00
C514   C     0.69413   0.83333   0.16377   0.00000  Uiso   1.00
C515   C     0.95719   0.84152   0.38446   0.00000  Uiso   1.00
C516   C     0.70931   0.83391   0.11434   0.00000  Uiso   1.00
C517   C     0.96861   0.87727   0.44918   0.00000  Uiso   1.00
C518   C     0.68997   0.82511   0.04348   0.00000  Uiso   1.00
C519   C     0.98667   0.86415   0.40506   0.00000  Uiso   1.00
C520   C     0.67521   0.82724   0.09009   0.00000  Uiso   1.00
C521   C     0.90973   0.83117   0.40852   0.00000  Uiso   1.00
C522   C     0.75840   0.84047   0.09121   0.00000  Uiso   1.00
C523   C     0.88885   0.84799   0.45134   0.00000  Uiso   1.00
C524   C     0.77318   0.84274   0.04400   0.00000  Uiso   1.00
C525   C     0.91972   0.86954   0.47268   0.00000  Uiso   1.00
C526   C     0.73903   0.83204   0.02006   0.00000  Uiso   1.00
C527   C     0.83842   0.84376   0.47370   0.00000  Uiso   1.00
C528   C     0.82173   0.85312   0.01996   0.00000  Uiso   1.00
Cu529  Cu    0.71355   0.83334   0.25000   0.00000  Uiso   1.00
Cu530  Cu    0.95311   0.83333   0.25000   0.00000  Uiso   1.00
H531   H     0.97058   0.82194   0.10728   0.00000  Uiso   1.00
H532   H     0.69009   0.87253   0.38666   0.00000  Uiso   1.00
H533   H     0.92407   0.70394   0.25031   0.00000  Uiso   1.00
H534   H     0.74257   0.96272   0.24982   0.00000  Uiso   1.00
H535   H     0.92410   0.96269   0.25022   0.00000  Uiso   1.00
H536   H     0.74253   0.70397   0.24990   0.00000  Uiso   1.00
N537   N     0.78403   0.83334   0.24999   0.00000  Uiso   1.00
N538   N     0.88264   0.83332   0.25001   0.00000  Uiso   1.00
O539   O     0.70625   0.77322   0.25000   0.00000  Uiso   1.00
O540   O     0.96042   0.89345   0.25000   0.00000  Uiso   1.00
O541   O     0.96039   0.77321   0.25001   0.00000  Uiso   1.00
O542   O     0.70628   0.89346   0.24999   0.00000  Uiso   1.00
O543   O     0.68519   0.83334   0.31491   0.00000  Uiso   1.00
O544   O     0.98148   0.83332   0.18509   0.00000  Uiso   1.00
O545   O     0.93933   0.83333   0.31492   0.00000  Uiso   1.00
O546   O     0.72733   0.83333   0.18508   0.00000  Uiso   1.00
F547   F     0.92874   0.90514   0.03791   0.00000  Uiso   1.00
F548   F     0.72345   0.81790   0.44911   0.00000  Uiso   1.00
F549   F     0.79229   0.84039   0.11462   0.00000  Uiso   1.00
F550   F     0.88584   0.80249   0.39070   0.00000  Uiso   1.00
F551   F     0.99868   0.89879   0.46806   0.00000  Uiso   1.00
F552   F     0.98947   0.81571   0.02164   0.00000  Uiso   1.00
H553   H     0.84023   0.88833   0.07296   0.00000  Uiso   1.00
H554   H     0.81270   0.83159   0.41468   0.00000  Uiso   1.00
H555   H     0.86129   0.78925   0.30236   0.00000  Uiso   1.00
H556   H     0.80535   0.87748   0.19771   0.00000  Uiso   1.00
H557   H     0.77429   0.78935   0.30238   0.00000  Uiso   1.00
H558   H     0.89238   0.87734   0.19764   0.00000  Uiso   1.00
C559   C     0.33331   0.08735   0.75005   0.00000  Uiso   1.00
C560   C     0.00002   0.24598   0.74999   0.00000  Uiso   1.00
C561   C     0.18635   0.20830   0.53999   0.00000  Uiso   1.00
C562   C     0.13695   0.16669   0.95075   0.00000  Uiso   1.00
C563   C     0.23424   0.21678   0.51673   0.00000  Uiso   1.00
C564   C     0.08812   0.16148   0.97333   0.00000  Uiso   1.00
C565   C     0.29071   0.02127   0.75019   0.00000  Uiso   1.00
C566   C     0.04259   0.31205   0.74993   0.00000  Uiso   1.00
C567   C     0.29073   0.31204   0.75015   0.00000  Uiso   1.00
C568   C     0.04257   0.02129   0.74997   0.00000  Uiso   1.00
C569   C     0.00000   0.29059   0.75002   0.00000  Uiso   1.00
C570   C     0.33330   0.04274   0.75008   0.00000  Uiso   1.00
C571   C     0.18284   0.14223   0.77910   0.00000  Uiso   1.00
C572   C     0.15048   0.19113   0.72093   0.00000  Uiso   1.00
C573   C     0.13323   0.14226   0.77911   0.00000  Uiso   1.00
C574   C     0.20010   0.19109   0.72091   0.00000  Uiso   1.00
C575   C     0.30597   0.16747   0.83605   0.00000  Uiso   1.00
C576   C     0.02746   0.16667   0.66377   0.00000  Uiso   1.00
C577   C     0.29053   0.17486   0.88446   0.00000  Uiso   1.00
C578   C     0.04265   0.16725   0.61434   0.00000  Uiso   1.00
C579   C     0.30194   0.21061   0.94918   0.00000  Uiso   1.00
C580   C     0.02331   0.15845   0.54348   0.00000  Uiso   1.00
C581   C     0.32001   0.19748   0.90506   0.00000  Uiso   1.00
C582   C     0.00854   0.16058   0.59009   0.00000  Uiso   1.00
C583   C     0.24306   0.16450   0.90852   0.00000  Uiso   1.00
C584   C     0.09173   0.17380   0.59121   0.00000  Uiso   1.00
C585   C     0.22218   0.18132   0.95134   0.00000  Uiso   1.00
C586   C     0.10652   0.17607   0.54400   0.00000  Uiso   1.00
C587   C     0.25305   0.20287   0.97268   0.00000  Uiso   1.00
C588   C     0.07237   0.16538   0.52006   0.00000  Uiso   1.00
C589   C     0.17176   0.17709   0.97370   0.00000  Uiso   1.00
C590   C     0.15506   0.18645   0.51996   0.00000  Uiso   1.00
Cu591  Cu    0.04689   0.16667   0.75000   0.00000  Uiso   1.00
Cu592  Cu    0.28645   0.16666   0.75000   0.00000  Uiso   1.00
H593   H     0.30391   0.15527   0.60728   0.00000  Uiso   1.00
H594   H     0.02343   0.20586   0.88666   0.00000  Uiso   1.00
H595   H     0.25740   0.03728   0.75031   0.00000  Uiso   1.00
H596   H     0.07590   0.29605   0.74982   0.00000  Uiso   1.00
H597   H     0.25744   0.29603   0.75022   0.00000  Uiso   1.00
H598   H     0.07587   0.03730   0.74990   0.00000  Uiso   1.00
N599   N     0.11736   0.16668   0.74999   0.00000  Uiso   1.00
N600   N     0.21597   0.16666   0.75001   0.00000  Uiso   1.00
O601   O     0.03958   0.10655   0.75000   0.00000  Uiso   1.00
O602   O     0.29375   0.22678   0.75000   0.00000  Uiso   1.00
O603   O     0.29372   0.10654   0.75001   0.00000  Uiso   1.00
O604   O     0.03961   0.22679   0.74999   0.00000  Uiso   1.00
O605   O     0.01852   0.16668   0.81491   0.00000  Uiso   1.00
O606   O     0.31481   0.16666   0.68509   0.00000  Uiso   1.00
O607   O     0.27267   0.16667   0.81492   0.00000  Uiso   1.00
O608   O     0.06067   0.16667   0.68508   0.00000  Uiso   1.00
F609   F     0.26207   0.23847   0.53791   0.00000  Uiso   1.00
F610   F     0.05678   0.15123   0.94911   0.00000  Uiso   1.00
F611   F     0.12562   0.17372   0.61462   0.00000  Uiso   1.00
F612   F     0.21917   0.13582   0.89070   0.00000  Uiso   1.00
F613   F     0.33201   0.23212   0.96806   0.00000  Uiso   1.00
F614   F     0.32280   0.14904   0.52164   0.00000  Uiso   1.00
H615   H     0.17357   0.22166   0.57296   0.00000  Uiso   1.00
H616   H     0.14603   0.16493   0.91468   0.00000  Uiso   1.00
H617   H     0.19463   0.12259   0.80236   0.00000  Uiso   1.00
H618   H     0.13869   0.21081   0.69771   0.00000  Uiso   1.00
H619   H     0.10762   0.12268   0.80238   0.00000  Uiso   1.00
H620   H     0.22571   0.21067   0.69764   0.00000  Uiso   1.00
C621   C     0.66664   0.08735   0.75005   0.00000  Uiso   1.00
C622   C     0.33335   0.24598   0.74999   0.00000  Uiso   1.00
C623   C     0.51969   0.20830   0.53999   0.00000  Uiso   1.00
C624   C     0.47029   0.16669   0.95075   0.00000  Uiso   1.00
C625   C     0.56758   0.21678   0.51673   0.00000  Uiso   1.00
C626   C     0.42145   0.16148   0.97333   0.00000  Uiso   1.00
C627   C     0.62405   0.02127   0.75019   0.00000  Uiso   1.00
C628   C     0.37592   0.31205   0.74993   0.00000  Uiso   1.00
C629   C     0.62406   0.31204   0.75015   0.00000  Uiso   1.00
C630   C     0.37590   0.02129   0.74997   0.00000  Uiso   1.00
C631   C     0.33334   0.29059   0.75002   0.00000  Uiso   1.00
C632   C     0.66664   0.04274   0.75008   0.00000  Uiso   1.00
C633   C     0.51617   0.14223   0.77910   0.00000  Uiso   1.00
C634   C     0.48382   0.19113   0.72093   0.00000  Uiso   1.00
C635   C     0.46656   0.14226   0.77911   0.00000  Uiso   1.00
C636   C     0.53344   0.19109   0.72091   0.00000  Uiso   1.00
C637   C     0.63930   0.16747   0.83605   0.00000  Uiso   1.00
C638   C     0.36079   0.16667   0.66377   0.00000  Uiso   1.00
C639   C     0.62386   0.17486   0.88446   0.00000  Uiso   1.00
C640   C     0.37598   0.16725   0.61434   0.00000  Uiso   1.00
C641   C     0.63527   0.21061   0.94918   0.00000  Uiso   1.00
C642   C     0.35664   0.15845   0.54348   0.00000  Uiso   1.00
C643   C     0.65334   0.19748   0.90506   0.00000  Uiso   1.00
C644   C     0.34187   0.16058   0.59009   0.00000  Uiso   1.00
C645   C     0.57639   0.16450   0.90852   0.00000  Uiso   1.00
C646   C     0.42507   0.17380   0.59121   0.00000  Uiso   1.00
C647   C     0.55552   0.18132   0.95134   0.00000  Uiso   1.00
C648   C     0.43985   0.17607   0.54400   0.00000  Uiso   1.00
C649   C     0.58639   0.20287   0.97268   0.00000  Uiso   1.00
C650   C     0.40570   0.16538   0.52006   0.00000  Uiso   1.00
C651   C     0.50509   0.17709   0.97370   0.00000  Uiso   1.00
C652   C     0.48839   0.18645   0.51996   0.00000  Uiso   1.00
Cu653  Cu    0.38022   0.16667   0.75000   0.00000  Uiso   1.00
Cu654  Cu    0.61978   0.16666   0.75000   0.00000  Uiso   1.00
H655   H     0.63724   0.15527   0.60728   0.00000  Uiso   1.00
H656   H     0.35676   0.20586   0.88666   0.00000  Uiso   1.00
H657   H     0.59073   0.03728   0.75031   0.00000  Uiso   1.00
H658   H     0.40923   0.29605   0.74982   0.00000  Uiso   1.00
H659   H     0.59077   0.29603   0.75022   0.00000  Uiso   1.00
H660   H     0.40920   0.03730   0.74990   0.00000  Uiso   1.00
N661   N     0.45069   0.16668   0.74999   0.00000  Uiso   1.00
N662   N     0.54931   0.16666   0.75001   0.00000  Uiso   1.00
O663   O     0.37291   0.10655   0.75000   0.00000  Uiso   1.00
O664   O     0.62709   0.22678   0.75000   0.00000  Uiso   1.00
O665   O     0.62706   0.10654   0.75001   0.00000  Uiso   1.00
O666   O     0.37294   0.22679   0.74999   0.00000  Uiso   1.00
O667   O     0.35186   0.16668   0.81491   0.00000  Uiso   1.00
O668   O     0.64814   0.16666   0.68509   0.00000  Uiso   1.00
O669   O     0.60600   0.16667   0.81492   0.00000  Uiso   1.00
O670   O     0.39400   0.16667   0.68508   0.00000  Uiso   1.00
F671   F     0.59540   0.23847   0.53791   0.00000  Uiso   1.00
F672   F     0.39011   0.15123   0.94911   0.00000  Uiso   1.00
F673   F     0.45895   0.17372   0.61462   0.00000  Uiso   1.00
F674   F     0.55251   0.13582   0.89070   0.00000  Uiso   1.00
F675   F     0.66534   0.23212   0.96806   0.00000  Uiso   1.00
F676   F     0.65613   0.14904   0.52164   0.00000  Uiso   1.00
H677   H     0.50690   0.22166   0.57296   0.00000  Uiso   1.00
H678   H     0.47937   0.16493   0.91468   0.00000  Uiso   1.00
H679   H     0.52796   0.12259   0.80236   0.00000  Uiso   1.00
H680   H     0.47202   0.21081   0.69771   0.00000  Uiso   1.00
H681   H     0.44096   0.12268   0.80238   0.00000  Uiso   1.00
H682   H     0.55904   0.21067   0.69764   0.00000  Uiso   1.00
C683   C     0.99997   0.08735   0.75005   0.00000  Uiso   1.00
C684   C     0.66668   0.24598   0.74999   0.00000  Uiso   1.00
C685   C     0.85302   0.20830   0.53999   0.00000  Uiso   1.00
C686   C     0.80362   0.16669   0.95075   0.00000  Uiso   1.00
C687   C     0.90091   0.21678   0.51673   0.00000  Uiso   1.00
C688   C     0.75479   0.16148   0.97333   0.00000  Uiso   1.00
C689   C     0.95738   0.02127   0.75019   0.00000  Uiso   1.00
C690   C     0.70925   0.31205   0.74993   0.00000  Uiso   1.00
C691   C     0.95740   0.31204   0.75015   0.00000  Uiso   1.00
C692   C     0.70924   0.02129   0.74997   0.00000  Uiso   1.00
C693   C     0.66667   0.29059   0.75002   0.00000  Uiso   1.00
C694   C     0.99997   0.04274   0.75008   0.00000  Uiso   1.00
C695   C     0.84951   0.14223   0.77910   0.00000  Uiso   1.00
C696   C     0.81715   0.19113   0.72093   0.00000  Uiso   1.00
C697   C     0.79990   0.14226   0.77911   0.00000  Uiso   1.00
C698   C     0.86677   0.19109   0.72091   0.00000  Uiso   1.00
C699   C     0.97263   0.16747   0.83605   0.00000  Uiso   1.00
C700   C     0.69413   0.16667   0.66377   0.00000  Uiso   1.00
C701   C     0.95719   0.17486   0.88446   0.00000  Uiso   1.00
C702   C     0.70931   0.16725   0.61434   0.00000  Uiso   1.00
C703   C     0.96861   0.21061   0.94918   0.00000  Uiso   1.00
C704   C     0.68997   0.15845   0.54348   0.00000  Uiso   1.00
C705   C     0.98667   0.19748   0.90506   0.00000  Uiso   1.00
C706   C     0.67521   0.16058   0.59009   0.00000  Uiso   1.00
C707   C     0.90973   0.16450   0.90852   0.00000  Uiso   1.00
C708   C     0.75840   0.17380   0.59121   0.00000  Uiso   1.00
C709   C     0.88885   0.18132   0.95134   0.00000  Uiso   1.00
C710   C     0.77318   0.17607   0.54400   0.00000  Uiso   1.00
C711   C     0.91972   0.20287   0.97268   0.00000  Uiso   1.00
C712   C     0.73903   0.16538   0.52006   0.00000  Uiso   1.00
C713   C     0.83842   0.17709   0.97370   0.00000  Uiso   1.00
C714   C     0.82173   0.18645   0.51996   0.00000  Uiso   1.00
Cu715  Cu    0.71355   0.16667   0.75000   0.00000  Uiso   1.00
Cu716  Cu    0.95311   0.16666   0.75000   0.00000  Uiso   1.00
H717   H     0.97058   0.15527   0.60728   0.00000  Uiso   1.00
H718   H     0.69009   0.20586   0.88666   0.00000  Uiso   1.00
H719   H     0.92407   0.03728   0.75031   0.00000  Uiso   1.00
H720   H     0.74257   0.29605   0.74982   0.00000  Uiso   1.00
H721   H     0.92410   0.29603   0.75022   0.00000  Uiso   1.00
H722   H     0.74253   0.03730   0.74990   0.00000  Uiso   1.00
N723   N     0.78403   0.16668   0.74999   0.00000  Uiso   1.00
N724   N     0.88264   0.16666   0.75001   0.00000  Uiso   1.00
O725   O     0.70625   0.10655   0.75000   0.00000  Uiso   1.00
O726   O     0.96042   0.22678   0.75000   0.00000  Uiso   1.00
O727   O     0.96039   0.10654   0.75001   0.00000  Uiso   1.00
O728   O     0.70628   0.22679   0.74999   0.00000  Uiso   1.00
O729   O     0.68519   0.16668   0.81491   0.00000  Uiso   1.00
O730   O     0.98148   0.16666   0.68509   0.00000  Uiso   1.00
O731   O     0.93933   0.16667   0.81492   0.00000  Uiso   1.00
O732   O     0.72733   0.16667   0.68508   0.00000  Uiso   1.00
F733   F     0.92874   0.23847   0.53791   0.00000  Uiso   1.00
F734   F     0.72345   0.15123   0.94911   0.00000  Uiso   1.00
F735   F     0.79229   0.17372   0.61462   0.00000  Uiso   1.00
F736   F     0.88584   0.13582   0.89070   0.00000  Uiso   1.00
F737   F     0.99868   0.23212   0.96806   0.00000  Uiso   1.00
F738   F     0.98947   0.14904   0.52164   0.00000  Uiso   1.00
H739   H     0.84023   0.22166   0.57296   0.00000  Uiso   1.00
H740   H     0.81270   0.16493   0.91468   0.00000  Uiso   1.00
H741   H     0.86129   0.12259   0.80236   0.00000  Uiso   1.00
H742   H     0.80535   0.21081   0.69771   0.00000  Uiso   1.00
H743   H     0.77429   0.12268   0.80238   0.00000  Uiso   1.00
H744   H     0.89238   0.21067   0.69764   0.00000  Uiso   1.00
C745   C     0.33331   0.42069   0.75005   0.00000  Uiso   1.00
C746   C     0.00002   0.57931   0.74999   0.00000  Uiso   1.00
C747   C     0.18635   0.54164   0.53999   0.00000  Uiso   1.00
C748   C     0.13695   0.50002   0.95075   0.00000  Uiso   1.00
C749   C     0.23424   0.55011   0.51673   0.00000  Uiso   1.00
C750   C     0.08812   0.49481   0.97333   0.00000  Uiso   1.00
C751   C     0.29071   0.35461   0.75019   0.00000  Uiso   1.00
C752   C     0.04259   0.64539   0.74993   0.00000  Uiso   1.00
C753   C     0.29073   0.64537   0.75015   0.00000  Uiso   1.00
C754   C     0.04257   0.35462   0.74997   0.00000  Uiso   1.00
C755   C     0.00000   0.62393   0.75002   0.00000  Uiso   1.00
C756   C     0.33330   0.37607   0.75008   0.00000  Uiso   1.00
C757   C     0.18284   0.47557   0.77910   0.00000  Uiso   1.00
C758   C     0.15048   0.52447   0.72093   0.00000  Uiso   1.00
C759   C     0.13323   0.47560   0.77911   0.00000  Uiso   1.00
C760   C     0.20010   0.52442   0.72091   0.00000  Uiso   1.00
C761   C     0.30597   0.50080   0.83605   0.00000  Uiso   1.00
C762   C     0.02746   0.50000   0.66377   0.00000  Uiso   1.00
C763   C     0.29053   0.50819   0.88446   0.00000  Uiso   1.00
C764   C     0.04265   0.50058   0.61434   0.00000  Uiso   1.00
C765   C     0.30194   0.54394   0.94918   0.00000  Uiso   1.00
C766   C     0.02331   0.49178   0.54348   0.00000  Uiso   1.00
C767   C     0.32001   0.53081   0.90506   0.00000  Uiso   1.00
C768   C     0.00854   0.49391   0.59009   0.00000  Uiso   1.00
C769   C     0.24306   0.49784   0.90852   0.00000  Uiso   1.00
C770   C     0.09173   0.50714   0.59121   0.00000  Uiso   1.00
C771   C     0.22218   0.51466   0.95134   0.00000  Uiso   1.00
C772   C     0.10652   0.50940   0.54400   0.00000  Uiso   1.00
C773   C     0.25305   0.53621   0.97268   0.00000  Uiso   1.00
C774   C     0.07237   0.49871   0.52006   0.00000  Uiso   1.00
C775   C     0.17176   0.51043   0.97370   0.00000  Uiso   1.00
C776   C     0.15506   0.51978   0.51996   0.00000  Uiso   1.00
Cu777  Cu    0.04689   0.50001   0.75000   0.00000  Uiso   1.00
Cu778  Cu    0.28645   0.49999   0.75000   0.00000  Uiso   1.00
H779   H     0.30391   0.48860   0.60728   0.00000  Uiso   1.00
H780   H     0.02343   0.53919   0.88666   0.00000  Uiso   1.00
H781   H     0.25740   0.37061   0.75031   0.00000  Uiso   1.00
H782   H     0.07590   0.62938   0.74982   0.00000  Uiso   1.00
H783   H     0.25744   0.62936   0.75022   0.00000  Uiso   1.00
H784   H     0.07587   0.37063   0.74990   0.00000  Uiso   1.00
N785   N     0.11736   0.50001   0.74999   0.00000  Uiso   1.00
N786   N     0.21597   0.49999   0.75001   0.00000  Uiso   1.00
O787   O     0.03958   0.43989   0.75000   0.00000  Uiso   1.00
O788   O     0.29375   0.56011   0.75000   0.00000  Uiso   1.00
O789   O     0.29372   0.43988   0.75001   0.00000  Uiso   1.00
O790   O     0.03961   0.56012   0.74999   0.00000  Uiso   1.00
O791   O     0.01852   0.50001   0.81491   0.00000  Uiso   1.00
O792   O     0.31481   0.49999   0.68509   0.00000  Uiso   1.00
O793   O     0.27267   0.50000   0.81492   0.00000  Uiso   1.00
O794   O     0.06067   0.50000   0.68508   0.00000  Uiso   1.00
F795   F     0.26207   0.57180   0.53791   0.00000  Uiso   1.00
F796   F     0.05678   0.48457   0.94911   0.00000  Uiso   1.00
F797   F     0.12562   0.50705   0.61462   0.00000  Uiso   1.00
F798   F     0.21917   0.46915   0.89070   0.00000  Uiso   1.00
F799   F     0.33201   0.56546   0.96806   0.00000  Uiso   1.00
F800   F     0.32280   0.48237   0.52164   0.00000  Uiso   1.00
H801   H     0.17357   0.55499   0.57296   0.00000  Uiso   1.00
H802   H     0.14603   0.49826   0.91468   0.00000  Uiso   1.00
H803   H     0.19463   0.45592   0.80236   0.00000  Uiso   1.00
H804   H     0.13869   0.54415   0.69771   0.00000  Uiso   1.00
H805   H     0.10762   0.45602   0.80238   0.00000  Uiso   1.00
H806   H     0.22571   0.54400   0.69764   0.00000  Uiso   1.00
C807   C     0.66664   0.42069   0.75005   0.00000  Uiso   1.00
C808   C     0.33335   0.57931   0.74999   0.00000  Uiso   1.00
C809   C     0.51969   0.54164   0.53999   0.00000  Uiso   1.00
C810   C     0.47029   0.50002   0.95075   0.00000  Uiso   1.00
C811   C     0.56758   0.55011   0.51673   0.00000  Uiso   1.00
C812   C     0.42145   0.49481   0.97333   0.00000  Uiso   1.00
C813   C     0.62405   0.35461   0.75019   0.00000  Uiso   1.00
C814   C     0.37592   0.64539   0.74993   0.00000  Uiso   1.00
C815   C     0.62406   0.64537   0.75015   0.00000  Uiso   1.00
C816   C     0.37590   0.35462   0.74997   0.00000  Uiso   1.00
C817   C     0.33334   0.62393   0.75002   0.00000  Uiso   1.00
C818   C     0.66664   0.37607   0.75008   0.00000  Uiso   1.00
C819   C     0.51617   0.47557   0.77910   0.00000  Uiso   1.00
C820   C     0.48382   0.52447   0.72093   0.00000  Uiso   1.00
C821   C     0.46656   0.47560   0.77911   0.00000  Uiso   1.00
C822   C     0.53344   0.52442   0.72091   0.00000  Uiso   1.00
C823   C     0.63930   0.50080   0.83605   0.00000  Uiso   1.00
C824   C     0.36079   0.50000   0.66377   0.00000  Uiso   1.00
C825   C     0.62386   0.50819   0.88446   0.00000  Uiso   1.00
C826   C     0.37598   0.50058   0.61434   0.00000  Uiso   1.00
C827   C     0.63527   0.54394   0.94918   0.00000  Uiso   1.00
C828   C     0.35664   0.49178   0.54348   0.00000  Uiso   1.00
C829   C     0.65334   0.53081   0.90506   0.00000  Uiso   1.00
C830   C     0.34187   0.49391   0.59009   0.00000  Uiso   1.00
C831   C     0.57639   0.49784   0.90852   0.00000  Uiso   1.00
C832   C     0.42507   0.50714   0.59121   0.00000  Uiso   1.00
C833   C     0.55552   0.51466   0.95134   0.00000  Uiso   1.00
C834   C     0.43985   0.50940   0.54400   0.00000  Uiso   1.00
C835   C     0.58639   0.53621   0.97268   0.00000  Uiso   1.00
C836   C     0.40570   0.49871   0.52006   0.00000  Uiso   1.00
C837   C     0.50509   0.51043   0.97370   0.00000  Uiso   1.00
C838   C     0.48839   0.51978   0.51996   0.00000  Uiso   1.00
Cu839  Cu    0.38022   0.50001   0.75000   0.00000  Uiso   1.00
Cu840  Cu    0.61978   0.49999   0.75000   0.00000  Uiso   1.00
H841   H     0.63724   0.48860   0.60728   0.00000  Uiso   1.00
H842   H     0.35676   0.53919   0.88666   0.00000  Uiso   1.00
H843   H     0.59073   0.37061   0.75031   0.00000  Uiso   1.00
H844   H     0.40923   0.62938   0.74982   0.00000  Uiso   1.00
H845   H     0.59077   0.62936   0.75022   0.00000  Uiso   1.00
H846   H     0.40920   0.37063   0.74990   0.00000  Uiso   1.00
N847   N     0.45069   0.50001   0.74999   0.00000  Uiso   1.00
N848   N     0.54931   0.49999   0.75001   0.00000  Uiso   1.00
O849   O     0.37291   0.43989   0.75000   0.00000  Uiso   1.00
O850   O     0.62709   0.56011   0.75000   0.00000  Uiso   1.00
O851   O     0.62706   0.43988   0.75001   0.00000  Uiso   1.00
O852   O     0.37294   0.56012   0.74999   0.00000  Uiso   1.00
O853   O     0.35186   0.50001   0.81491   0.00000  Uiso   1.00
O854   O     0.64814   0.49999   0.68509   0.00000  Uiso   1.00
O855   O     0.60600   0.50000   0.81492   0.00000  Uiso   1.00
O856   O     0.39400   0.50000   0.68508   0.00000  Uiso   1.00
F857   F     0.59540   0.57180   0.53791   0.00000  Uiso   1.00
F858   F     0.39011   0.48457   0.94911   0.00000  Uiso   1.00
F859   F     0.45895   0.50705   0.61462   0.00000  Uiso   1.00
F860   F     0.55251   0.46915   0.89070   0.00000  Uiso   1.00
F861   F     0.66534   0.56546   0.96806   0.00000  Uiso   1.00
F862   F     0.65613   0.48237   0.52164   0.00000  Uiso   1.00
H863   H     0.50690   0.55499   0.57296   0.00000  Uiso   1.00
H864   H     0.47937   0.49826   0.91468   0.00000  Uiso   1.00
H865   H     0.52796   0.45592   0.80236   0.00000  Uiso   1.00
H866   H     0.47202   0.54415   0.69771   0.00000  Uiso   1.00
H867   H     0.44096   0.45602   0.80238   0.00000  Uiso   1.00
H868   H     0.55904   0.54400   0.69764   0.00000  Uiso   1.00
C869   C     0.99997   0.42069   0.75005   0.00000  Uiso   1.00
C870   C     0.66668   0.57931   0.74999   0.00000  Uiso   1.00
C871   C     0.85302   0.54164   0.53999   0.00000  Uiso   1.00
C872   C     0.80362   0.50002   0.95075   0.00000  Uiso   1.00
C873   C     0.90091   0.55011   0.51673   0.00000  Uiso   1.00
C874   C     0.75479   0.49481   0.97333   0.00000  Uiso   1.00
C875   C     0.95738   0.35461   0.75019   0.00000  Uiso   1.00
C876   C     0.70925   0.64539   0.74993   0.00000  Uiso   1.00
C877   C     0.95740   0.64537   0.75015   0.00000  Uiso   1.00
C878   C     0.70924   0.35462   0.74997   0.00000  Uiso   1.00
C879   C     0.66667   0.62393   0.75002   0.00000  Uiso   1.00
C880   C     0.99997   0.37607   0.75008   0.00000  Uiso   1.00
C881   C     0.84951   0.47557   0.77910   0.00000  Uiso   1.00
C882   C     0.81715   0.52447   0.72093   0.00000  Uiso   1.00
C883   C     0.79990   0.47560   0.77911   0.00000  Uiso   1.00
C884   C     0.86677   0.52442   0.72091   0.00000  Uiso   1.00
C885   C     0.97263   0.50080   0.83605   0.00000  Uiso   1.00
C886   C     0.69413   0.50000   0.66377   0.00000  Uiso   1.00
C887   C     0.95719   0.50819   0.88446   0.00000  Uiso   1.00
C888   C     0.70931   0.50058   0.61434   0.00000  Uiso   1.00
C889   C     0.96861   0.54394   0.94918   0.00000  Uiso   1.00
C890   C     0.68997   0.49178   0.54348   0.00000  Uiso   1.00
C891   C     0.98667   0.53081   0.90506   0.00000  Uiso   1.00
C892   C     0.67521   0.49391   0.59009   0.00000  Uiso   1.00
C893   C     0.90973   0.49784   0.90852   0.00000  Uiso   1.00
C894   C     0.75840   0.50714   0.59121   0.00000  Uiso   1.00
C895   C     0.88885   0.51466   0.95134   0.00000  Uiso   1.00
C896   C     0.77318   0.50940   0.54400   0.00000  Uiso   1.00
C897   C     0.91972   0.53621   0.97268   0.00000  Uiso   1.00
C898   C     0.73903   0.49871   0.52006   0.00000  Uiso   1.00
C899   C     0.83842   0.51043   0.97370   0.00000  Uiso   1.00
C900   C     0.82173   0.51978   0.51996   0.00000  Uiso   1.00
Cu901  Cu    0.71355   0.50001   0.75000   0.00000  Uiso   1.00
Cu902  Cu    0.95311   0.49999   0.75000   0.00000  Uiso   1.00
H903   H     0.97058   0.48860   0.60728   0.00000  Uiso   1.00
H904   H     0.69009   0.53919   0.88666   0.00000  Uiso   1.00
H905   H     0.92407   0.37061   0.75031   0.00000  Uiso   1.00
H906   H     0.74257   0.62938   0.74982   0.00000  Uiso   1.00
H907   H     0.92410   0.62936   0.75022   0.00000  Uiso   1.00
H908   H     0.74253   0.37063   0.74990   0.00000  Uiso   1.00
N909   N     0.78403   0.50001   0.74999   0.00000  Uiso   1.00
N910   N     0.88264   0.49999   0.75001   0.00000  Uiso   1.00
O911   O     0.70625   0.43989   0.75000   0.00000  Uiso   1.00
O912   O     0.96042   0.56011   0.75000   0.00000  Uiso   1.00
O913   O     0.96039   0.43988   0.75001   0.00000  Uiso   1.00
O914   O     0.70628   0.56012   0.74999   0.00000  Uiso   1.00
O915   O     0.68519   0.50001   0.81491   0.00000  Uiso   1.00
O916   O     0.98148   0.49999   0.68509   0.00000  Uiso   1.00
O917   O     0.93933   0.50000   0.81492   0.00000  Uiso   1.00
O918   O     0.72733   0.50000   0.68508   0.00000  Uiso   1.00
F919   F     0.92874   0.57180   0.53791   0.00000  Uiso   1.00
F920   F     0.72345   0.48457   0.94911   0.00000  Uiso   1.00
F921   F     0.79229   0.50705   0.61462   0.00000  Uiso   1.00
F922   F     0.88584   0.46915   0.89070   0.00000  Uiso   1.00
F923   F     0.99868   0.56546   0.96806   0.00000  Uiso   1.00
F924   F     0.98947   0.48237   0.52164   0.00000  Uiso   1.00
H925   H     0.84023   0.55499   0.57296   0.00000  Uiso   1.00
H926   H     0.81270   0.49826   0.91468   0.00000  Uiso   1.00
H927   H     0.86129   0.45592   0.80236   0.00000  Uiso   1.00
H928   H     0.80535   0.54415   0.69771   0.00000  Uiso   1.00
H929   H     0.77429   0.45602   0.80238   0.00000  Uiso   1.00
H930   H     0.89238   0.54400   0.69764   0.00000  Uiso   1.00
C931   C     0.33331   0.75402   0.75005   0.00000  Uiso   1.00
C932   C     0.00002   0.91264   0.74999   0.00000  Uiso   1.00
C933   C     0.18635   0.87497   0.53999   0.00000  Uiso   1.00
C934   C     0.13695   0.83335   0.95075   0.00000  Uiso   1.00
C935   C     0.23424   0.88345   0.51673   0.00000  Uiso   1.00
C936   C     0.08812   0.82814   0.97333   0.00000  Uiso   1.00
C937   C     0.29071   0.68794   0.75019   0.00000  Uiso   1.00
C938   C     0.04259   0.97872   0.74993   0.00000  Uiso   1.00
C939   C     0.29073   0.97871   0.75015   0.00000  Uiso   1.00
C940   C     0.04257   0.68795   0.74997   0.00000  Uiso   1.00
C941   C     0.00000   0.95726   0.75002   0.00000  Uiso   1.00
C942   C     0.33330   0.70940   0.75008   0.00000  Uiso   1.00
C943   C     0.18284   0.80890   0.77910   0.00000  Uiso   1.00
C944   C     0.15048   0.85780   0.72093   0.00000  Uiso   1.00
C945   C     0.13323   0.80893   0.77911   0.00000  Uiso   1.00
C946   C     0.20010   0.85775   0.72091   0.00000  Uiso   1.00
C947   C     0.30597   0.83414   0.83605   0.00000  Uiso   1.00
C948   C     0.02746   0.83333   0.66377   0.00000  Uiso   1.00
C949   C     0.29053   0.84152   0.88446   0.00000  Uiso   1.00
C950   C     0.04265   0.83391   0.61434   0.00000  Uiso   1.00
C951   C     0.30194   0.87727   0.94918   0.00000  Uiso   1.00
C952   C     0.02331   0.82511   0.54348   0.00000  Uiso   1.00
C953   C     0.32001   0.86415   0.90506   0.00000  Uiso   1.00
C954   C     0.00854   0.82724   0.59009   0.00000  Uiso   1.00
C955   C     0.24306   0.83117   0.90852   0.00000  Uiso   1.00
C956   C     0.09173   0.84047   0.59121   0.00000  Uiso   1.00
C957   C     0.22218   0.84799   0.95134   0.00000  Uiso   1.00
C958   C     0.10652   0.84274   0.54400   0.00000  Uiso   1.00
C959   C     0.25305   0.86954   0.97268   0.00000  Uiso   1.00
C960   C     0.07237   0.83204   0.52006   0.00000  Uiso   1.00
C961   C     0.17176   0.84376   0.97370   0.00000  Uiso   1.00
C962   C     0.15506   0.85312   0.51996   0.00000  Uiso   1.00
Cu963  Cu    0.04689   0.83334   0.75000   0.00000  Uiso   1.00
Cu964  Cu    0.28645   0.83333   0.75000   0.00000  Uiso   1.00
H965   H     0.30391   0.82194   0.60728   0.00000  Uiso   1.00
H966   H     0.02343   0.87253   0.88666   0.00000  Uiso   1.00
H967   H     0.25740   0.70394   0.75031   0.00000  Uiso   1.00
H968   H     0.07590   0.96272   0.74982   0.00000  Uiso   1.00
H969   H     0.25744   0.96269   0.75022   0.00000  Uiso   1.00
H970   H     0.07587   0.70397   0.74990   0.00000  Uiso   1.00
N971   N     0.11736   0.83334   0.74999   0.00000  Uiso   1.00
N972   N     0.21597   0.83332   0.75001   0.00000  Uiso   1.00
O973   O     0.03958   0.77322   0.75000   0.00000  Uiso   1.00
O974   O     0.29375   0.89345   0.75000   0.00000  Uiso   1.00
O975   O     0.29372   0.77321   0.75001   0.00000  Uiso   1.00
O976   O     0.03961   0.89346   0.74999   0.00000  Uiso   1.00
O977   O     0.01852   0.83334   0.81491   0.00000  Uiso   1.00
O978   O     0.31481   0.83332   0.68509   0.00000  Uiso   1.00
O979   O     0.27267   0.83333   0.81492   0.00000  Uiso   1.00
O980   O     0.06067   0.83333   0.68508   0.00000  Uiso   1.00
F981   F     0.26207   0.90514   0.53791   0.00000  Uiso   1.00
F982   F     0.05678   0.81790   0.94911   0.00000  Uiso   1.00
F983   F     0.12562   0.84039   0.61462   0.00000  Uiso   1.00
F984   F     0.21917   0.80249   0.89070   0.00000  Uiso   1.00
F985   F     0.33201   0.89879   0.96806   0.00000  Uiso   1.00
F986   F     0.32280   0.81571   0.52164   0.00000  Uiso   1.00
H987   H     0.17357   0.88833   0.57296   0.00000  Uiso   1.00
H988   H     0.14603   0.83159   0.91468   0.00000  Uiso   1.00
H989   H     0.19463   0.78925   0.80236   0.00000  Uiso   1.00
H990   H     0.13869   0.87748   0.69771   0.00000  Uiso   1.00
H991   H     0.10762   0.78935   0.80238   0.00000  Uiso   1.00
H992   H     0.22571   0.87734   0.69764   0.00000  Uiso   1.00
C993   C     0.66664   0.75402   0.75005   0.00000  Uiso   1.00
C994   C     0.33335   0.91264   0.74999   0.00000  Uiso   1.00
C995   C     0.51969   0.87497   0.53999   0.00000  Uiso   1.00
C996   C     0.47029   0.83335   0.95075   0.00000  Uiso   1.00
C997   C     0.56758   0.88345   0.51673   0.00000  Uiso   1.00
C998   C     0.42145   0.82814   0.97333   0.00000  Uiso   1.00
C999   C     0.62405   0.68794   0.75019   0.00000  Uiso   1.00
C1000  C     0.37592   0.97872   0.74993   0.00000  Uiso   1.00
C1001  C     0.62406   0.97871   0.75015   0.00000  Uiso   1.00
C1002  C     0.37590   0.68795   0.74997   0.00000  Uiso   1.00
C1003  C     0.33334   0.95726   0.75002   0.00000  Uiso   1.00
C1004  C     0.66664   0.70940   0.75008   0.00000  Uiso   1.00
C1005  C     0.51617   0.80890   0.77910   0.00000  Uiso   1.00
C1006  C     0.48382   0.85780   0.72093   0.00000  Uiso   1.00
C1007  C     0.46656   0.80893   0.77911   0.00000  Uiso   1.00
C1008  C     0.53344   0.85775   0.72091   0.00000  Uiso   1.00
C1009  C     0.63930   0.83414   0.83605   0.00000  Uiso   1.00
C1010  C     0.36079   0.83333   0.66377   0.00000  Uiso   1.00
C1011  C     0.62386   0.84152   0.88446   0.00000  Uiso   1.00
C1012  C     0.37598   0.83391   0.61434   0.00000  Uiso   1.00
C1013  C     0.63527   0.87727   0.94918   0.00000  Uiso   1.00
C1014  C     0.35664   0.82511   0.54348   0.00000  Uiso   1.00
C1015  C     0.65334   0.86415   0.90506   0.00000  Uiso   1.00
C1016  C     0.34187   0.82724   0.59009   0.00000  Uiso   1.00
C1017  C     0.57639   0.83117   0.90852   0.00000  Uiso   1.00
C1018  C     0.42507   0.84047   0.59121   0.00000  Uiso   1.00
C1019  C     0.55552   0.84799   0.95134   0.00000  Uiso   1.00
C1020  C     0.43985   0.84274   0.54400   0.00000  Uiso   1.00
C1021  C     0.58639   0.86954   0.97268   0.00000  Uiso   1.00
C1022  C     0.40570   0.83204   0.52006   0.00000  Uiso   1.00
C1023  C     0.50509   0.84376   0.97370   0.00000  Uiso   1.00
C1024  C     0.48839   0.85312   0.51996   0.00000  Uiso   1.00
Cu1025 Cu    0.38022   0.83334   0.75000   0.00000  Uiso   1.00
Cu1026 Cu    0.61978   0.83333   0.75000   0.00000  Uiso   1.00
H1027  H     0.63724   0.82194   0.60728   0.00000  Uiso   1.00
H1028  H     0.35676   0.87253   0.88666   0.00000  Uiso   1.00
H1029  H     0.59073   0.70394   0.75031   0.00000  Uiso   1.00
H1030  H     0.40923   0.96272   0.74982   0.00000  Uiso   1.00
H1031  H     0.59077   0.96269   0.75022   0.00000  Uiso   1.00
H1032  H     0.40920   0.70397   0.74990   0.00000  Uiso   1.00
N1033  N     0.45069   0.83334   0.74999   0.00000  Uiso   1.00
N1034  N     0.54931   0.83332   0.75001   0.00000  Uiso   1.00
O1035  O     0.37291   0.77322   0.75000   0.00000  Uiso   1.00
O1036  O     0.62709   0.89345   0.75000   0.00000  Uiso   1.00
O1037  O     0.62706   0.77321   0.75001   0.00000  Uiso   1.00
O1038  O     0.37294   0.89346   0.74999   0.00000  Uiso   1.00
O1039  O     0.35186   0.83334   0.81491   0.00000  Uiso   1.00
O1040  O     0.64814   0.83332   0.68509   0.00000  Uiso   1.00
O1041  O     0.60600   0.83333   0.81492   0.00000  Uiso   1.00
O1042  O     0.39400   0.83333   0.68508   0.00000  Uiso   1.00
F1043  F     0.59540   0.90514   0.53791   0.00000  Uiso   1.00
F1044  F     0.39011   0.81790   0.94911   0.00000  Uiso   1.00
F1045  F     0.45895   0.84039   0.61462   0.00000  Uiso   1.00
F1046  F     0.55251   0.80249   0.89070   0.00000  Uiso   1.00
F1047  F     0.66534   0.89879   0.96806   0.00000  Uiso   1.00
F1048  F     0.65613   0.81571   0.52164   0.00000  Uiso   1.00
H1049  H     0.50690   0.88833   0.57296   0.00000  Uiso   1.00
H1050  H     0.47937   0.83159   0.91468   0.00000  Uiso   1.00
H1051  H     0.52796   0.78925   0.80236   0.00000  Uiso   1.00
H1052  H     0.47202   0.87748   0.69771   0.00000  Uiso   1.00
H1053  H     0.44096   0.78935   0.80238   0.00000  Uiso   1.00
H1054  H     0.55904   0.87734   0.69764   0.00000  Uiso   1.00
C1055  C     0.99997   0.75402   0.75005   0.00000  Uiso   1.00
C1056  C     0.66668   0.91264   0.74999   0.00000  Uiso   1.00
C1057  C     0.85302   0.87497   0.53999   0.00000  Uiso   1.00
C1058  C     0.80362   0.83335   0.95075   0.00000  Uiso   1.00
C1059  C     0.90091   0.88345   0.51673   0.00000  Uiso   1.00
C1060  C     0.75479   0.82814   0.97333   0.00000  Uiso   1.00
C1061  C     0.95738   0.68794   0.75019   0.00000  Uiso   1.00
C1062  C     0.70925   0.97872   0.74993   0.00000  Uiso   1.00
C1063  C     0.95740   0.97871   0.75015   0.00000  Uiso   1.00
C1064  C     0.70924   0.68795   0.74997   0.00000  Uiso   1.00
C1065  C     0.66667   0.95726   0.75002   0.00000  Uiso   1.00
C1066  C     0.99997   0.70940   0.75008   0.00000  Uiso   1.00
C1067  C     0.84951   0.80890   0.77910   0.00000  Uiso   1.00
C1068  C     0.81715   0.85780   0.72093   0.00000  Uiso   1.00
C1069  C     0.79990   0.80893   0.77911   0.00000  Uiso   1.00
C1070  C     0.86677   0.85775   0.72091   0.00000  Uiso   1.00
C1071  C     0.97263   0.83414   0.83605   0.00000  Uiso   1.00
C1072  C     0.69413   0.83333   0.66377   0.00000  Uiso   1.00
C1073  C     0.95719   0.84152   0.88446   0.00000  Uiso   1.00
C1074  C     0.70931   0.83391   0.61434   0.00000  Uiso   1.00
C1075  C     0.96861   0.87727   0.94918   0.00000  Uiso   1.00
C1076  C     0.68997   0.82511   0.54348   0.00000  Uiso   1.00
C1077  C     0.98667   0.86415   0.90506   0.00000  Uiso   1.00
C1078  C     0.67521   0.82724   0.59009   0.00000  Uiso   1.00
C1079  C     0.90973   0.83117   0.90852   0.00000  Uiso   1.00
C1080  C     0.75840   0.84047   0.59121   0.00000  Uiso   1.00
C1081  C     0.88885   0.84799   0.95134   0.00000  Uiso   1.00
C1082  C     0.77318   0.84274   0.54400   0.00000  Uiso   1.00
C1083  C     0.91972   0.86954   0.97268   0.00000  Uiso   1.00
C1084  C     0.73903   0.83204   0.52006   0.00000  Uiso   1.00
C1085  C     0.83842   0.84376   0.97370   0.00000  Uiso   1.00
C1086  C     0.82173   0.85312   0.51996   0.00000  Uiso   1.00
Cu1087 Cu    0.71355   0.83334   0.75000   0.00000  Uiso   1.00
Cu1088 Cu    0.95311   0.83333   0.75000   0.00000  Uiso   1.00
H1089  H     0.97058   0.82194   0.60728   0.00000  Uiso   1.00
H1090  H     0.69009   0.87253   0.88666   0.00000  Uiso   1.00
H1091  H     0.92407   0.70394   0.75031   0.00000  Uiso   1.00
H1092  H     0.74257   0.96272   0.74982   0.00000  Uiso   1.00
H1093  H     0.92410   0.96269   0.75022   0.00000  Uiso   1.00
H1094  H     0.74253   0.70397   0.74990   0.00000  Uiso   1.00
N1095  N     0.78403   0.83334   0.74999   0.00000  Uiso   1.00
N1096  N     0.88264   0.83332   0.75001   0.00000  Uiso   1.00
O1097  O     0.70625   0.77322   0.75000   0.00000  Uiso   1.00
O1098  O     0.96042   0.89345   0.75000   0.00000  Uiso   1.00
O1099  O     0.96039   0.77321   0.75001   0.00000  Uiso   1.00
O1100  O     0.70628   0.89346   0.74999   0.00000  Uiso   1.00
O1101  O     0.68519   0.83334   0.81491   0.00000  Uiso   1.00
O1102  O     0.98148   0.83332   0.68509   0.00000  Uiso   1.00
O1103  O     0.93933   0.83333   0.81492   0.00000  Uiso   1.00
O1104  O     0.72733   0.83333   0.68508   0.00000  Uiso   1.00
F1105  F     0.92874   0.90514   0.53791   0.00000  Uiso   1.00
F1106  F     0.72345   0.81790   0.94911   0.00000  Uiso   1.00
F1107  F     0.79229   0.84039   0.61462   0.00000  Uiso   1.00
F1108  F     0.88584   0.80249   0.89070   0.00000  Uiso   1.00
F1109  F     0.99868   0.89879   0.96806   0.00000  Uiso   1.00
F1110  F     0.98947   0.81571   0.52164   0.00000  Uiso   1.00
H1111  H     0.84023   0.88833   0.57296   0.00000  Uiso   1.00
H1112  H     0.81270   0.83159   0.91468   0.00000  Uiso   1.00
H1113  H     0.86129   0.78925   0.80236   0.00000  Uiso   1.00
H1114  H     0.80535   0.87748   0.69771   0.00000  Uiso   1.00
H1115  H     0.77429   0.78935   0.80238   0.00000  Uiso   1.00
H1116  H     0.89238   0.87734   0.69764   0.00000  Uiso   1.00
loop_
_geom_bond_atom_site_label_1
_geom_bond_atom_site_label_2
_geom_bond_distance
_geom_bond_site_symmetry_2
_ccdc_geom_bond_type
C1     O45     1.291   .     A
C1     C12     1.450   .     S
C1     O105    1.291   .     S
C2     O46     1.291   .     A
C2     C11     1.450   .     S
C2     O168    1.291   1_455 S
C3     C5      1.388   .     A
C3     C32     1.412   .     A
C3     H57     1.079   .     S
C4     C31     1.412   .     A
C4     C6      1.389   .     A
C4     H58     1.078   .     S
C5     F51     1.358   .     S
C5     C587    1.400   1_554 S
C6     F52     1.357   .     S
C6     C588    1.401   .     S
C7     H37     1.083   .     S
C7     C12     1.401   .     A
C7     C381    1.384   1_545 S
C8     C11     1.401   .     A
C8     H38     1.083   .     S
C8     C196    1.384   .     S
C9     H39     1.083   .     S
C9     C193    1.384   .     S
C9     C73     1.401   .     S
C10    H40     1.083   .     S
C10    C380    1.384   1_545 S
C10    C136    1.401   1_455 S
C11    C133    1.401   1_455 S
C12    C72     1.401   .     S
C13    H59     1.082   .     S
C13    C15     1.416   .     A
C13    N42     1.367   .     A
C14    H60     1.082   .     S
C14    N41     1.367   .     A
C14    C16     1.416   .     A
C15    H61     1.082   .     S
C15    N41     1.367   .     A
C16    N42     1.367   .     A
C16    H62     1.082   .     S
C17    C19     1.465   .     S
C17    O49     1.293   .     A
C17    O109    1.296   .     S
C18    C20     1.474   .     S
C18    O50     1.295   .     A
C18    O172    1.299   1_455 S
C19    C23     1.397   .     A
C19    C25     1.398   .     A
C20    C26     1.406   .     A
C20    C24     1.400   .     A
C21    C23     1.392   .     A
C21    F55     1.358   .     S
C21    C29     1.410   .     A
C22    C24     1.392   .     A
C22    C30     1.409   .     A
C22    F180    1.357   1_455 S
C23    H98     1.083   .     S
C24    H159    1.083   1_455 S
C25    C27     1.410   .     A
C25    F54     1.359   .     S
C26    C28     1.410   .     A
C26    F53     1.358   .     S
C27    C29     1.423   .     A
C27    C31     1.424   .     A
C28    C30     1.420   .     A
C28    C32     1.423   .     A
C29    C563    1.400   .     S
C30    C564    1.401   1_554 S
C31    C590    1.416   .     S
C32    C589    1.416   1_554 S
Cu33   N41     2.012   .     S
Cu33   O46     1.965   .     S
Cu33   O47     1.953   .     S
Cu33   O50     1.942   .     S
Cu33   O43     1.965   .     S
Cu33   Cu158   2.677   1_455 S
Cu34   N42     2.012   .     S
Cu34   O44     1.965   .     S
Cu34   O45     1.965   .     S
Cu34   O48     1.953   .     S
Cu34   O49     1.942   .     S
Cu34   Cu95    2.677   .     S
H35    C86     1.083   .     S
H36    C147    1.083   1_455 S
O43    C125    1.291   1_455 S
O44    C64     1.291   .     S
O47    C141    1.296   1_455 S
O48    C80     1.299   .     S
F56    C84     1.357   .     S
C63    O107    1.291   .     A
C63    C74     1.450   .     S
C63    O167    1.291   .     S
C64    O108    1.291   .     A
C64    C73     1.450   .     S
C65    C67     1.388   .     A
C65    C94     1.412   .     A
C65    H119    1.079   .     S
C66    C93     1.412   .     A
C66    C68     1.389   .     A
C66    H120    1.078   .     S
C67    F113    1.358   .     S
C67    C649    1.400   1_554 S
C68    F114    1.357   .     S
C68    C650    1.401   .     S
C69    H99     1.083   .     S
C69    C74     1.401   .     A
C69    C443    1.384   1_545 S
C70    C73     1.401   .     A
C70    H100    1.083   .     S
C70    C258    1.384   .     S
C71    H101    1.083   .     S
C71    C255    1.384   .     S
C71    C135    1.401   .     S
C72    H102    1.083   .     S
C72    C442    1.384   1_545 S
C74    C134    1.401   .     S
C75    H121    1.082   .     S
C75    C77     1.416   .     A
C75    N104    1.367   .     A
C76    H122    1.082   .     S
C76    N103    1.367   .     A
C76    C78     1.416   .     A
C77    H123    1.082   .     S
C77    N103    1.367   .     A
C78    N104    1.367   .     A
C78    H124    1.082   .     S
C79    C81     1.465   .     S
C79    O111    1.293   .     A
C79    O171    1.296   .     S
C80    C82     1.474   .     S
C80    O112    1.295   .     A
C81    C85     1.397   .     A
C81    C87     1.398   .     A
C82    C88     1.406   .     A
C82    C86     1.400   .     A
C83    C85     1.392   .     A
C83    F117    1.358   .     S
C83    C91     1.410   .     A
C84    C86     1.392   .     A
C84    C92     1.409   .     A
C85    H160    1.083   .     S
C87    C89     1.410   .     A
C87    F116    1.359   .     S
C88    C90     1.410   .     A
C88    F115    1.358   .     S
C89    C91     1.423   .     A
C89    C93     1.424   .     A
C90    C92     1.420   .     A
C90    C94     1.423   .     A
C91    C625    1.400   .     S
C92    C626    1.401   1_554 S
C93    C652    1.416   .     S
C94    C651    1.416   1_554 S
Cu95   N103    2.012   .     S
Cu95   O108    1.965   .     S
Cu95   O109    1.953   .     S
Cu95   O112    1.942   .     S
Cu95   O105    1.965   .     S
Cu96   N104    2.012   .     S
Cu96   O106    1.965   .     S
Cu96   O107    1.965   .     S
Cu96   O110    1.953   .     S
Cu96   O111    1.942   .     S
Cu96   Cu157   2.677   .     S
H97    C148    1.083   .     S
O106   C126    1.291   .     S
O110   C142    1.299   .     S
F118   C146    1.357   .     S
C125   O169    1.291   .     A
C125   C136    1.450   .     S
C125   O43     1.291   1_655 S
C126   O170    1.291   .     A
C126   C135    1.450   .     S
C127   C129    1.388   .     A
C127   C156    1.412   .     A
C127   H181    1.079   .     S
C128   C155    1.412   .     A
C128   C130    1.389   .     A
C128   H182    1.078   .     S
C129   F175    1.358   .     S
C129   C711    1.400   1_554 S
C130   F176    1.357   .     S
C130   C712    1.401   .     S
C131   H161    1.083   .     S
C131   C136    1.401   .     A
C131   C505    1.384   1_545 S
C132   C135    1.401   .     A
C132   H162    1.083   .     S
C132   C320    1.384   .     S
C133   H163    1.083   .     S
C133   C317    1.384   .     S
C133   C11     1.401   1_655 S
C134   H164    1.083   .     S
C134   C504    1.384   1_545 S
C136   C10     1.401   1_655 S
C137   H183    1.082   .     S
C137   C139    1.416   .     A
C137   N166    1.367   .     A
C138   H184    1.082   .     S
C138   N165    1.367   .     A
C138   C140    1.416   .     A
C139   H185    1.082   .     S
C139   N165    1.367   .     A
C140   N166    1.367   .     A
C140   H186    1.082   .     S
C141   C143    1.465   .     S
C141   O173    1.293   .     A
C141   O47     1.296   1_655 S
C142   C144    1.474   .     S
C142   O174    1.295   .     A
C143   C147    1.397   .     A
C143   C149    1.398   .     A
C144   C150    1.406   .     A
C144   C148    1.400   .     A
C145   C147    1.392   .     A
C145   F179    1.358   .     S
C145   C153    1.410   .     A
C146   C148    1.392   .     A
C146   C154    1.409   .     A
C147   H36     1.083   1_655 S
C149   C151    1.410   .     A
C149   F178    1.359   .     S
C150   C152    1.410   .     A
C150   F177    1.358   .     S
C151   C153    1.423   .     A
C151   C155    1.424   .     A
C152   C154    1.420   .     A
C152   C156    1.423   .     A
C153   C687    1.400   .     S
C154   C688    1.401   1_554 S
C155   C714    1.416   .     S
C156   C713    1.416   1_554 S
Cu157  N165    2.012   .     S
Cu157  O170    1.965   .     S
Cu157  O171    1.953   .     S
Cu157  O174    1.942   .     S
Cu157  O167    1.965   .     S
Cu158  N166    2.012   .     S
Cu158  O168    1.965   .     S
Cu158  O169    1.965   .     S
Cu158  O172    1.953   .     S
Cu158  O173    1.942   .     S
Cu158  Cu33    2.677   1_655 S
H159   C24     1.083   1_655 S
O168   C2      1.291   1_655 S
O172   C18     1.299   1_655 S
F180   C22     1.357   1_655 S
C187   O231    1.291   .     A
C187   C198    1.450   .     S
C187   O291    1.291   .     S
C188   O232    1.291   .     A
C188   C197    1.450   .     S
C188   O354    1.291   1_455 S
C189   C191    1.388   .     A
C189   C218    1.412   .     A
C189   H243    1.079   .     S
C190   C217    1.412   .     A
C190   C192    1.389   .     A
C190   H244    1.078   .     S
C191   F237    1.358   .     S
C191   C773    1.400   1_554 S
C192   F238    1.357   .     S
C192   C774    1.401   .     S
C193   H223    1.083   .     S
C193   C198    1.401   .     A
C194   C197    1.401   .     A
C194   H224    1.083   .     S
C194   C382    1.384   .     S
C195   H225    1.083   .     S
C195   C379    1.384   .     S
C195   C259    1.401   .     S
C196   H226    1.083   .     S
C196   C322    1.401   1_455 S
C197   C319    1.401   1_455 S
C198   C258    1.401   .     S
C199   H245    1.082   .     S
C199   C201    1.416   .     A
C199   N228    1.367   .     A
C200   H246    1.082   .     S
C200   N227    1.367   .     A
C200   C202    1.416   .     A
C201   H247    1.082   .     S
C201   N227    1.367   .     A
C202   N228    1.367   .     A
C202   H248    1.082   .     S
C203   C205    1.465   .     S
C203   O235    1.293   .     A
C203   O295    1.296   .     S
C204   C206    1.474   .     S
C204   O236    1.295   .     A
C204   O358    1.299   1_455 S
C205   C209    1.397   .     A
C205   C211    1.398   .     A
C206   C212    1.406   .     A
C206   C210    1.400   .     A
C207   C209    1.392   .     A
C207   F241    1.358   .     S
C207   C215    1.410   .     A
C208   C210    1.392   .     A
C208   C216    1.409   .     A
C208   F366    1.357   1_455 S
C209   H284    1.083   .     S
C210   H345    1.083   1_455 S
C211   C213    1.410   .     A
C211   F240    1.359   .     S
C212   C214    1.410   .     A
C212   F239    1.358   .     S
C213   C215    1.423   .     A
C213   C217    1.424   .     A
C214   C216    1.420   .     A
C214   C218    1.423   .     A
C215   C749    1.400   .     S
C216   C750    1.401   1_554 S
C217   C776    1.416   .     S
C218   C775    1.416   1_554 S
Cu219  N227    2.012   .     S
Cu219  O232    1.965   .     S
Cu219  O233    1.953   .     S
Cu219  O236    1.942   .     S
Cu219  O229    1.965   .     S
Cu219  Cu344   2.677   1_455 S
Cu220  N228    2.012   .     S
Cu220  O230    1.965   .     S
Cu220  O231    1.965   .     S
Cu220  O234    1.953   .     S
Cu220  O235    1.942   .     S
Cu220  Cu281   2.677   .     S
H221   C272    1.083   .     S
H222   C333    1.083   1_455 S
O229   C311    1.291   1_455 S
O230   C250    1.291   .     S
O233   C327    1.296   1_455 S
O234   C266    1.299   .     S
F242   C270    1.357   .     S
C249   O293    1.291   .     A
C249   C260    1.450   .     S
C249   O353    1.291   .     S
C250   O294    1.291   .     A
C250   C259    1.450   .     S
C251   C253    1.388   .     A
C251   C280    1.412   .     A
C251   H305    1.079   .     S
C252   C279    1.412   .     A
C252   C254    1.389   .     A
C252   H306    1.078   .     S
C253   F299    1.358   .     S
C253   C835    1.400   1_554 S
C254   F300    1.357   .     S
C254   C836    1.401   .     S
C255   H285    1.083   .     S
C255   C260    1.401   .     A
C256   C259    1.401   .     A
C256   H286    1.083   .     S
C256   C444    1.384   .     S
C257   H287    1.083   .     S
C257   C441    1.384   .     S
C257   C321    1.401   .     S
C258   H288    1.083   .     S
C260   C320    1.401   .     S
C261   H307    1.082   .     S
C261   C263    1.416   .     A
C261   N290    1.367   .     A
C262   H308    1.082   .     S
C262   N289    1.367   .     A
C262   C264    1.416   .     A
C263   H309    1.082   .     S
C263   N289    1.367   .     A
C264   N290    1.367   .     A
C264   H310    1.082   .     S
C265   C267    1.465   .     S
C265   O297    1.293   .     A
C265   O357    1.296   .     S
C266   C268    1.474   .     S
C266   O298    1.295   .     A
C267   C271    1.397   .     A
C267   C273    1.398   .     A
C268   C274    1.406   .     A
C268   C272    1.400   .     A
C269   C271    1.392   .     A
C269   F303    1.358   .     S
C269   C277    1.410   .     A
C270   C272    1.392   .     A
C270   C278    1.409   .     A
C271   H346    1.083   .     S
C273   C275    1.410   .     A
C273   F302    1.359   .     S
C274   C276    1.410   .     A
C274   F301    1.358   .     S
C275   C277    1.423   .     A
C275   C279    1.424   .     A
C276   C278    1.420   .     A
C276   C280    1.423   .     A
C277   C811    1.400   .     S
C278   C812    1.401   1_554 S
C279   C838    1.416   .     S
C280   C837    1.416   1_554 S
Cu281  N289    2.012   .     S
Cu281  O294    1.965   .     S
Cu281  O295    1.953   .     S
Cu281  O298    1.942   .     S
Cu281  O291    1.965   .     S
Cu282  N290    2.012   .     S
Cu282  O292    1.965   .     S
Cu282  O293    1.965   .     S
Cu282  O296    1.953   .     S
Cu282  O297    1.942   .     S
Cu282  Cu343   2.677   .     S
H283   C334    1.083   .     S
O292   C312    1.291   .     S
O296   C328    1.299   .     S
F304   C332    1.357   .     S
C311   O355    1.291   .     A
C311   C322    1.450   .     S
C311   O229    1.291   1_655 S
C312   O356    1.291   .     A
C312   C321    1.450   .     S
C313   C315    1.388   .     A
C313   C342    1.412   .     A
C313   H367    1.079   .     S
C314   C341    1.412   .     A
C314   C316    1.389   .     A
C314   H368    1.078   .     S
C315   F361    1.358   .     S
C315   C897    1.400   1_554 S
C316   F362    1.357   .     S
C316   C898    1.401   .     S
C317   H347    1.083   .     S
C317   C322    1.401   .     A
C318   C321    1.401   .     A
C318   H348    1.083   .     S
C318   C506    1.384   .     S
C319   H349    1.083   .     S
C319   C503    1.384   .     S
C319   C197    1.401   1_655 S
C320   H350    1.083   .     S
C322   C196    1.401   1_655 S
C323   H369    1.082   .     S
C323   C325    1.416   .     A
C323   N352    1.367   .     A
C324   H370    1.082   .     S
C324   N351    1.367   .     A
C324   C326    1.416   .     A
C325   H371    1.082   .     S
C325   N351    1.367   .     A
C326   N352    1.367   .     A
C326   H372    1.082   .     S
C327   C329    1.465   .     S
C327   O359    1.293   .     A
C327   O233    1.296   1_655 S
C328   C330    1.474   .     S
C328   O360    1.295   .     A
C329   C333    1.397   .     A
C329   C335    1.398   .     A
C330   C336    1.406   .     A
C330   C334    1.400   .     A
C331   C333    1.392   .     A
C331   F365    1.358   .     S
C331   C339    1.410   .     A
C332   C334    1.392   .     A
C332   C340    1.409   .     A
C333   H222    1.083   1_655 S
C335   C337    1.410   .     A
C335   F364    1.359   .     S
C336   C338    1.410   .     A
C336   F363    1.358   .     S
C337   C339    1.423   .     A
C337   C341    1.424   .     A
C338   C340    1.420   .     A
C338   C342    1.423   .     A
C339   C873    1.400   .     S
C340   C874    1.401   1_554 S
C341   C900    1.416   .     S
C342   C899    1.416   1_554 S
Cu343  N351    2.012   .     S
Cu343  O356    1.965   .     S
Cu343  O357    1.953   .     S
Cu343  O360    1.942   .     S
Cu343  O353    1.965   .     S
Cu344  N352    2.012   .     S
Cu344  O354    1.965   .     S
Cu344  O355    1.965   .     S
Cu344  O358    1.953   .     S
Cu344  O359    1.942   .     S
Cu344  Cu219   2.677   1_655 S
H345   C210    1.083   1_655 S
O354   C188    1.291   1_655 S
O358   C204    1.299   1_655 S
F366   C208    1.357   1_655 S
C373   O417    1.291   .     A
C373   C384    1.450   .     S
C373   O477    1.291   .     S
C374   O418    1.291   .     A
C374   C383    1.450   .     S
C374   O540    1.291   1_455 S
C375   C377    1.388   .     A
C375   C404    1.412   .     A
C375   H429    1.079   .     S
C376   C403    1.412   .     A
C376   C378    1.389   .     A
C376   H430    1.078   .     S
C377   F423    1.358   .     S
C377   C959    1.400   1_554 S
C378   F424    1.357   .     S
C378   C960    1.401   .     S
C379   H409    1.083   .     S
C379   C384    1.401   .     A
C380   C383    1.401   .     A
C380   H410    1.083   .     S
C380   C10     1.384   1_565 S
C381   H411    1.083   .     S
C381   C7      1.384   1_565 S
C381   C445    1.401   .     S
C382   H412    1.083   .     S
C382   C508    1.401   1_455 S
C383   C505    1.401   1_455 S
C384   C444    1.401   .     S
C385   H431    1.082   .     S
C385   C387    1.416   .     A
C385   N414    1.367   .     A
C386   H432    1.082   .     S
C386   N413    1.367   .     A
C386   C388    1.416   .     A
C387   H433    1.082   .     S
C387   N413    1.367   .     A
C388   N414    1.367   .     A
C388   H434    1.082   .     S
C389   C391    1.465   .     S
C389   O421    1.293   .     A
C389   O481    1.296   .     S
C390   C392    1.474   .     S
C390   O422    1.295   .     A
C390   O544    1.299   1_455 S
C391   C395    1.397   .     A
C391   C397    1.398   .     A
C392   C398    1.406   .     A
C392   C396    1.400   .     A
C393   C395    1.392   .     A
C393   F427    1.358   .     S
C393   C401    1.410   .     A
C394   C396    1.392   .     A
C394   C402    1.409   .     A
C394   F552    1.357   1_455 S
C395   H470    1.083   .     S
C396   H531    1.083   1_455 S
C397   C399    1.410   .     A
C397   F426    1.359   .     S
C398   C400    1.410   .     A
C398   F425    1.358   .     S
C399   C401    1.423   .     A
C399   C403    1.424   .     A
C400   C402    1.420   .     A
C400   C404    1.423   .     A
C401   C935    1.400   .     S
C402   C936    1.401   1_554 S
C403   C962    1.416   .     S
C404   C961    1.416   1_554 S
Cu405  N413    2.012   .     S
Cu405  O418    1.965   .     S
Cu405  O419    1.953   .     S
Cu405  O422    1.942   .     S
Cu405  O415    1.965   .     S
Cu405  Cu530   2.677   1_455 S
Cu406  N414    2.012   .     S
Cu406  O416    1.965   .     S
Cu406  O417    1.965   .     S
Cu406  O420    1.953   .     S
Cu406  O421    1.942   .     S
Cu406  Cu467   2.677   .     S
H407   C458    1.083   .     S
H408   C519    1.083   1_455 S
O415   C497    1.291   1_455 S
O416   C436    1.291   .     S
O419   C513    1.296   1_455 S
O420   C452    1.299   .     S
F428   C456    1.357   .     S
C435   O479    1.291   .     A
C435   C446    1.450   .     S
C435   O539    1.291   .     S
C436   O480    1.291   .     A
C436   C445    1.450   .     S
C437   C439    1.388   .     A
C437   C466    1.412   .     A
C437   H491    1.079   .     S
C438   C465    1.412   .     A
C438   C440    1.389   .     A
C438   H492    1.078   .     S
C439   F485    1.358   .     S
C439   C1021   1.400   1_554 S
C440   F486    1.357   .     S
C440   C1022   1.401   .     S
C441   H471    1.083   .     S
C441   C446    1.401   .     A
C442   C445    1.401   .     A
C442   H472    1.083   .     S
C442   C72     1.384   1_565 S
C443   H473    1.083   .     S
C443   C69     1.384   1_565 S
C443   C507    1.401   .     S
C444   H474    1.083   .     S
C446   C506    1.401   .     S
C447   H493    1.082   .     S
C447   C449    1.416   .     A
C447   N476    1.367   .     A
C448   H494    1.082   .     S
C448   N475    1.367   .     A
C448   C450    1.416   .     A
C449   H495    1.082   .     S
C449   N475    1.367   .     A
C450   N476    1.367   .     A
C450   H496    1.082   .     S
C451   C453    1.465   .     S
C451   O483    1.293   .     A
C451   O543    1.296   .     S
C452   C454    1.474   .     S
C452   O484    1.295   .     A
C453   C457    1.397   .     A
C453   C459    1.398   .     A
C454   C460    1.406   .     A
C454   C458    1.400   .     A
C455   C457    1.392   .     A
C455   F489    1.358   .     S
C455   C463    1.410   .     A
C456   C458    1.392   .     A
C456   C464    1.409   .     A
C457   H532    1.083   .     S
C459   C461    1.410   .     A
C459   F488    1.359   .     S
C460   C462    1.410   .     A
C460   F487    1.358   .     S
C461   C463    1.423   .     A
C461   C465    1.424   .     A
C462   C464    1.420   .     A
C462   C466    1.423   .     A
C463   C997    1.400   .     S
C464   C998    1.401   1_554 S
C465   C1024   1.416   .     S
C466   C1023   1.416   1_554 S
Cu467  N475    2.012   .     S
Cu467  O480    1.965   .     S
Cu467  O481    1.953   .     S
Cu467  O484    1.942   .     S
Cu467  O477    1.965   .     S
Cu468  N476    2.012   .     S
Cu468  O478    1.965   .     S
Cu468  O479    1.965   .     S
Cu468  O482    1.953   .     S
Cu468  O483    1.942   .     S
Cu468  Cu529   2.677   .     S
H469   C520    1.083   .     S
O478   C498    1.291   .     S
O482   C514    1.299   .     S
F490   C518    1.357   .     S
C497   O541    1.291   .     A
C497   C508    1.450   .     S
C497   O415    1.291   1_655 S
C498   O542    1.291   .     A
C498   C507    1.450   .     S
C499   C501    1.388   .     A
C499   C528    1.412   .     A
C499   H553    1.079   .     S
C500   C527    1.412   .     A
C500   C502    1.389   .     A
C500   H554    1.078   .     S
C501   F547    1.358   .     S
C501   C1083   1.400   1_554 S
C502   F548    1.357   .     S
C502   C1084   1.401   .     S
C503   H533    1.083   .     S
C503   C508    1.401   .     A
C504   C507    1.401   .     A
C504   H534    1.083   .     S
C504   C134    1.384   1_565 S
C505   H535    1.083   .     S
C505   C131    1.384   1_565 S
C505   C383    1.401   1_655 S
C506   H536    1.083   .     S
C508   C382    1.401   1_655 S
C509   H555    1.082   .     S
C509   C511    1.416   .     A
C509   N538    1.367   .     A
C510   H556    1.082   .     S
C510   N537    1.367   .     A
C510   C512    1.416   .     A
C511   H557    1.082   .     S
C511   N537    1.367   .     A
C512   N538    1.367   .     A
C512   H558    1.082   .     S
C513   C515    1.465   .     S
C513   O545    1.293   .     A
C513   O419    1.296   1_655 S
C514   C516    1.474   .     S
C514   O546    1.295   .     A
C515   C519    1.397   .     A
C515   C521    1.398   .     A
C516   C522    1.406   .     A
C516   C520    1.400   .     A
C517   C519    1.392   .     A
C517   F551    1.358   .     S
C517   C525    1.410   .     A
C518   C520    1.392   .     A
C518   C526    1.409   .     A
C519   H408    1.083   1_655 S
C521   C523    1.410   .     A
C521   F550    1.359   .     S
C522   C524    1.410   .     A
C522   F549    1.358   .     S
C523   C525    1.423   .     A
C523   C527    1.424   .     A
C524   C526    1.420   .     A
C524   C528    1.423   .     A
C525   C1059   1.400   .     S
C526   C1060   1.401   1_554 S
C527   C1086   1.416   .     S
C528   C1085   1.416   1_554 S
Cu529  N537    2.012   .     S
Cu529  O542    1.965   .     S
Cu529  O543    1.953   .     S
Cu529  O546    1.942   .     S
Cu529  O539    1.965   .     S
Cu530  N538    2.012   .     S
Cu530  O540    1.965   .     S
Cu530  O541    1.965   .     S
Cu530  O544    1.953   .     S
Cu530  O545    1.942   .     S
Cu530  Cu405   2.677   1_655 S
H531   C396    1.083   1_655 S
O540   C374    1.291   1_655 S
O544   C390    1.299   1_655 S
F552   C394    1.357   1_655 S
C559   O603    1.291   .     A
C559   C570    1.450   .     S
C559   O663    1.291   .     S
C560   O604    1.291   .     A
C560   C569    1.450   .     S
C560   O726    1.291   1_455 S
C561   C563    1.388   .     A
C561   C590    1.412   .     A
C561   H615    1.079   .     S
C562   C589    1.412   .     A
C562   C564    1.389   .     A
C562   H616    1.078   .     S
C563   F609    1.358   .     S
C564   F610    1.357   .     S
C564   C30     1.401   1_556 S
C565   H595    1.083   .     S
C565   C570    1.401   .     A
C565   C939    1.384   1_545 S
C566   C569    1.401   .     A
C566   H596    1.083   .     S
C566   C754    1.384   .     S
C567   H597    1.083   .     S
C567   C751    1.384   .     S
C567   C631    1.401   .     S
C568   H598    1.083   .     S
C568   C938    1.384   1_545 S
C568   C694    1.401   1_455 S
C569   C691    1.401   1_455 S
C570   C630    1.401   .     S
C571   H617    1.082   .     S
C571   C573    1.416   .     A
C571   N600    1.367   .     A
C572   H618    1.082   .     S
C572   N599    1.367   .     A
C572   C574    1.416   .     A
C573   H619    1.082   .     S
C573   N599    1.367   .     A
C574   N600    1.367   .     A
C574   H620    1.082   .     S
C575   C577    1.465   .     S
C575   O607    1.293   .     A
C575   O667    1.296   .     S
C576   C578    1.474   .     S
C576   O608    1.295   .     A
C576   O730    1.299   1_455 S
C577   C581    1.397   .     A
C577   C583    1.398   .     A
C578   C584    1.406   .     A
C578   C582    1.400   .     A
C579   C581    1.392   .     A
C579   F613    1.358   .     S
C579   C587    1.410   .     A
C580   C582    1.392   .     A
C580   C588    1.409   .     A
C580   F738    1.357   1_455 S
C581   H656    1.083   .     S
C582   H717    1.083   1_455 S
C583   C585    1.410   .     A
C583   F612    1.359   .     S
C584   C586    1.410   .     A
C584   F611    1.358   .     S
C585   C587    1.423   .     A
C585   C589    1.424   .     A
C586   C588    1.420   .     A
C586   C590    1.423   .     A
C587   C5      1.400   1_556 S
C589   C32     1.416   1_556 S
Cu591  N599    2.012   .     S
Cu591  O604    1.965   .     S
Cu591  O605    1.953   .     S
Cu591  O608    1.942   .     S
Cu591  O601    1.965   .     S
Cu591  Cu716   2.677   1_455 S
Cu592  N600    2.012   .     S
Cu592  O602    1.965   .     S
Cu592  O603    1.965   .     S
Cu592  O606    1.953   .     S
Cu592  O607    1.942   .     S
Cu592  Cu653   2.677   .     S
H593   C644    1.083   .     S
H594   C705    1.083   1_455 S
O601   C683    1.291   1_455 S
O602   C622    1.291   .     S
O605   C699    1.296   1_455 S
O606   C638    1.299   .     S
F614   C642    1.357   .     S
C621   O665    1.291   .     A
C621   C632    1.450   .     S
C621   O725    1.291   .     S
C622   O666    1.291   .     A
C622   C631    1.450   .     S
C623   C625    1.388   .     A
C623   C652    1.412   .     A
C623   H677    1.079   .     S
C624   C651    1.412   .     A
C624   C626    1.389   .     A
C624   H678    1.078   .     S
C625   F671    1.358   .     S
C626   F672    1.357   .     S
C626   C92     1.401   1_556 S
C627   H657    1.083   .     S
C627   C632    1.401   .     A
C627   C1001   1.384   1_545 S
C628   C631    1.401   .     A
C628   H658    1.083   .     S
C628   C816    1.384   .     S
C629   H659    1.083   .     S
C629   C813    1.384   .     S
C629   C693    1.401   .     S
C630   H660    1.083   .     S
C630   C1000   1.384   1_545 S
C632   C692    1.401   .     S
C633   H679    1.082   .     S
C633   C635    1.416   .     A
C633   N662    1.367   .     A
C634   H680    1.082   .     S
C634   N661    1.367   .     A
C634   C636    1.416   .     A
C635   H681    1.082   .     S
C635   N661    1.367   .     A
C636   N662    1.367   .     A
C636   H682    1.082   .     S
C637   C639    1.465   .     S
C637   O669    1.293   .     A
C637   O729    1.296   .     S
C638   C640    1.474   .     S
C638   O670    1.295   .     A
C639   C643    1.397   .     A
C639   C645    1.398   .     A
C640   C646    1.406   .     A
C640   C644    1.400   .     A
C641   C643    1.392   .     A
C641   F675    1.358   .     S
C641   C649    1.410   .     A
C642   C644    1.392   .     A
C642   C650    1.409   .     A
C643   H718    1.083   .     S
C645   C647    1.410   .     A
C645   F674    1.359   .     S
C646   C648    1.410   .     A
C646   F673    1.358   .     S
C647   C649    1.423   .     A
C647   C651    1.424   .     A
C648   C650    1.420   .     A
C648   C652    1.423   .     A
C649   C67     1.400   1_556 S
C651   C94     1.416   1_556 S
Cu653  N661    2.012   .     S
Cu653  O666    1.965   .     S
Cu653  O667    1.953   .     S
Cu653  O670    1.942   .     S
Cu653  O663    1.965   .     S
Cu654  N662    2.012   .     S
Cu654  O664    1.965   .     S
Cu654  O665    1.965   .     S
Cu654  O668    1.953   .     S
Cu654  O669    1.942   .     S
Cu654  Cu715   2.677   .     S
H655   C706    1.083   .     S
O664   C684    1.291   .     S
O668   C700    1.299   .     S
F676   C704    1.357   .     S
C683   O727    1.291   .     A
C683   C694    1.450   .     S
C683   O601    1.291   1_655 S
C684   O728    1.291   .     A
C684   C693    1.450   .     S
C685   C687    1.388   .     A
C685   C714    1.412   .     A
C685   H739    1.079   .     S
C686   C713    1.412   .     A
C686   C688    1.389   .     A
C686   H740    1.078   .     S
C687   F733    1.358   .     S
C688   F734    1.357   .     S
C688   C154    1.401   1_556 S
C689   H719    1.083   .     S
C689   C694    1.401   .     A
C689   C1063   1.384   1_545 S
C690   C693    1.401   .     A
C690   H720    1.083   .     S
C690   C878    1.384   .     S
C691   H721    1.083   .     S
C691   C875    1.384   .     S
C691   C569    1.401   1_655 S
C692   H722    1.083   .     S
C692   C1062   1.384   1_545 S
C694   C568    1.401   1_655 S
C695   H741    1.082   .     S
C695   C697    1.416   .     A
C695   N724    1.367   .     A
C696   H742    1.082   .     S
C696   N723    1.367   .     A
C696   C698    1.416   .     A
C697   H743    1.082   .     S
C697   N723    1.367   .     A
C698   N724    1.367   .     A
C698   H744    1.082   .     S
C699   C701    1.465   .     S
C699   O731    1.293   .     A
C699   O605    1.296   1_655 S
C700   C702    1.474   .     S
C700   O732    1.295   .     A
C701   C705    1.397   .     A
C701   C707    1.398   .     A
C702   C708    1.406   .     A
C702   C706    1.400   .     A
C703   C705    1.392   .     A
C703   F737    1.358   .     S
C703   C711    1.410   .     A
C704   C706    1.392   .     A
C704   C712    1.409   .     A
C705   H594    1.083   1_655 S
C707   C709    1.410   .     A
C707   F736    1.359   .     S
C708   C710    1.410   .     A
C708   F735    1.358   .     S
C709   C711    1.423   .     A
C709   C713    1.424   .     A
C710   C712    1.420   .     A
C710   C714    1.423   .     A
C711   C129    1.400   1_556 S
C713   C156    1.416   1_556 S
Cu715  N723    2.012   .     S
Cu715  O728    1.965   .     S
Cu715  O729    1.953   .     S
Cu715  O732    1.942   .     S
Cu715  O725    1.965   .     S
Cu716  N724    2.012   .     S
Cu716  O726    1.965   .     S
Cu716  O727    1.965   .     S
Cu716  O730    1.953   .     S
Cu716  O731    1.942   .     S
Cu716  Cu591   2.677   1_655 S
H717   C582    1.083   1_655 S
O726   C560    1.291   1_655 S
O730   C576    1.299   1_655 S
F738   C580    1.357   1_655 S
C745   O789    1.291   .     A
C745   C756    1.450   .     S
C745   O849    1.291   .     S
C746   O790    1.291   .     A
C746   C755    1.450   .     S
C746   O912    1.291   1_455 S
C747   C749    1.388   .     A
C747   C776    1.412   .     A
C747   H801    1.079   .     S
C748   C775    1.412   .     A
C748   C750    1.389   .     A
C748   H802    1.078   .     S
C749   F795    1.358   .     S
C750   F796    1.357   .     S
C750   C216    1.401   1_556 S
C751   H781    1.083   .     S
C751   C756    1.401   .     A
C752   C755    1.401   .     A
C752   H782    1.083   .     S
C752   C940    1.384   .     S
C753   H783    1.083   .     S
C753   C937    1.384   .     S
C753   C817    1.401   .     S
C754   H784    1.083   .     S
C754   C880    1.401   1_455 S
C755   C877    1.401   1_455 S
C756   C816    1.401   .     S
C757   H803    1.082   .     S
C757   C759    1.416   .     A
C757   N786    1.367   .     A
C758   H804    1.082   .     S
C758   N785    1.367   .     A
C758   C760    1.416   .     A
C759   H805    1.082   .     S
C759   N785    1.367   .     A
C760   N786    1.367   .     A
C760   H806    1.082   .     S
C761   C763    1.465   .     S
C761   O793    1.293   .     A
C761   O853    1.296   .     S
C762   C764    1.474   .     S
C762   O794    1.295   .     A
C762   O916    1.299   1_455 S
C763   C767    1.397   .     A
C763   C769    1.398   .     A
C764   C770    1.406   .     A
C764   C768    1.400   .     A
C765   C767    1.392   .     A
C765   F799    1.358   .     S
C765   C773    1.410   .     A
C766   C768    1.392   .     A
C766   C774    1.409   .     A
C766   F924    1.357   1_455 S
C767   H842    1.083   .     S
C768   H903    1.083   1_455 S
C769   C771    1.410   .     A
C769   F798    1.359   .     S
C770   C772    1.410   .     A
C770   F797    1.358   .     S
C771   C773    1.423   .     A
C771   C775    1.424   .     A
C772   C774    1.420   .     A
C772   C776    1.423   .     A
C773   C191    1.400   1_556 S
C775   C218    1.416   1_556 S
Cu777  N785    2.012   .     S
Cu777  O790    1.965   .     S
Cu777  O791    1.953   .     S
Cu777  O794    1.942   .     S
Cu777  O787    1.965   .     S
Cu777  Cu902   2.677   1_455 S
Cu778  N786    2.012   .     S
Cu778  O788    1.965   .     S
Cu778  O789    1.965   .     S
Cu778  O792    1.953   .     S
Cu778  O793    1.942   .     S
Cu778  Cu839   2.677   .     S
H779   C830    1.083   .     S
H780   C891    1.083   1_455 S
O787   C869    1.291   1_455 S
O788   C808    1.291   .     S
O791   C885    1.296   1_455 S
O792   C824    1.299   .     S
F800   C828    1.357   .     S
C807   O851    1.291   .     A
C807   C818    1.450   .     S
C807   O911    1.291   .     S
C808   O852    1.291   .     A
C808   C817    1.450   .     S
C809   C811    1.388   .     A
C809   C838    1.412   .     A
C809   H863    1.079   .     S
C810   C837    1.412   .     A
C810   C812    1.389   .     A
C810   H864    1.078   .     S
C811   F857    1.358   .     S
C812   F858    1.357   .     S
C812   C278    1.401   1_556 S
C813   H843    1.083   .     S
C813   C818    1.401   .     A
C814   C817    1.401   .     A
C814   H844    1.083   .     S
C814   C1002   1.384   .     S
C815   H845    1.083   .     S
C815   C999    1.384   .     S
C815   C879    1.401   .     S
C816   H846    1.083   .     S
C818   C878    1.401   .     S
C819   H865    1.082   .     S
C819   C821    1.416   .     A
C819   N848    1.367   .     A
C820   H866    1.082   .     S
C820   N847    1.367   .     A
C820   C822    1.416   .     A
C821   H867    1.082   .     S
C821   N847    1.367   .     A
C822   N848    1.367   .     A
C822   H868    1.082   .     S
C823   C825    1.465   .     S
C823   O855    1.293   .     A
C823   O915    1.296   .     S
C824   C826    1.474   .     S
C824   O856    1.295   .     A
C825   C829    1.397   .     A
C825   C831    1.398   .     A
C826   C832    1.406   .     A
C826   C830    1.400   .     A
C827   C829    1.392   .     A
C827   F861    1.358   .     S
C827   C835    1.410   .     A
C828   C830    1.392   .     A
C828   C836    1.409   .     A
C829   H904    1.083   .     S
C831   C833    1.410   .     A
C831   F860    1.359   .     S
C832   C834    1.410   .     A
C832   F859    1.358   .     S
C833   C835    1.423   .     A
C833   C837    1.424   .     A
C834   C836    1.420   .     A
C834   C838    1.423   .     A
C835   C253    1.400   1_556 S
C837   C280    1.416   1_556 S
Cu839  N847    2.012   .     S
Cu839  O852    1.965   .     S
Cu839  O853    1.953   .     S
Cu839  O856    1.942   .     S
Cu839  O849    1.965   .     S
Cu840  N848    2.012   .     S
Cu840  O850    1.965   .     S
Cu840  O851    1.965   .     S
Cu840  O854    1.953   .     S
Cu840  O855    1.942   .     S
Cu840  Cu901   2.677   .     S
H841   C892    1.083   .     S
O850   C870    1.291   .     S
O854   C886    1.299   .     S
F862   C890    1.357   .     S
C869   O913    1.291   .     A
C869   C880    1.450   .     S
C869   O787    1.291   1_655 S
C870   O914    1.291   .     A
C870   C879    1.450   .     S
C871   C873    1.388   .     A
C871   C900    1.412   .     A
C871   H925    1.079   .     S
C872   C899    1.412   .     A
C872   C874    1.389   .     A
C872   H926    1.078   .     S
C873   F919    1.358   .     S
C874   F920    1.357   .     S
C874   C340    1.401   1_556 S
C875   H905    1.083   .     S
C875   C880    1.401   .     A
C876   C879    1.401   .     A
C876   H906    1.083   .     S
C876   C1064   1.384   .     S
C877   H907    1.083   .     S
C877   C1061   1.384   .     S
C877   C755    1.401   1_655 S
C878   H908    1.083   .     S
C880   C754    1.401   1_655 S
C881   H927    1.082   .     S
C881   C883    1.416   .     A
C881   N910    1.367   .     A
C882   H928    1.082   .     S
C882   N909    1.367   .     A
C882   C884    1.416   .     A
C883   H929    1.082   .     S
C883   N909    1.367   .     A
C884   N910    1.367   .     A
C884   H930    1.082   .     S
C885   C887    1.465   .     S
C885   O917    1.293   .     A
C885   O791    1.296   1_655 S
C886   C888    1.474   .     S
C886   O918    1.295   .     A
C887   C891    1.397   .     A
C887   C893    1.398   .     A
C888   C894    1.406   .     A
C888   C892    1.400   .     A
C889   C891    1.392   .     A
C889   F923    1.358   .     S
C889   C897    1.410   .     A
C890   C892    1.392   .     A
C890   C898    1.409   .     A
C891   H780    1.083   1_655 S
C893   C895    1.410   .     A
C893   F922    1.359   .     S
C894   C896    1.410   .     A
C894   F921    1.358   .     S
C895   C897    1.423   .     A
C895   C899    1.424   .     A
C896   C898    1.420   .     A
C896   C900    1.423   .     A
C897   C315    1.400   1_556 S
C899   C342    1.416   1_556 S
Cu901  N909    2.012   .     S
Cu901  O914    1.965   .     S
Cu901  O915    1.953   .     S
Cu901  O918    1.942   .     S
Cu901  O911    1.965   .     S
Cu902  N910    2.012   .     S
Cu902  O912    1.965   .     S
Cu902  O913    1.965   .     S
Cu902  O916    1.953   .     S
Cu902  O917    1.942   .     S
Cu902  Cu777   2.677   1_655 S
H903   C768    1.083   1_655 S
O912   C746    1.291   1_655 S
O916   C762    1.299   1_655 S
F924   C766    1.357   1_655 S
C931   O975    1.291   .     A
C931   C942    1.450   .     S
C931   O1035   1.291   .     S
C932   O976    1.291   .     A
C932   C941    1.450   .     S
C932   O1098   1.291   1_455 S
C933   C935    1.388   .     A
C933   C962    1.412   .     A
C933   H987    1.079   .     S
C934   C961    1.412   .     A
C934   C936    1.389   .     A
C934   H988    1.078   .     S
C935   F981    1.358   .     S
C936   F982    1.357   .     S
C936   C402    1.401   1_556 S
C937   H967    1.083   .     S
C937   C942    1.401   .     A
C938   C941    1.401   .     A
C938   H968    1.083   .     S
C938   C568    1.384   1_565 S
C939   H969    1.083   .     S
C939   C565    1.384   1_565 S
C939   C1003   1.401   .     S
C940   H970    1.083   .     S
C940   C1066   1.401   1_455 S
C941   C1063   1.401   1_455 S
C942   C1002   1.401   .     S
C943   H989    1.082   .     S
C943   C945    1.416   .     A
C943   N972    1.367   .     A
C944   H990    1.082   .     S
C944   N971    1.367   .     A
C944   C946    1.416   .     A
C945   H991    1.082   .     S
C945   N971    1.367   .     A
C946   N972    1.367   .     A
C946   H992    1.082   .     S
C947   C949    1.465   .     S
C947   O979    1.293   .     A
C947   O1039   1.296   .     S
C948   C950    1.474   .     S
C948   O980    1.295   .     A
C948   O1102   1.299   1_455 S
C949   C953    1.397   .     A
C949   C955    1.398   .     A
C950   C956    1.406   .     A
C950   C954    1.400   .     A
C951   C953    1.392   .     A
C951   F985    1.358   .     S
C951   C959    1.410   .     A
C952   C954    1.392   .     A
C952   C960    1.409   .     A
C952   F1110   1.357   1_455 S
C953   H1028   1.083   .     S
C954   H1089   1.083   1_455 S
C955   C957    1.410   .     A
C955   F984    1.359   .     S
C956   C958    1.410   .     A
C956   F983    1.358   .     S
C957   C959    1.423   .     A
C957   C961    1.424   .     A
C958   C960    1.420   .     A
C958   C962    1.423   .     A
C959   C377    1.400   1_556 S
C961   C404    1.416   1_556 S
Cu963  N971    2.012   .     S
Cu963  O976    1.965   .     S
Cu963  O977    1.953   .     S
Cu963  O980    1.942   .     S
Cu963  O973    1.965   .     S
Cu963  Cu1088  2.677   1_455 S
Cu964  N972    2.012   .     S
Cu964  O974    1.965   .     S
Cu964  O975    1.965   .     S
Cu964  O978    1.953   .     S
Cu964  O979    1.942   .     S
Cu964  Cu1025  2.677   .     S
H965   C1016   1.083   .     S
H966   C1077   1.083   1_455 S
O973   C1055   1.291   1_455 S
O974   C994    1.291   .     S
O977   C1071   1.296   1_455 S
O978   C1010   1.299   .     S
F986   C1014   1.357   .     S
C993   O1037   1.291   .     A
C993   C1004   1.450   .     S
C993   O1097   1.291   .     S
C994   O1038   1.291   .     A
C994   C1003   1.450   .     S
C995   C997    1.388   .     A
C995   C1024   1.412   .     A
C995   H1049   1.079   .     S
C996   C1023   1.412   .     A
C996   C998    1.389   .     A
C996   H1050   1.078   .     S
C997   F1043   1.358   .     S
C998   F1044   1.357   .     S
C998   C464    1.401   1_556 S
C999   H1029   1.083   .     S
C999   C1004   1.401   .     A
C1000  C1003   1.401   .     A
C1000  H1030   1.083   .     S
C1000  C630    1.384   1_565 S
C1001  H1031   1.083   .     S
C1001  C627    1.384   1_565 S
C1001  C1065   1.401   .     S
C1002  H1032   1.083   .     S
C1004  C1064   1.401   .     S
C1005  H1051   1.082   .     S
C1005  C1007   1.416   .     A
C1005  N1034   1.367   .     A
C1006  H1052   1.082   .     S
C1006  N1033   1.367   .     A
C1006  C1008   1.416   .     A
C1007  H1053   1.082   .     S
C1007  N1033   1.367   .     A
C1008  N1034   1.367   .     A
C1008  H1054   1.082   .     S
C1009  C1011   1.465   .     S
C1009  O1041   1.293   .     A
C1009  O1101   1.296   .     S
C1010  C1012   1.474   .     S
C1010  O1042   1.295   .     A
C1011  C1015   1.397   .     A
C1011  C1017   1.398   .     A
C1012  C1018   1.406   .     A
C1012  C1016   1.400   .     A
C1013  C1015   1.392   .     A
C1013  F1047   1.358   .     S
C1013  C1021   1.410   .     A
C1014  C1016   1.392   .     A
C1014  C1022   1.409   .     A
C1015  H1090   1.083   .     S
C1017  C1019   1.410   .     A
C1017  F1046   1.359   .     S
C1018  C1020   1.410   .     A
C1018  F1045   1.358   .     S
C1019  C1021   1.423   .     A
C1019  C1023   1.424   .     A
C1020  C1022   1.420   .     A
C1020  C1024   1.423   .     A
C1021  C439    1.400   1_556 S
C1023  C466    1.416   1_556 S
Cu1025 N1033   2.012   .     S
Cu1025 O1038   1.965   .     S
Cu1025 O1039   1.953   .     S
Cu1025 O1042   1.942   .     S
Cu1025 O1035   1.965   .     S
Cu1026 N1034   2.012   .     S
Cu1026 O1036   1.965   .     S
Cu1026 O1037   1.965   .     S
Cu1026 O1040   1.953   .     S
Cu1026 O1041   1.942   .     S
Cu1026 Cu1087  2.677   .     S
H1027  C1078   1.083   .     S
O1036  C1056   1.291   .     S
O1040  C1072   1.299   .     S
F1048  C1076   1.357   .     S
C1055  O1099   1.291   .     A
C1055  C1066   1.450   .     S
C1055  O973    1.291   1_655 S
C1056  O1100   1.291   .     A
C1056  C1065   1.450   .     S
C1057  C1059   1.388   .     A
C1057  C1086   1.412   .     A
C1057  H1111   1.079   .     S
C1058  C1085   1.412   .     A
C1058  C1060   1.389   .     A
C1058  H1112   1.078   .     S
C1059  F1105   1.358   .     S
C1060  F1106   1.357   .     S
C1060  C526    1.401   1_556 S
C1061  H1091   1.083   .     S
C1061  C1066   1.401   .     A
C1062  C1065   1.401   .     A
C1062  H1092   1.083   .     S
C1062  C692    1.384   1_565 S
C1063  H1093   1.083   .     S
C1063  C689    1.384   1_565 S
C1063  C941    1.401   1_655 S
C1064  H1094   1.083   .     S
C1066  C940    1.401   1_655 S
C1067  H1113   1.082   .     S
C1067  C1069   1.416   .     A
C1067  N1096   1.367   .     A
C1068  H1114   1.082   .     S
C1068  N1095   1.367   .     A
C1068  C1070   1.416   .     A
C1069  H1115   1.082   .     S
C1069  N1095   1.367   .     A
C1070  N1096   1.367   .     A
C1070  H1116   1.082   .     S
C1071  C1073   1.465   .     S
C1071  O1103   1.293   .     A
C1071  O977    1.296   1_655 S
C1072  C1074   1.474   .     S
C1072  O1104   1.295   .     A
C1073  C1077   1.397   .     A
C1073  C1079   1.398   .     A
C1074  C1080   1.406   .     A
C1074  C1078   1.400   .     A
C1075  C1077   1.392   .     A
C1075  F1109   1.358   .     S
C1075  C1083   1.410   .     A
C1076  C1078   1.392   .     A
C1076  C1084   1.409   .     A
C1077  H966    1.083   1_655 S
C1079  C1081   1.410   .     A
C1079  F1108   1.359   .     S
C1080  C1082   1.410   .     A
C1080  F1107   1.358   .     S
C1081  C1083   1.423   .     A
C1081  C1085   1.424   .     A
C1082  C1084   1.420   .     A
C1082  C1086   1.423   .     A
C1083  C501    1.400   1_556 S
C1085  C528    1.416   1_556 S
Cu1087 N1095   2.012   .     S
Cu1087 O1100   1.965   .     S
Cu1087 O1101   1.953   .     S
Cu1087 O1104   1.942   .     S
Cu1087 O1097   1.965   .     S
Cu1088 N1096   2.012   .     S
Cu1088 O1098   1.965   .     S
Cu1088 O1099   1.965   .     S
Cu1088 O1102   1.953   .     S
Cu1088 O1103   1.942   .     S
Cu1088 Cu963   2.677   1_655 S
H1089  C954    1.083   1_655 S
O1098  C932    1.291   1_655 S
O1102  C948    1.299   1_655 S
F1110  C952    1.357   1_655 S
