data_str_m2_o1_o17_pcu_sym.116
_audit_creation_date              2020-01-03
_audit_creation_method            'Materials Studio'
_symmetry_space_group_name_H-M    'P1'
_symmetry_Int_Tables_number       1
_symmetry_cell_setting            triclinic
loop_
_symmetry_equiv_pos_as_xyz
  x,y,z
_cell_length_a                    32.5664
_cell_length_b                    28.8417
_cell_length_c                    29.8930
_cell_angle_alpha                 89.2356
_cell_angle_beta                  93.2252
_cell_angle_gamma                 89.3824
loop_
_atom_site_label
_atom_site_type_symbol
_atom_site_fract_x
_atom_site_fract_y
_atom_site_fract_z
_atom_site_U_iso_or_equiv
_atom_site_adp_type
_atom_site_occupancy
C1     C     0.08784   0.16695   0.25408   0.00000  Uiso   1.00
C2     C     0.24594   0.16632   0.24887   0.00000  Uiso   1.00
C3     C     0.09530   0.19240   0.01923   0.00000  Uiso   1.00
C4     C     0.23904   0.14307   0.48094   0.00000  Uiso   1.00
C5     C     0.02289   0.12522   0.26646   0.00000  Uiso   1.00
C6     C     0.31192   0.20770   0.24412   0.00000  Uiso   1.00
C7     C     0.31334   0.12389   0.25970   0.00000  Uiso   1.00
C8     C     0.02051   0.20938   0.25532   0.00000  Uiso   1.00
C9     C     0.29100   0.16551   0.24921   0.00000  Uiso   1.00
C10    C     0.04341   0.16749   0.25994   0.00000  Uiso   1.00
C11    C     0.14788   0.02544   0.21493   0.00000  Uiso   1.00
C12    C     0.18706   0.30744   0.28371   0.00000  Uiso   1.00
C13    C     0.18577   0.02360   0.28476   0.00000  Uiso   1.00
C14    C     0.14791   0.30919   0.21498   0.00000  Uiso   1.00
C15    C     0.16648   0.16694   0.16461   0.00000  Uiso   1.00
C16    C     0.16709   0.16648   0.33543   0.00000  Uiso   1.00
C17    C     0.20294   0.15515   0.40893   0.00000  Uiso   1.00
C18    C     0.13152   0.18089   0.09120   0.00000  Uiso   1.00
C19    C     0.16700   0.16643   0.38360   0.00000  Uiso   1.00
C20    C     0.16689   0.16757   0.11653   0.00000  Uiso   1.00
C21    C     0.13105   0.17857   0.40390   0.00000  Uiso   1.00
C22    C     0.20264   0.15448   0.09630   0.00000  Uiso   1.00
C23    C     0.13022   0.17938   0.45072   0.00000  Uiso   1.00
C24    C     0.20384   0.15492   0.04947   0.00000  Uiso   1.00
C25    C     0.16690   0.16754   0.47662   0.00000  Uiso   1.00
C26    C     0.16741   0.16774   0.02355   0.00000  Uiso   1.00
C27    C     0.20312   0.15525   0.45549   0.00000  Uiso   1.00
C28    C     0.13131   0.18055   0.04466   0.00000  Uiso   1.00
C29    C     0.09400   0.19162   0.47238   0.00000  Uiso   1.00
C30    C     0.24005   0.14261   0.02782   0.00000  Uiso   1.00
Cu31   Cu    0.16667   0.21355   0.25000   0.00000  Uiso   1.00
Cu32   Cu    0.16667   0.11978   0.25000   0.00000  Uiso   1.00
H33    H     0.23056   0.14599   0.39220   0.00000  Uiso   1.00
H34    H     0.10404   0.19063   0.10787   0.00000  Uiso   1.00
H35    H     0.10403   0.18683   0.38253   0.00000  Uiso   1.00
H36    H     0.22924   0.14458   0.11775   0.00000  Uiso   1.00
H37    H     0.06781   0.20170   0.03609   0.00000  Uiso   1.00
H38    H     0.26652   0.13375   0.46409   0.00000  Uiso   1.00
N39    N     0.16667   0.28402   0.25000   0.00000  Uiso   1.00
N40    N     0.16667   0.04931   0.25000   0.00000  Uiso   1.00
O41    O     0.10655   0.20625   0.25000   0.00000  Uiso   1.00
O42    O     0.22679   0.12709   0.25001   0.00000  Uiso   1.00
O43    O     0.22679   0.20625   0.25001   0.00000  Uiso   1.00
O44    O     0.10655   0.12709   0.25000   0.00000  Uiso   1.00
O45    O     0.16666   0.20627   0.18513   0.00000  Uiso   1.00
O46    O     0.16668   0.12707   0.31487   0.00000  Uiso   1.00
O47    O     0.16668   0.20627   0.31487   0.00000  Uiso   1.00
O48    O     0.16666   0.12707   0.18513   0.00000  Uiso   1.00
C49    C     0.05346   0.20337   0.44695   0.00000  Uiso   1.00
C50    C     0.03149   0.15916   0.43117   0.00000  Uiso   1.00
C51    C     0.32822   0.17032   0.39849   0.00000  Uiso   1.00
H52    H     0.30645   0.19449   0.41384   0.00000  Uiso   1.00
H53    H     0.00561   0.18613   0.36723   0.00000  Uiso   1.00
H54    H     0.31180   0.13786   0.38968   0.00000  Uiso   1.00
H55    H     0.05302   0.13585   0.41444   0.00000  Uiso   1.00
H56    H     0.02043   0.14023   0.46075   0.00000  Uiso   1.00
H57    H     0.03274   0.22255   0.46877   0.00000  Uiso   1.00
H58    H     0.05856   0.22732   0.41846   0.00000  Uiso   1.00
C59    C     0.28005   0.12863   0.05326   0.00000  Uiso   1.00
C60    C     0.30297   0.17118   0.07169   0.00000  Uiso   1.00
C61    C     0.00664   0.15691   0.10267   0.00000  Uiso   1.00
H62    H     0.32976   0.13722   0.13218   0.00000  Uiso   1.00
H63    H     0.02839   0.13515   0.08447   0.00000  Uiso   1.00
H64    H     0.02296   0.18836   0.11476   0.00000  Uiso   1.00
H65    H     0.31378   0.19217   0.04327   0.00000  Uiso   1.00
H66    H     0.28219   0.19338   0.09062   0.00000  Uiso   1.00
H67    H     0.27395   0.10345   0.08046   0.00000  Uiso   1.00
H68    H     0.30063   0.11003   0.03085   0.00000  Uiso   1.00
N69    N     0.04543   0.08450   0.28122   0.00000  Uiso   1.00
H70    H     0.03412   0.05327   0.27006   0.00000  Uiso   1.00
C71    C     0.05810   0.08349   0.32837   0.00000  Uiso   1.00
H72    H     0.03073   0.08111   0.34882   0.00000  Uiso   1.00
H73    H     0.07571   0.11506   0.33754   0.00000  Uiso   1.00
H74    H     0.07834   0.05281   0.33589   0.00000  Uiso   1.00
N75    N     0.29108   0.24844   0.22647   0.00000  Uiso   1.00
H76    H     0.30359   0.27953   0.23646   0.00000  Uiso   1.00
C77    C     0.28185   0.24783   0.17857   0.00000  Uiso   1.00
H78    H     0.31082   0.24788   0.16061   0.00000  Uiso   1.00
H79    H     0.26337   0.27913   0.16818   0.00000  Uiso   1.00
H80    H     0.26369   0.21676   0.16900   0.00000  Uiso   1.00
N81    N     0.29272   0.08070   0.26301   0.00000  Uiso   1.00
H82    H     0.30225   0.05981   0.28995   0.00000  Uiso   1.00
C83    C     0.28751   0.05611   0.22115   0.00000  Uiso   1.00
H84    H     0.31760   0.04302   0.21057   0.00000  Uiso   1.00
H85    H     0.27336   0.07919   0.19434   0.00000  Uiso   1.00
H86    H     0.26677   0.02630   0.22543   0.00000  Uiso   1.00
N87    N     0.03804   0.25356   0.26424   0.00000  Uiso   1.00
H88    H     0.05884   0.26532   0.24253   0.00000  Uiso   1.00
C89    C     0.04823   0.26303   0.31089   0.00000  Uiso   1.00
H90    H     0.02046   0.25973   0.33055   0.00000  Uiso   1.00
H91    H     0.05956   0.29907   0.31413   0.00000  Uiso   1.00
H92    H     0.07263   0.23880   0.32460   0.00000  Uiso   1.00
N93    N     0.13186   0.04999   0.17601   0.00000  Uiso   1.00
H94    H     0.14173   0.03843   0.14589   0.00000  Uiso   1.00
C95    C     0.08908   0.06459   0.17437   0.00000  Uiso   1.00
H96    H     0.08689   0.10264   0.16875   0.00000  Uiso   1.00
H97    H     0.07425   0.05526   0.20564   0.00000  Uiso   1.00
H98    H     0.07183   0.04813   0.14581   0.00000  Uiso   1.00
N99    N     0.21063   0.28176   0.31729   0.00000  Uiso   1.00
H100   H     0.19749   0.27885   0.34775   0.00000  Uiso   1.00
C101   C     0.25469   0.28868   0.32050   0.00000  Uiso   1.00
H102   H     0.26393   0.30598   0.35240   0.00000  Uiso   1.00
H103   H     0.26489   0.31035   0.29238   0.00000  Uiso   1.00
H104   H     0.27059   0.25449   0.32020   0.00000  Uiso   1.00
N105   N     0.20599   0.04573   0.32193   0.00000  Uiso   1.00
H106   H     0.22350   0.07456   0.31685   0.00000  Uiso   1.00
C107   C     0.18998   0.03827   0.36580   0.00000  Uiso   1.00
H108   H     0.17939   0.07130   0.37958   0.00000  Uiso   1.00
H109   H     0.21461   0.02357   0.38909   0.00000  Uiso   1.00
H110   H     0.16326   0.01456   0.36444   0.00000  Uiso   1.00
N111   N     0.13408   0.28572   0.17550   0.00000  Uiso   1.00
H112   H     0.15249   0.29044   0.14886   0.00000  Uiso   1.00
C113   C     0.09049   0.28516   0.16306   0.00000  Uiso   1.00
H114   H     0.07257   0.30734   0.18493   0.00000  Uiso   1.00
H115   H     0.07930   0.24903   0.16513   0.00000  Uiso   1.00
H116   H     0.08485   0.29784   0.12797   0.00000  Uiso   1.00
C117   C     0.42117   0.16695   0.25408   0.00000  Uiso   1.00
C118   C     0.57927   0.16632   0.24887   0.00000  Uiso   1.00
C119   C     0.42863   0.19240   0.01923   0.00000  Uiso   1.00
C120   C     0.57237   0.14307   0.48094   0.00000  Uiso   1.00
C121   C     0.35622   0.12522   0.26646   0.00000  Uiso   1.00
C122   C     0.64526   0.20770   0.24412   0.00000  Uiso   1.00
C123   C     0.64667   0.12389   0.25970   0.00000  Uiso   1.00
C124   C     0.35384   0.20938   0.25532   0.00000  Uiso   1.00
C125   C     0.62433   0.16551   0.24921   0.00000  Uiso   1.00
C126   C     0.37674   0.16749   0.25994   0.00000  Uiso   1.00
C127   C     0.48122   0.02544   0.21493   0.00000  Uiso   1.00
C128   C     0.52039   0.30744   0.28371   0.00000  Uiso   1.00
C129   C     0.51910   0.02360   0.28476   0.00000  Uiso   1.00
C130   C     0.48124   0.30919   0.21498   0.00000  Uiso   1.00
C131   C     0.49982   0.16694   0.16461   0.00000  Uiso   1.00
C132   C     0.50042   0.16648   0.33543   0.00000  Uiso   1.00
C133   C     0.53628   0.15515   0.40893   0.00000  Uiso   1.00
C134   C     0.46486   0.18089   0.09120   0.00000  Uiso   1.00
C135   C     0.50034   0.16643   0.38360   0.00000  Uiso   1.00
C136   C     0.50022   0.16757   0.11653   0.00000  Uiso   1.00
C137   C     0.46438   0.17857   0.40390   0.00000  Uiso   1.00
C138   C     0.53598   0.15448   0.09630   0.00000  Uiso   1.00
C139   C     0.46355   0.17938   0.45072   0.00000  Uiso   1.00
C140   C     0.53717   0.15492   0.04947   0.00000  Uiso   1.00
C141   C     0.50023   0.16754   0.47662   0.00000  Uiso   1.00
C142   C     0.50074   0.16774   0.02355   0.00000  Uiso   1.00
C143   C     0.53645   0.15525   0.45549   0.00000  Uiso   1.00
C144   C     0.46465   0.18055   0.04466   0.00000  Uiso   1.00
C145   C     0.42733   0.19162   0.47238   0.00000  Uiso   1.00
C146   C     0.57338   0.14261   0.02782   0.00000  Uiso   1.00
Cu147  Cu    0.50000   0.21355   0.25000   0.00000  Uiso   1.00
Cu148  Cu    0.50000   0.11978   0.25000   0.00000  Uiso   1.00
H149   H     0.56389   0.14599   0.39220   0.00000  Uiso   1.00
H150   H     0.43737   0.19063   0.10787   0.00000  Uiso   1.00
H151   H     0.43737   0.18683   0.38253   0.00000  Uiso   1.00
H152   H     0.56257   0.14458   0.11775   0.00000  Uiso   1.00
H153   H     0.40114   0.20170   0.03609   0.00000  Uiso   1.00
H154   H     0.59985   0.13375   0.46409   0.00000  Uiso   1.00
N155   N     0.50000   0.28402   0.25000   0.00000  Uiso   1.00
N156   N     0.50000   0.04931   0.25000   0.00000  Uiso   1.00
O157   O     0.43988   0.20625   0.25000   0.00000  Uiso   1.00
O158   O     0.56012   0.12709   0.25001   0.00000  Uiso   1.00
O159   O     0.56012   0.20625   0.25001   0.00000  Uiso   1.00
O160   O     0.43988   0.12709   0.25000   0.00000  Uiso   1.00
O161   O     0.49999   0.20627   0.18513   0.00000  Uiso   1.00
O162   O     0.50001   0.12707   0.31487   0.00000  Uiso   1.00
O163   O     0.50001   0.20627   0.31487   0.00000  Uiso   1.00
O164   O     0.49999   0.12707   0.18513   0.00000  Uiso   1.00
C165   C     0.38679   0.20337   0.44695   0.00000  Uiso   1.00
C166   C     0.36482   0.15916   0.43117   0.00000  Uiso   1.00
C167   C     0.66156   0.17032   0.39849   0.00000  Uiso   1.00
H168   H     0.63978   0.19449   0.41384   0.00000  Uiso   1.00
H169   H     0.33895   0.18613   0.36723   0.00000  Uiso   1.00
H170   H     0.64514   0.13786   0.38968   0.00000  Uiso   1.00
H171   H     0.38635   0.13585   0.41444   0.00000  Uiso   1.00
H172   H     0.35376   0.14023   0.46075   0.00000  Uiso   1.00
H173   H     0.36607   0.22255   0.46877   0.00000  Uiso   1.00
H174   H     0.39190   0.22732   0.41846   0.00000  Uiso   1.00
C175   C     0.61338   0.12863   0.05326   0.00000  Uiso   1.00
C176   C     0.63630   0.17118   0.07169   0.00000  Uiso   1.00
C177   C     0.33997   0.15691   0.10267   0.00000  Uiso   1.00
H178   H     0.66310   0.13722   0.13218   0.00000  Uiso   1.00
H179   H     0.36172   0.13515   0.08447   0.00000  Uiso   1.00
H180   H     0.35629   0.18836   0.11476   0.00000  Uiso   1.00
H181   H     0.64711   0.19217   0.04327   0.00000  Uiso   1.00
H182   H     0.61552   0.19338   0.09062   0.00000  Uiso   1.00
H183   H     0.60729   0.10345   0.08046   0.00000  Uiso   1.00
H184   H     0.63396   0.11003   0.03085   0.00000  Uiso   1.00
N185   N     0.37877   0.08450   0.28122   0.00000  Uiso   1.00
H186   H     0.36746   0.05327   0.27006   0.00000  Uiso   1.00
C187   C     0.39143   0.08349   0.32837   0.00000  Uiso   1.00
H188   H     0.36407   0.08111   0.34882   0.00000  Uiso   1.00
H189   H     0.40904   0.11506   0.33754   0.00000  Uiso   1.00
H190   H     0.41167   0.05281   0.33589   0.00000  Uiso   1.00
N191   N     0.62441   0.24844   0.22647   0.00000  Uiso   1.00
H192   H     0.63693   0.27953   0.23646   0.00000  Uiso   1.00
C193   C     0.61518   0.24783   0.17857   0.00000  Uiso   1.00
H194   H     0.64416   0.24788   0.16061   0.00000  Uiso   1.00
H195   H     0.59671   0.27913   0.16818   0.00000  Uiso   1.00
H196   H     0.59703   0.21676   0.16900   0.00000  Uiso   1.00
N197   N     0.62605   0.08070   0.26301   0.00000  Uiso   1.00
H198   H     0.63559   0.05981   0.28995   0.00000  Uiso   1.00
C199   C     0.62084   0.05611   0.22115   0.00000  Uiso   1.00
H200   H     0.65094   0.04302   0.21057   0.00000  Uiso   1.00
H201   H     0.60669   0.07919   0.19434   0.00000  Uiso   1.00
H202   H     0.60011   0.02630   0.22543   0.00000  Uiso   1.00
N203   N     0.37138   0.25356   0.26424   0.00000  Uiso   1.00
H204   H     0.39218   0.26532   0.24253   0.00000  Uiso   1.00
C205   C     0.38156   0.26303   0.31089   0.00000  Uiso   1.00
H206   H     0.35379   0.25973   0.33055   0.00000  Uiso   1.00
H207   H     0.39289   0.29907   0.31413   0.00000  Uiso   1.00
H208   H     0.40596   0.23880   0.32460   0.00000  Uiso   1.00
N209   N     0.46519   0.04999   0.17601   0.00000  Uiso   1.00
H210   H     0.47506   0.03843   0.14589   0.00000  Uiso   1.00
C211   C     0.42241   0.06459   0.17437   0.00000  Uiso   1.00
H212   H     0.42023   0.10264   0.16875   0.00000  Uiso   1.00
H213   H     0.40758   0.05526   0.20564   0.00000  Uiso   1.00
H214   H     0.40517   0.04813   0.14581   0.00000  Uiso   1.00
N215   N     0.54396   0.28176   0.31729   0.00000  Uiso   1.00
H216   H     0.53082   0.27885   0.34775   0.00000  Uiso   1.00
C217   C     0.58803   0.28868   0.32050   0.00000  Uiso   1.00
H218   H     0.59726   0.30598   0.35240   0.00000  Uiso   1.00
H219   H     0.59822   0.31035   0.29238   0.00000  Uiso   1.00
H220   H     0.60393   0.25449   0.32020   0.00000  Uiso   1.00
N221   N     0.53932   0.04573   0.32193   0.00000  Uiso   1.00
H222   H     0.55684   0.07456   0.31685   0.00000  Uiso   1.00
C223   C     0.52331   0.03827   0.36580   0.00000  Uiso   1.00
H224   H     0.51273   0.07130   0.37958   0.00000  Uiso   1.00
H225   H     0.54795   0.02357   0.38909   0.00000  Uiso   1.00
H226   H     0.49660   0.01456   0.36444   0.00000  Uiso   1.00
N227   N     0.46742   0.28572   0.17550   0.00000  Uiso   1.00
H228   H     0.48582   0.29044   0.14886   0.00000  Uiso   1.00
C229   C     0.42382   0.28516   0.16306   0.00000  Uiso   1.00
H230   H     0.40590   0.30734   0.18493   0.00000  Uiso   1.00
H231   H     0.41264   0.24903   0.16513   0.00000  Uiso   1.00
H232   H     0.41819   0.29784   0.12797   0.00000  Uiso   1.00
C233   C     0.75450   0.16695   0.25408   0.00000  Uiso   1.00
C234   C     0.91260   0.16632   0.24887   0.00000  Uiso   1.00
C235   C     0.76197   0.19240   0.01923   0.00000  Uiso   1.00
C236   C     0.90571   0.14307   0.48094   0.00000  Uiso   1.00
C237   C     0.68956   0.12522   0.26646   0.00000  Uiso   1.00
C238   C     0.97859   0.20770   0.24412   0.00000  Uiso   1.00
C239   C     0.98001   0.12389   0.25970   0.00000  Uiso   1.00
C240   C     0.68718   0.20938   0.25532   0.00000  Uiso   1.00
C241   C     0.95766   0.16551   0.24921   0.00000  Uiso   1.00
C242   C     0.71007   0.16749   0.25994   0.00000  Uiso   1.00
C243   C     0.81455   0.02544   0.21493   0.00000  Uiso   1.00
C244   C     0.85372   0.30744   0.28371   0.00000  Uiso   1.00
C245   C     0.85244   0.02360   0.28476   0.00000  Uiso   1.00
C246   C     0.81457   0.30919   0.21498   0.00000  Uiso   1.00
C247   C     0.83315   0.16694   0.16461   0.00000  Uiso   1.00
C248   C     0.83375   0.16648   0.33543   0.00000  Uiso   1.00
C249   C     0.86961   0.15515   0.40893   0.00000  Uiso   1.00
C250   C     0.79819   0.18089   0.09120   0.00000  Uiso   1.00
C251   C     0.83367   0.16643   0.38360   0.00000  Uiso   1.00
C252   C     0.83356   0.16757   0.11653   0.00000  Uiso   1.00
C253   C     0.79772   0.17857   0.40390   0.00000  Uiso   1.00
C254   C     0.86931   0.15448   0.09630   0.00000  Uiso   1.00
C255   C     0.79689   0.17938   0.45072   0.00000  Uiso   1.00
C256   C     0.87050   0.15492   0.04947   0.00000  Uiso   1.00
C257   C     0.83357   0.16754   0.47662   0.00000  Uiso   1.00
C258   C     0.83408   0.16774   0.02355   0.00000  Uiso   1.00
C259   C     0.86978   0.15525   0.45549   0.00000  Uiso   1.00
C260   C     0.79798   0.18055   0.04466   0.00000  Uiso   1.00
C261   C     0.76066   0.19162   0.47238   0.00000  Uiso   1.00
C262   C     0.90671   0.14261   0.02782   0.00000  Uiso   1.00
Cu263  Cu    0.83333   0.21355   0.25000   0.00000  Uiso   1.00
Cu264  Cu    0.83333   0.11978   0.25000   0.00000  Uiso   1.00
H265   H     0.89723   0.14599   0.39220   0.00000  Uiso   1.00
H266   H     0.77070   0.19063   0.10787   0.00000  Uiso   1.00
H267   H     0.77070   0.18683   0.38253   0.00000  Uiso   1.00
H268   H     0.89590   0.14458   0.11775   0.00000  Uiso   1.00
H269   H     0.73447   0.20170   0.03609   0.00000  Uiso   1.00
H270   H     0.93319   0.13375   0.46409   0.00000  Uiso   1.00
N271   N     0.83333   0.28402   0.25000   0.00000  Uiso   1.00
N272   N     0.83333   0.04931   0.25000   0.00000  Uiso   1.00
O273   O     0.77321   0.20625   0.25000   0.00000  Uiso   1.00
O274   O     0.89345   0.12709   0.25001   0.00000  Uiso   1.00
O275   O     0.89345   0.20625   0.25001   0.00000  Uiso   1.00
O276   O     0.77321   0.12709   0.25000   0.00000  Uiso   1.00
O277   O     0.83332   0.20627   0.18513   0.00000  Uiso   1.00
O278   O     0.83334   0.12707   0.31487   0.00000  Uiso   1.00
O279   O     0.83334   0.20627   0.31487   0.00000  Uiso   1.00
O280   O     0.83332   0.12707   0.18513   0.00000  Uiso   1.00
C281   C     0.72012   0.20337   0.44695   0.00000  Uiso   1.00
C282   C     0.69815   0.15916   0.43117   0.00000  Uiso   1.00
C283   C     0.99489   0.17032   0.39849   0.00000  Uiso   1.00
H284   H     0.97311   0.19449   0.41384   0.00000  Uiso   1.00
H285   H     0.67228   0.18613   0.36723   0.00000  Uiso   1.00
H286   H     0.97847   0.13786   0.38968   0.00000  Uiso   1.00
H287   H     0.71968   0.13585   0.41444   0.00000  Uiso   1.00
H288   H     0.68710   0.14023   0.46075   0.00000  Uiso   1.00
H289   H     0.69940   0.22255   0.46877   0.00000  Uiso   1.00
H290   H     0.72523   0.22732   0.41846   0.00000  Uiso   1.00
C291   C     0.94672   0.12863   0.05326   0.00000  Uiso   1.00
C292   C     0.96963   0.17118   0.07169   0.00000  Uiso   1.00
C293   C     0.67331   0.15691   0.10267   0.00000  Uiso   1.00
H294   H     0.99643   0.13722   0.13218   0.00000  Uiso   1.00
H295   H     0.69505   0.13515   0.08447   0.00000  Uiso   1.00
H296   H     0.68962   0.18836   0.11476   0.00000  Uiso   1.00
H297   H     0.98045   0.19217   0.04327   0.00000  Uiso   1.00
H298   H     0.94885   0.19338   0.09062   0.00000  Uiso   1.00
H299   H     0.94062   0.10345   0.08046   0.00000  Uiso   1.00
H300   H     0.96729   0.11003   0.03085   0.00000  Uiso   1.00
N301   N     0.71210   0.08450   0.28122   0.00000  Uiso   1.00
H302   H     0.70079   0.05327   0.27006   0.00000  Uiso   1.00
C303   C     0.72477   0.08349   0.32837   0.00000  Uiso   1.00
H304   H     0.69740   0.08111   0.34882   0.00000  Uiso   1.00
H305   H     0.74238   0.11506   0.33754   0.00000  Uiso   1.00
H306   H     0.74500   0.05281   0.33589   0.00000  Uiso   1.00
N307   N     0.95775   0.24844   0.22647   0.00000  Uiso   1.00
H308   H     0.97026   0.27953   0.23646   0.00000  Uiso   1.00
C309   C     0.94852   0.24783   0.17857   0.00000  Uiso   1.00
H310   H     0.97749   0.24788   0.16061   0.00000  Uiso   1.00
H311   H     0.93004   0.27913   0.16818   0.00000  Uiso   1.00
H312   H     0.93036   0.21676   0.16900   0.00000  Uiso   1.00
N313   N     0.95939   0.08070   0.26301   0.00000  Uiso   1.00
H314   H     0.96892   0.05981   0.28995   0.00000  Uiso   1.00
C315   C     0.95418   0.05611   0.22115   0.00000  Uiso   1.00
H316   H     0.98427   0.04302   0.21057   0.00000  Uiso   1.00
H317   H     0.94003   0.07919   0.19434   0.00000  Uiso   1.00
H318   H     0.93344   0.02630   0.22543   0.00000  Uiso   1.00
N319   N     0.70471   0.25356   0.26424   0.00000  Uiso   1.00
H320   H     0.72551   0.26532   0.24253   0.00000  Uiso   1.00
C321   C     0.71490   0.26303   0.31089   0.00000  Uiso   1.00
H322   H     0.68712   0.25973   0.33055   0.00000  Uiso   1.00
H323   H     0.72622   0.29907   0.31413   0.00000  Uiso   1.00
H324   H     0.73930   0.23880   0.32460   0.00000  Uiso   1.00
N325   N     0.79853   0.04999   0.17601   0.00000  Uiso   1.00
H326   H     0.80840   0.03843   0.14589   0.00000  Uiso   1.00
C327   C     0.75575   0.06459   0.17437   0.00000  Uiso   1.00
H328   H     0.75356   0.10264   0.16875   0.00000  Uiso   1.00
H329   H     0.74091   0.05526   0.20564   0.00000  Uiso   1.00
H330   H     0.73850   0.04813   0.14581   0.00000  Uiso   1.00
N331   N     0.87730   0.28176   0.31729   0.00000  Uiso   1.00
H332   H     0.86415   0.27885   0.34775   0.00000  Uiso   1.00
C333   C     0.92136   0.28868   0.32050   0.00000  Uiso   1.00
H334   H     0.93060   0.30598   0.35240   0.00000  Uiso   1.00
H335   H     0.93156   0.31035   0.29238   0.00000  Uiso   1.00
H336   H     0.93726   0.25449   0.32020   0.00000  Uiso   1.00
N337   N     0.87266   0.04573   0.32193   0.00000  Uiso   1.00
H338   H     0.89017   0.07456   0.31685   0.00000  Uiso   1.00
C339   C     0.85665   0.03827   0.36580   0.00000  Uiso   1.00
H340   H     0.84606   0.07130   0.37958   0.00000  Uiso   1.00
H341   H     0.88128   0.02357   0.38909   0.00000  Uiso   1.00
H342   H     0.82993   0.01456   0.36444   0.00000  Uiso   1.00
N343   N     0.80075   0.28572   0.17550   0.00000  Uiso   1.00
H344   H     0.81916   0.29044   0.14886   0.00000  Uiso   1.00
C345   C     0.75715   0.28516   0.16306   0.00000  Uiso   1.00
H346   H     0.73924   0.30734   0.18493   0.00000  Uiso   1.00
H347   H     0.74597   0.24903   0.16513   0.00000  Uiso   1.00
H348   H     0.75152   0.29784   0.12797   0.00000  Uiso   1.00
C349   C     0.08784   0.50028   0.25408   0.00000  Uiso   1.00
C350   C     0.24594   0.49965   0.24887   0.00000  Uiso   1.00
C351   C     0.09530   0.52573   0.01923   0.00000  Uiso   1.00
C352   C     0.23904   0.47640   0.48094   0.00000  Uiso   1.00
C353   C     0.02289   0.45855   0.26646   0.00000  Uiso   1.00
C354   C     0.31192   0.54104   0.24412   0.00000  Uiso   1.00
C355   C     0.31334   0.45722   0.25970   0.00000  Uiso   1.00
C356   C     0.02051   0.54271   0.25532   0.00000  Uiso   1.00
C357   C     0.29100   0.49884   0.24921   0.00000  Uiso   1.00
C358   C     0.04341   0.50083   0.25994   0.00000  Uiso   1.00
C359   C     0.14788   0.35878   0.21493   0.00000  Uiso   1.00
C360   C     0.18706   0.64077   0.28371   0.00000  Uiso   1.00
C361   C     0.18577   0.35694   0.28476   0.00000  Uiso   1.00
C362   C     0.14791   0.64253   0.21498   0.00000  Uiso   1.00
C363   C     0.16648   0.50028   0.16461   0.00000  Uiso   1.00
C364   C     0.16709   0.49982   0.33543   0.00000  Uiso   1.00
C365   C     0.20294   0.48848   0.40893   0.00000  Uiso   1.00
C366   C     0.13152   0.51423   0.09120   0.00000  Uiso   1.00
C367   C     0.16700   0.49976   0.38360   0.00000  Uiso   1.00
C368   C     0.16689   0.50091   0.11653   0.00000  Uiso   1.00
C369   C     0.13105   0.51190   0.40390   0.00000  Uiso   1.00
C370   C     0.20264   0.48782   0.09630   0.00000  Uiso   1.00
C371   C     0.13022   0.51271   0.45072   0.00000  Uiso   1.00
C372   C     0.20384   0.48825   0.04947   0.00000  Uiso   1.00
C373   C     0.16690   0.50088   0.47662   0.00000  Uiso   1.00
C374   C     0.16741   0.50107   0.02355   0.00000  Uiso   1.00
C375   C     0.20312   0.48858   0.45549   0.00000  Uiso   1.00
C376   C     0.13131   0.51389   0.04466   0.00000  Uiso   1.00
C377   C     0.09400   0.52495   0.47238   0.00000  Uiso   1.00
C378   C     0.24005   0.47594   0.02782   0.00000  Uiso   1.00
Cu379  Cu    0.16667   0.54689   0.25000   0.00000  Uiso   1.00
Cu380  Cu    0.16667   0.45311   0.25000   0.00000  Uiso   1.00
H381   H     0.23056   0.47932   0.39220   0.00000  Uiso   1.00
H382   H     0.10404   0.52396   0.10787   0.00000  Uiso   1.00
H383   H     0.10403   0.52017   0.38253   0.00000  Uiso   1.00
H384   H     0.22924   0.47792   0.11775   0.00000  Uiso   1.00
H385   H     0.06781   0.53503   0.03609   0.00000  Uiso   1.00
H386   H     0.26652   0.46709   0.46409   0.00000  Uiso   1.00
N387   N     0.16667   0.61736   0.25000   0.00000  Uiso   1.00
N388   N     0.16667   0.38264   0.25000   0.00000  Uiso   1.00
O389   O     0.10655   0.53958   0.25000   0.00000  Uiso   1.00
O390   O     0.22679   0.46042   0.25001   0.00000  Uiso   1.00
O391   O     0.22679   0.53958   0.25001   0.00000  Uiso   1.00
O392   O     0.10655   0.46042   0.25000   0.00000  Uiso   1.00
O393   O     0.16666   0.53960   0.18513   0.00000  Uiso   1.00
O394   O     0.16668   0.46040   0.31487   0.00000  Uiso   1.00
O395   O     0.16668   0.53960   0.31487   0.00000  Uiso   1.00
O396   O     0.16666   0.46040   0.18513   0.00000  Uiso   1.00
C397   C     0.05346   0.53670   0.44695   0.00000  Uiso   1.00
C398   C     0.03149   0.49249   0.43117   0.00000  Uiso   1.00
C399   C     0.32822   0.50365   0.39849   0.00000  Uiso   1.00
H400   H     0.30645   0.52783   0.41384   0.00000  Uiso   1.00
H401   H     0.00561   0.51946   0.36723   0.00000  Uiso   1.00
H402   H     0.31180   0.47120   0.38968   0.00000  Uiso   1.00
H403   H     0.05302   0.46918   0.41444   0.00000  Uiso   1.00
H404   H     0.02043   0.47356   0.46075   0.00000  Uiso   1.00
H405   H     0.03274   0.55589   0.46877   0.00000  Uiso   1.00
H406   H     0.05856   0.56066   0.41846   0.00000  Uiso   1.00
C407   C     0.28005   0.46196   0.05326   0.00000  Uiso   1.00
C408   C     0.30297   0.50451   0.07169   0.00000  Uiso   1.00
C409   C     0.00664   0.49025   0.10267   0.00000  Uiso   1.00
H410   H     0.32976   0.47055   0.13218   0.00000  Uiso   1.00
H411   H     0.02839   0.46849   0.08447   0.00000  Uiso   1.00
H412   H     0.02296   0.52169   0.11476   0.00000  Uiso   1.00
H413   H     0.31378   0.52551   0.04327   0.00000  Uiso   1.00
H414   H     0.28219   0.52672   0.09062   0.00000  Uiso   1.00
H415   H     0.27395   0.43678   0.08046   0.00000  Uiso   1.00
H416   H     0.30063   0.44336   0.03085   0.00000  Uiso   1.00
N417   N     0.04543   0.41784   0.28122   0.00000  Uiso   1.00
H418   H     0.03412   0.38660   0.27006   0.00000  Uiso   1.00
C419   C     0.05810   0.41682   0.32837   0.00000  Uiso   1.00
H420   H     0.03073   0.41444   0.34882   0.00000  Uiso   1.00
H421   H     0.07571   0.44839   0.33754   0.00000  Uiso   1.00
H422   H     0.07834   0.38615   0.33589   0.00000  Uiso   1.00
N423   N     0.29108   0.58177   0.22647   0.00000  Uiso   1.00
H424   H     0.30359   0.61286   0.23646   0.00000  Uiso   1.00
C425   C     0.28185   0.58116   0.17857   0.00000  Uiso   1.00
H426   H     0.31082   0.58121   0.16061   0.00000  Uiso   1.00
H427   H     0.26337   0.61246   0.16818   0.00000  Uiso   1.00
H428   H     0.26369   0.55009   0.16900   0.00000  Uiso   1.00
N429   N     0.29272   0.41403   0.26301   0.00000  Uiso   1.00
H430   H     0.30225   0.39314   0.28995   0.00000  Uiso   1.00
C431   C     0.28751   0.38944   0.22115   0.00000  Uiso   1.00
H432   H     0.31760   0.37635   0.21057   0.00000  Uiso   1.00
H433   H     0.27336   0.41253   0.19434   0.00000  Uiso   1.00
H434   H     0.26677   0.35963   0.22543   0.00000  Uiso   1.00
N435   N     0.03804   0.58689   0.26424   0.00000  Uiso   1.00
H436   H     0.05884   0.59865   0.24253   0.00000  Uiso   1.00
C437   C     0.04823   0.59637   0.31089   0.00000  Uiso   1.00
H438   H     0.02046   0.59306   0.33055   0.00000  Uiso   1.00
H439   H     0.05956   0.63241   0.31413   0.00000  Uiso   1.00
H440   H     0.07263   0.57214   0.32460   0.00000  Uiso   1.00
N441   N     0.13186   0.38332   0.17601   0.00000  Uiso   1.00
H442   H     0.14173   0.37176   0.14589   0.00000  Uiso   1.00
C443   C     0.08908   0.39792   0.17437   0.00000  Uiso   1.00
H444   H     0.08689   0.43598   0.16875   0.00000  Uiso   1.00
H445   H     0.07425   0.38859   0.20564   0.00000  Uiso   1.00
H446   H     0.07183   0.38146   0.14581   0.00000  Uiso   1.00
N447   N     0.21063   0.61509   0.31729   0.00000  Uiso   1.00
H448   H     0.19749   0.61218   0.34775   0.00000  Uiso   1.00
C449   C     0.25469   0.62202   0.32050   0.00000  Uiso   1.00
H450   H     0.26393   0.63932   0.35240   0.00000  Uiso   1.00
H451   H     0.26489   0.64369   0.29238   0.00000  Uiso   1.00
H452   H     0.27059   0.58782   0.32020   0.00000  Uiso   1.00
N453   N     0.20599   0.37906   0.32193   0.00000  Uiso   1.00
H454   H     0.22350   0.40789   0.31685   0.00000  Uiso   1.00
C455   C     0.18998   0.37160   0.36580   0.00000  Uiso   1.00
H456   H     0.17939   0.40463   0.37958   0.00000  Uiso   1.00
H457   H     0.21461   0.35690   0.38909   0.00000  Uiso   1.00
H458   H     0.16326   0.34789   0.36444   0.00000  Uiso   1.00
N459   N     0.13408   0.61905   0.17550   0.00000  Uiso   1.00
H460   H     0.15249   0.62377   0.14886   0.00000  Uiso   1.00
C461   C     0.09049   0.61849   0.16306   0.00000  Uiso   1.00
H462   H     0.07257   0.64068   0.18493   0.00000  Uiso   1.00
H463   H     0.07930   0.58236   0.16513   0.00000  Uiso   1.00
H464   H     0.08485   0.63117   0.12797   0.00000  Uiso   1.00
C465   C     0.42117   0.50028   0.25408   0.00000  Uiso   1.00
C466   C     0.57927   0.49965   0.24887   0.00000  Uiso   1.00
C467   C     0.42863   0.52573   0.01923   0.00000  Uiso   1.00
C468   C     0.57237   0.47640   0.48094   0.00000  Uiso   1.00
C469   C     0.35622   0.45855   0.26646   0.00000  Uiso   1.00
C470   C     0.64526   0.54104   0.24412   0.00000  Uiso   1.00
C471   C     0.64667   0.45722   0.25970   0.00000  Uiso   1.00
C472   C     0.35384   0.54271   0.25532   0.00000  Uiso   1.00
C473   C     0.62433   0.49884   0.24921   0.00000  Uiso   1.00
C474   C     0.37674   0.50083   0.25994   0.00000  Uiso   1.00
C475   C     0.48122   0.35878   0.21493   0.00000  Uiso   1.00
C476   C     0.52039   0.64077   0.28371   0.00000  Uiso   1.00
C477   C     0.51910   0.35694   0.28476   0.00000  Uiso   1.00
C478   C     0.48124   0.64253   0.21498   0.00000  Uiso   1.00
C479   C     0.49982   0.50028   0.16461   0.00000  Uiso   1.00
C480   C     0.50042   0.49982   0.33543   0.00000  Uiso   1.00
C481   C     0.53628   0.48848   0.40893   0.00000  Uiso   1.00
C482   C     0.46486   0.51423   0.09120   0.00000  Uiso   1.00
C483   C     0.50034   0.49976   0.38360   0.00000  Uiso   1.00
C484   C     0.50022   0.50091   0.11653   0.00000  Uiso   1.00
C485   C     0.46438   0.51190   0.40390   0.00000  Uiso   1.00
C486   C     0.53598   0.48782   0.09630   0.00000  Uiso   1.00
C487   C     0.46355   0.51271   0.45072   0.00000  Uiso   1.00
C488   C     0.53717   0.48825   0.04947   0.00000  Uiso   1.00
C489   C     0.50023   0.50088   0.47662   0.00000  Uiso   1.00
C490   C     0.50074   0.50107   0.02355   0.00000  Uiso   1.00
C491   C     0.53645   0.48858   0.45549   0.00000  Uiso   1.00
C492   C     0.46465   0.51389   0.04466   0.00000  Uiso   1.00
C493   C     0.42733   0.52495   0.47238   0.00000  Uiso   1.00
C494   C     0.57338   0.47594   0.02782   0.00000  Uiso   1.00
Cu495  Cu    0.50000   0.54689   0.25000   0.00000  Uiso   1.00
Cu496  Cu    0.50000   0.45311   0.25000   0.00000  Uiso   1.00
H497   H     0.56389   0.47932   0.39220   0.00000  Uiso   1.00
H498   H     0.43737   0.52396   0.10787   0.00000  Uiso   1.00
H499   H     0.43737   0.52017   0.38253   0.00000  Uiso   1.00
H500   H     0.56257   0.47792   0.11775   0.00000  Uiso   1.00
H501   H     0.40114   0.53503   0.03609   0.00000  Uiso   1.00
H502   H     0.59985   0.46709   0.46409   0.00000  Uiso   1.00
N503   N     0.50000   0.61736   0.25000   0.00000  Uiso   1.00
N504   N     0.50000   0.38264   0.25000   0.00000  Uiso   1.00
O505   O     0.43988   0.53958   0.25000   0.00000  Uiso   1.00
O506   O     0.56012   0.46042   0.25001   0.00000  Uiso   1.00
O507   O     0.56012   0.53958   0.25001   0.00000  Uiso   1.00
O508   O     0.43988   0.46042   0.25000   0.00000  Uiso   1.00
O509   O     0.49999   0.53960   0.18513   0.00000  Uiso   1.00
O510   O     0.50001   0.46040   0.31487   0.00000  Uiso   1.00
O511   O     0.50001   0.53960   0.31487   0.00000  Uiso   1.00
O512   O     0.49999   0.46040   0.18513   0.00000  Uiso   1.00
C513   C     0.38679   0.53670   0.44695   0.00000  Uiso   1.00
C514   C     0.36482   0.49249   0.43117   0.00000  Uiso   1.00
C515   C     0.66156   0.50365   0.39849   0.00000  Uiso   1.00
H516   H     0.63978   0.52783   0.41384   0.00000  Uiso   1.00
H517   H     0.33895   0.51946   0.36723   0.00000  Uiso   1.00
H518   H     0.64514   0.47120   0.38968   0.00000  Uiso   1.00
H519   H     0.38635   0.46918   0.41444   0.00000  Uiso   1.00
H520   H     0.35376   0.47356   0.46075   0.00000  Uiso   1.00
H521   H     0.36607   0.55589   0.46877   0.00000  Uiso   1.00
H522   H     0.39190   0.56066   0.41846   0.00000  Uiso   1.00
C523   C     0.61338   0.46196   0.05326   0.00000  Uiso   1.00
C524   C     0.63630   0.50451   0.07169   0.00000  Uiso   1.00
C525   C     0.33997   0.49025   0.10267   0.00000  Uiso   1.00
H526   H     0.66310   0.47055   0.13218   0.00000  Uiso   1.00
H527   H     0.36172   0.46849   0.08447   0.00000  Uiso   1.00
H528   H     0.35629   0.52169   0.11476   0.00000  Uiso   1.00
H529   H     0.64711   0.52551   0.04327   0.00000  Uiso   1.00
H530   H     0.61552   0.52672   0.09062   0.00000  Uiso   1.00
H531   H     0.60729   0.43678   0.08046   0.00000  Uiso   1.00
H532   H     0.63396   0.44336   0.03085   0.00000  Uiso   1.00
N533   N     0.37877   0.41784   0.28122   0.00000  Uiso   1.00
H534   H     0.36746   0.38660   0.27006   0.00000  Uiso   1.00
C535   C     0.39143   0.41682   0.32837   0.00000  Uiso   1.00
H536   H     0.36407   0.41444   0.34882   0.00000  Uiso   1.00
H537   H     0.40904   0.44839   0.33754   0.00000  Uiso   1.00
H538   H     0.41167   0.38615   0.33589   0.00000  Uiso   1.00
N539   N     0.62441   0.58177   0.22647   0.00000  Uiso   1.00
H540   H     0.63693   0.61286   0.23646   0.00000  Uiso   1.00
C541   C     0.61518   0.58116   0.17857   0.00000  Uiso   1.00
H542   H     0.64416   0.58121   0.16061   0.00000  Uiso   1.00
H543   H     0.59671   0.61246   0.16818   0.00000  Uiso   1.00
H544   H     0.59703   0.55009   0.16900   0.00000  Uiso   1.00
N545   N     0.62605   0.41403   0.26301   0.00000  Uiso   1.00
H546   H     0.63559   0.39314   0.28995   0.00000  Uiso   1.00
C547   C     0.62084   0.38944   0.22115   0.00000  Uiso   1.00
H548   H     0.65094   0.37635   0.21057   0.00000  Uiso   1.00
H549   H     0.60669   0.41253   0.19434   0.00000  Uiso   1.00
H550   H     0.60011   0.35963   0.22543   0.00000  Uiso   1.00
N551   N     0.37138   0.58689   0.26424   0.00000  Uiso   1.00
H552   H     0.39218   0.59865   0.24253   0.00000  Uiso   1.00
C553   C     0.38156   0.59637   0.31089   0.00000  Uiso   1.00
H554   H     0.35379   0.59306   0.33055   0.00000  Uiso   1.00
H555   H     0.39289   0.63241   0.31413   0.00000  Uiso   1.00
H556   H     0.40596   0.57214   0.32460   0.00000  Uiso   1.00
N557   N     0.46519   0.38332   0.17601   0.00000  Uiso   1.00
H558   H     0.47506   0.37176   0.14589   0.00000  Uiso   1.00
C559   C     0.42241   0.39792   0.17437   0.00000  Uiso   1.00
H560   H     0.42023   0.43598   0.16875   0.00000  Uiso   1.00
H561   H     0.40758   0.38859   0.20564   0.00000  Uiso   1.00
H562   H     0.40517   0.38146   0.14581   0.00000  Uiso   1.00
N563   N     0.54396   0.61509   0.31729   0.00000  Uiso   1.00
H564   H     0.53082   0.61218   0.34775   0.00000  Uiso   1.00
C565   C     0.58803   0.62202   0.32050   0.00000  Uiso   1.00
H566   H     0.59726   0.63932   0.35240   0.00000  Uiso   1.00
H567   H     0.59822   0.64369   0.29238   0.00000  Uiso   1.00
H568   H     0.60393   0.58782   0.32020   0.00000  Uiso   1.00
N569   N     0.53932   0.37906   0.32193   0.00000  Uiso   1.00
H570   H     0.55684   0.40789   0.31685   0.00000  Uiso   1.00
C571   C     0.52331   0.37160   0.36580   0.00000  Uiso   1.00
H572   H     0.51273   0.40463   0.37958   0.00000  Uiso   1.00
H573   H     0.54795   0.35690   0.38909   0.00000  Uiso   1.00
H574   H     0.49660   0.34789   0.36444   0.00000  Uiso   1.00
N575   N     0.46742   0.61905   0.17550   0.00000  Uiso   1.00
H576   H     0.48582   0.62377   0.14886   0.00000  Uiso   1.00
C577   C     0.42382   0.61849   0.16306   0.00000  Uiso   1.00
H578   H     0.40590   0.64068   0.18493   0.00000  Uiso   1.00
H579   H     0.41264   0.58236   0.16513   0.00000  Uiso   1.00
H580   H     0.41819   0.63117   0.12797   0.00000  Uiso   1.00
C581   C     0.75450   0.50028   0.25408   0.00000  Uiso   1.00
C582   C     0.91260   0.49965   0.24887   0.00000  Uiso   1.00
C583   C     0.76197   0.52573   0.01923   0.00000  Uiso   1.00
C584   C     0.90571   0.47640   0.48094   0.00000  Uiso   1.00
C585   C     0.68956   0.45855   0.26646   0.00000  Uiso   1.00
C586   C     0.97859   0.54104   0.24412   0.00000  Uiso   1.00
C587   C     0.98001   0.45722   0.25970   0.00000  Uiso   1.00
C588   C     0.68718   0.54271   0.25532   0.00000  Uiso   1.00
C589   C     0.95766   0.49884   0.24921   0.00000  Uiso   1.00
C590   C     0.71007   0.50083   0.25994   0.00000  Uiso   1.00
C591   C     0.81455   0.35878   0.21493   0.00000  Uiso   1.00
C592   C     0.85372   0.64077   0.28371   0.00000  Uiso   1.00
C593   C     0.85244   0.35694   0.28476   0.00000  Uiso   1.00
C594   C     0.81457   0.64253   0.21498   0.00000  Uiso   1.00
C595   C     0.83315   0.50028   0.16461   0.00000  Uiso   1.00
C596   C     0.83375   0.49982   0.33543   0.00000  Uiso   1.00
C597   C     0.86961   0.48848   0.40893   0.00000  Uiso   1.00
C598   C     0.79819   0.51423   0.09120   0.00000  Uiso   1.00
C599   C     0.83367   0.49976   0.38360   0.00000  Uiso   1.00
C600   C     0.83356   0.50091   0.11653   0.00000  Uiso   1.00
C601   C     0.79772   0.51190   0.40390   0.00000  Uiso   1.00
C602   C     0.86931   0.48782   0.09630   0.00000  Uiso   1.00
C603   C     0.79689   0.51271   0.45072   0.00000  Uiso   1.00
C604   C     0.87050   0.48825   0.04947   0.00000  Uiso   1.00
C605   C     0.83357   0.50088   0.47662   0.00000  Uiso   1.00
C606   C     0.83408   0.50107   0.02355   0.00000  Uiso   1.00
C607   C     0.86978   0.48858   0.45549   0.00000  Uiso   1.00
C608   C     0.79798   0.51389   0.04466   0.00000  Uiso   1.00
C609   C     0.76066   0.52495   0.47238   0.00000  Uiso   1.00
C610   C     0.90671   0.47594   0.02782   0.00000  Uiso   1.00
Cu611  Cu    0.83333   0.54689   0.25000   0.00000  Uiso   1.00
Cu612  Cu    0.83333   0.45311   0.25000   0.00000  Uiso   1.00
H613   H     0.89723   0.47932   0.39220   0.00000  Uiso   1.00
H614   H     0.77070   0.52396   0.10787   0.00000  Uiso   1.00
H615   H     0.77070   0.52017   0.38253   0.00000  Uiso   1.00
H616   H     0.89590   0.47792   0.11775   0.00000  Uiso   1.00
H617   H     0.73447   0.53503   0.03609   0.00000  Uiso   1.00
H618   H     0.93319   0.46709   0.46409   0.00000  Uiso   1.00
N619   N     0.83333   0.61736   0.25000   0.00000  Uiso   1.00
N620   N     0.83333   0.38264   0.25000   0.00000  Uiso   1.00
O621   O     0.77321   0.53958   0.25000   0.00000  Uiso   1.00
O622   O     0.89345   0.46042   0.25001   0.00000  Uiso   1.00
O623   O     0.89345   0.53958   0.25001   0.00000  Uiso   1.00
O624   O     0.77321   0.46042   0.25000   0.00000  Uiso   1.00
O625   O     0.83332   0.53960   0.18513   0.00000  Uiso   1.00
O626   O     0.83334   0.46040   0.31487   0.00000  Uiso   1.00
O627   O     0.83334   0.53960   0.31487   0.00000  Uiso   1.00
O628   O     0.83332   0.46040   0.18513   0.00000  Uiso   1.00
C629   C     0.72012   0.53670   0.44695   0.00000  Uiso   1.00
C630   C     0.69815   0.49249   0.43117   0.00000  Uiso   1.00
C631   C     0.99489   0.50365   0.39849   0.00000  Uiso   1.00
H632   H     0.97311   0.52783   0.41384   0.00000  Uiso   1.00
H633   H     0.67228   0.51946   0.36723   0.00000  Uiso   1.00
H634   H     0.97847   0.47120   0.38968   0.00000  Uiso   1.00
H635   H     0.71968   0.46918   0.41444   0.00000  Uiso   1.00
H636   H     0.68710   0.47356   0.46075   0.00000  Uiso   1.00
H637   H     0.69940   0.55589   0.46877   0.00000  Uiso   1.00
H638   H     0.72523   0.56066   0.41846   0.00000  Uiso   1.00
C639   C     0.94672   0.46196   0.05326   0.00000  Uiso   1.00
C640   C     0.96963   0.50451   0.07169   0.00000  Uiso   1.00
C641   C     0.67331   0.49025   0.10267   0.00000  Uiso   1.00
H642   H     0.99643   0.47055   0.13218   0.00000  Uiso   1.00
H643   H     0.69505   0.46849   0.08447   0.00000  Uiso   1.00
H644   H     0.68962   0.52169   0.11476   0.00000  Uiso   1.00
H645   H     0.98045   0.52551   0.04327   0.00000  Uiso   1.00
H646   H     0.94885   0.52672   0.09062   0.00000  Uiso   1.00
H647   H     0.94062   0.43678   0.08046   0.00000  Uiso   1.00
H648   H     0.96729   0.44336   0.03085   0.00000  Uiso   1.00
N649   N     0.71210   0.41784   0.28122   0.00000  Uiso   1.00
H650   H     0.70079   0.38660   0.27006   0.00000  Uiso   1.00
C651   C     0.72477   0.41682   0.32837   0.00000  Uiso   1.00
H652   H     0.69740   0.41444   0.34882   0.00000  Uiso   1.00
H653   H     0.74238   0.44839   0.33754   0.00000  Uiso   1.00
H654   H     0.74500   0.38615   0.33589   0.00000  Uiso   1.00
N655   N     0.95775   0.58177   0.22647   0.00000  Uiso   1.00
H656   H     0.97026   0.61286   0.23646   0.00000  Uiso   1.00
C657   C     0.94852   0.58116   0.17857   0.00000  Uiso   1.00
H658   H     0.97749   0.58121   0.16061   0.00000  Uiso   1.00
H659   H     0.93004   0.61246   0.16818   0.00000  Uiso   1.00
H660   H     0.93036   0.55009   0.16900   0.00000  Uiso   1.00
N661   N     0.95939   0.41403   0.26301   0.00000  Uiso   1.00
H662   H     0.96892   0.39314   0.28995   0.00000  Uiso   1.00
C663   C     0.95418   0.38944   0.22115   0.00000  Uiso   1.00
H664   H     0.98427   0.37635   0.21057   0.00000  Uiso   1.00
H665   H     0.94003   0.41253   0.19434   0.00000  Uiso   1.00
H666   H     0.93344   0.35963   0.22543   0.00000  Uiso   1.00
N667   N     0.70471   0.58689   0.26424   0.00000  Uiso   1.00
H668   H     0.72551   0.59865   0.24253   0.00000  Uiso   1.00
C669   C     0.71490   0.59637   0.31089   0.00000  Uiso   1.00
H670   H     0.68712   0.59306   0.33055   0.00000  Uiso   1.00
H671   H     0.72622   0.63241   0.31413   0.00000  Uiso   1.00
H672   H     0.73930   0.57214   0.32460   0.00000  Uiso   1.00
N673   N     0.79853   0.38332   0.17601   0.00000  Uiso   1.00
H674   H     0.80840   0.37176   0.14589   0.00000  Uiso   1.00
C675   C     0.75575   0.39792   0.17437   0.00000  Uiso   1.00
H676   H     0.75356   0.43598   0.16875   0.00000  Uiso   1.00
H677   H     0.74091   0.38859   0.20564   0.00000  Uiso   1.00
H678   H     0.73850   0.38146   0.14581   0.00000  Uiso   1.00
N679   N     0.87730   0.61509   0.31729   0.00000  Uiso   1.00
H680   H     0.86415   0.61218   0.34775   0.00000  Uiso   1.00
C681   C     0.92136   0.62202   0.32050   0.00000  Uiso   1.00
H682   H     0.93060   0.63932   0.35240   0.00000  Uiso   1.00
H683   H     0.93156   0.64369   0.29238   0.00000  Uiso   1.00
H684   H     0.93726   0.58782   0.32020   0.00000  Uiso   1.00
N685   N     0.87266   0.37906   0.32193   0.00000  Uiso   1.00
H686   H     0.89017   0.40789   0.31685   0.00000  Uiso   1.00
C687   C     0.85665   0.37160   0.36580   0.00000  Uiso   1.00
H688   H     0.84606   0.40463   0.37958   0.00000  Uiso   1.00
H689   H     0.88128   0.35690   0.38909   0.00000  Uiso   1.00
H690   H     0.82993   0.34789   0.36444   0.00000  Uiso   1.00
N691   N     0.80075   0.61905   0.17550   0.00000  Uiso   1.00
H692   H     0.81916   0.62377   0.14886   0.00000  Uiso   1.00
C693   C     0.75715   0.61849   0.16306   0.00000  Uiso   1.00
H694   H     0.73924   0.64068   0.18493   0.00000  Uiso   1.00
H695   H     0.74597   0.58236   0.16513   0.00000  Uiso   1.00
H696   H     0.75152   0.63117   0.12797   0.00000  Uiso   1.00
C697   C     0.08784   0.83361   0.25408   0.00000  Uiso   1.00
C698   C     0.24594   0.83299   0.24887   0.00000  Uiso   1.00
C699   C     0.09530   0.85907   0.01923   0.00000  Uiso   1.00
C700   C     0.23904   0.80973   0.48094   0.00000  Uiso   1.00
C701   C     0.02289   0.79189   0.26646   0.00000  Uiso   1.00
C702   C     0.31192   0.87437   0.24412   0.00000  Uiso   1.00
C703   C     0.31334   0.79055   0.25970   0.00000  Uiso   1.00
C704   C     0.02051   0.87604   0.25532   0.00000  Uiso   1.00
C705   C     0.29100   0.83218   0.24921   0.00000  Uiso   1.00
C706   C     0.04341   0.83416   0.25994   0.00000  Uiso   1.00
C707   C     0.14788   0.69211   0.21493   0.00000  Uiso   1.00
C708   C     0.18706   0.97410   0.28371   0.00000  Uiso   1.00
C709   C     0.18577   0.69027   0.28476   0.00000  Uiso   1.00
C710   C     0.14791   0.97586   0.21498   0.00000  Uiso   1.00
C711   C     0.16648   0.83361   0.16461   0.00000  Uiso   1.00
C712   C     0.16709   0.83315   0.33543   0.00000  Uiso   1.00
C713   C     0.20294   0.82181   0.40893   0.00000  Uiso   1.00
C714   C     0.13152   0.84756   0.09120   0.00000  Uiso   1.00
C715   C     0.16700   0.83309   0.38360   0.00000  Uiso   1.00
C716   C     0.16689   0.83424   0.11653   0.00000  Uiso   1.00
C717   C     0.13105   0.84524   0.40390   0.00000  Uiso   1.00
C718   C     0.20264   0.82115   0.09630   0.00000  Uiso   1.00
C719   C     0.13022   0.84605   0.45072   0.00000  Uiso   1.00
C720   C     0.20384   0.82159   0.04947   0.00000  Uiso   1.00
C721   C     0.16690   0.83421   0.47662   0.00000  Uiso   1.00
C722   C     0.16741   0.83441   0.02355   0.00000  Uiso   1.00
C723   C     0.20312   0.82192   0.45549   0.00000  Uiso   1.00
C724   C     0.13131   0.84722   0.04466   0.00000  Uiso   1.00
C725   C     0.09400   0.85828   0.47238   0.00000  Uiso   1.00
C726   C     0.24005   0.80928   0.02782   0.00000  Uiso   1.00
Cu727  Cu    0.16667   0.88022   0.25000   0.00000  Uiso   1.00
Cu728  Cu    0.16667   0.78645   0.25000   0.00000  Uiso   1.00
H729   H     0.23056   0.81266   0.39220   0.00000  Uiso   1.00
H730   H     0.10404   0.85729   0.10787   0.00000  Uiso   1.00
H731   H     0.10403   0.85350   0.38253   0.00000  Uiso   1.00
H732   H     0.22924   0.81125   0.11775   0.00000  Uiso   1.00
H733   H     0.06781   0.86837   0.03609   0.00000  Uiso   1.00
H734   H     0.26652   0.80042   0.46409   0.00000  Uiso   1.00
N735   N     0.16667   0.95069   0.25000   0.00000  Uiso   1.00
N736   N     0.16667   0.71598   0.25000   0.00000  Uiso   1.00
O737   O     0.10655   0.87291   0.25000   0.00000  Uiso   1.00
O738   O     0.22679   0.79375   0.25001   0.00000  Uiso   1.00
O739   O     0.22679   0.87291   0.25001   0.00000  Uiso   1.00
O740   O     0.10655   0.79375   0.25000   0.00000  Uiso   1.00
O741   O     0.16666   0.87293   0.18513   0.00000  Uiso   1.00
O742   O     0.16668   0.79373   0.31487   0.00000  Uiso   1.00
O743   O     0.16668   0.87293   0.31487   0.00000  Uiso   1.00
O744   O     0.16666   0.79373   0.18513   0.00000  Uiso   1.00
C745   C     0.05346   0.87003   0.44695   0.00000  Uiso   1.00
C746   C     0.03149   0.82583   0.43117   0.00000  Uiso   1.00
C747   C     0.32822   0.83698   0.39849   0.00000  Uiso   1.00
H748   H     0.30645   0.86116   0.41384   0.00000  Uiso   1.00
H749   H     0.00561   0.85279   0.36723   0.00000  Uiso   1.00
H750   H     0.31180   0.80453   0.38968   0.00000  Uiso   1.00
H751   H     0.05302   0.80252   0.41444   0.00000  Uiso   1.00
H752   H     0.02043   0.80689   0.46075   0.00000  Uiso   1.00
H753   H     0.03274   0.88922   0.46877   0.00000  Uiso   1.00
H754   H     0.05856   0.89399   0.41846   0.00000  Uiso   1.00
C755   C     0.28005   0.79530   0.05326   0.00000  Uiso   1.00
C756   C     0.30297   0.83784   0.07169   0.00000  Uiso   1.00
C757   C     0.00664   0.82358   0.10267   0.00000  Uiso   1.00
H758   H     0.32976   0.80388   0.13218   0.00000  Uiso   1.00
H759   H     0.02839   0.80182   0.08447   0.00000  Uiso   1.00
H760   H     0.02296   0.85503   0.11476   0.00000  Uiso   1.00
H761   H     0.31378   0.85884   0.04327   0.00000  Uiso   1.00
H762   H     0.28219   0.86005   0.09062   0.00000  Uiso   1.00
H763   H     0.27395   0.77011   0.08046   0.00000  Uiso   1.00
H764   H     0.30063   0.77669   0.03085   0.00000  Uiso   1.00
N765   N     0.04543   0.75117   0.28122   0.00000  Uiso   1.00
H766   H     0.03412   0.71994   0.27006   0.00000  Uiso   1.00
C767   C     0.05810   0.75015   0.32837   0.00000  Uiso   1.00
H768   H     0.03073   0.74777   0.34882   0.00000  Uiso   1.00
H769   H     0.07571   0.78173   0.33754   0.00000  Uiso   1.00
H770   H     0.07834   0.71948   0.33589   0.00000  Uiso   1.00
N771   N     0.29108   0.91511   0.22647   0.00000  Uiso   1.00
H772   H     0.30359   0.94620   0.23646   0.00000  Uiso   1.00
C773   C     0.28185   0.91449   0.17857   0.00000  Uiso   1.00
H774   H     0.31082   0.91455   0.16061   0.00000  Uiso   1.00
H775   H     0.26337   0.94580   0.16818   0.00000  Uiso   1.00
H776   H     0.26369   0.88342   0.16900   0.00000  Uiso   1.00
N777   N     0.29272   0.74736   0.26301   0.00000  Uiso   1.00
H778   H     0.30225   0.72648   0.28995   0.00000  Uiso   1.00
C779   C     0.28751   0.72278   0.22115   0.00000  Uiso   1.00
H780   H     0.31760   0.70968   0.21057   0.00000  Uiso   1.00
H781   H     0.27336   0.74586   0.19434   0.00000  Uiso   1.00
H782   H     0.26677   0.69297   0.22543   0.00000  Uiso   1.00
N783   N     0.03804   0.92023   0.26424   0.00000  Uiso   1.00
H784   H     0.05884   0.93198   0.24253   0.00000  Uiso   1.00
C785   C     0.04823   0.92970   0.31089   0.00000  Uiso   1.00
H786   H     0.02046   0.92639   0.33055   0.00000  Uiso   1.00
H787   H     0.05956   0.96574   0.31413   0.00000  Uiso   1.00
H788   H     0.07263   0.90547   0.32460   0.00000  Uiso   1.00
N789   N     0.13186   0.71666   0.17601   0.00000  Uiso   1.00
H790   H     0.14173   0.70510   0.14589   0.00000  Uiso   1.00
C791   C     0.08908   0.73125   0.17437   0.00000  Uiso   1.00
H792   H     0.08689   0.76931   0.16875   0.00000  Uiso   1.00
H793   H     0.07425   0.72193   0.20564   0.00000  Uiso   1.00
H794   H     0.07183   0.71479   0.14581   0.00000  Uiso   1.00
N795   N     0.21063   0.94842   0.31729   0.00000  Uiso   1.00
H796   H     0.19749   0.94552   0.34775   0.00000  Uiso   1.00
C797   C     0.25469   0.95535   0.32050   0.00000  Uiso   1.00
H798   H     0.26393   0.97265   0.35240   0.00000  Uiso   1.00
H799   H     0.26489   0.97702   0.29238   0.00000  Uiso   1.00
H800   H     0.27059   0.92116   0.32020   0.00000  Uiso   1.00
N801   N     0.20599   0.71239   0.32193   0.00000  Uiso   1.00
H802   H     0.22350   0.74122   0.31685   0.00000  Uiso   1.00
C803   C     0.18998   0.70493   0.36580   0.00000  Uiso   1.00
H804   H     0.17939   0.73797   0.37958   0.00000  Uiso   1.00
H805   H     0.21461   0.69023   0.38909   0.00000  Uiso   1.00
H806   H     0.16326   0.68122   0.36444   0.00000  Uiso   1.00
N807   N     0.13408   0.95238   0.17550   0.00000  Uiso   1.00
H808   H     0.15249   0.95710   0.14886   0.00000  Uiso   1.00
C809   C     0.09049   0.95182   0.16306   0.00000  Uiso   1.00
H810   H     0.07257   0.97401   0.18493   0.00000  Uiso   1.00
H811   H     0.07930   0.91570   0.16513   0.00000  Uiso   1.00
H812   H     0.08485   0.96451   0.12797   0.00000  Uiso   1.00
C813   C     0.42117   0.83361   0.25408   0.00000  Uiso   1.00
C814   C     0.57927   0.83299   0.24887   0.00000  Uiso   1.00
C815   C     0.42863   0.85907   0.01923   0.00000  Uiso   1.00
C816   C     0.57237   0.80973   0.48094   0.00000  Uiso   1.00
C817   C     0.35622   0.79189   0.26646   0.00000  Uiso   1.00
C818   C     0.64526   0.87437   0.24412   0.00000  Uiso   1.00
C819   C     0.64667   0.79055   0.25970   0.00000  Uiso   1.00
C820   C     0.35384   0.87604   0.25532   0.00000  Uiso   1.00
C821   C     0.62433   0.83218   0.24921   0.00000  Uiso   1.00
C822   C     0.37674   0.83416   0.25994   0.00000  Uiso   1.00
C823   C     0.48122   0.69211   0.21493   0.00000  Uiso   1.00
C824   C     0.52039   0.97410   0.28371   0.00000  Uiso   1.00
C825   C     0.51910   0.69027   0.28476   0.00000  Uiso   1.00
C826   C     0.48124   0.97586   0.21498   0.00000  Uiso   1.00
C827   C     0.49982   0.83361   0.16461   0.00000  Uiso   1.00
C828   C     0.50042   0.83315   0.33543   0.00000  Uiso   1.00
C829   C     0.53628   0.82181   0.40893   0.00000  Uiso   1.00
C830   C     0.46486   0.84756   0.09120   0.00000  Uiso   1.00
C831   C     0.50034   0.83309   0.38360   0.00000  Uiso   1.00
C832   C     0.50022   0.83424   0.11653   0.00000  Uiso   1.00
C833   C     0.46438   0.84524   0.40390   0.00000  Uiso   1.00
C834   C     0.53598   0.82115   0.09630   0.00000  Uiso   1.00
C835   C     0.46355   0.84605   0.45072   0.00000  Uiso   1.00
C836   C     0.53717   0.82159   0.04947   0.00000  Uiso   1.00
C837   C     0.50023   0.83421   0.47662   0.00000  Uiso   1.00
C838   C     0.50074   0.83441   0.02355   0.00000  Uiso   1.00
C839   C     0.53645   0.82192   0.45549   0.00000  Uiso   1.00
C840   C     0.46465   0.84722   0.04466   0.00000  Uiso   1.00
C841   C     0.42733   0.85828   0.47238   0.00000  Uiso   1.00
C842   C     0.57338   0.80928   0.02782   0.00000  Uiso   1.00
Cu843  Cu    0.50000   0.88022   0.25000   0.00000  Uiso   1.00
Cu844  Cu    0.50000   0.78645   0.25000   0.00000  Uiso   1.00
H845   H     0.56389   0.81266   0.39220   0.00000  Uiso   1.00
H846   H     0.43737   0.85729   0.10787   0.00000  Uiso   1.00
H847   H     0.43737   0.85350   0.38253   0.00000  Uiso   1.00
H848   H     0.56257   0.81125   0.11775   0.00000  Uiso   1.00
H849   H     0.40114   0.86837   0.03609   0.00000  Uiso   1.00
H850   H     0.59985   0.80042   0.46409   0.00000  Uiso   1.00
N851   N     0.50000   0.95069   0.25000   0.00000  Uiso   1.00
N852   N     0.50000   0.71598   0.25000   0.00000  Uiso   1.00
O853   O     0.43988   0.87291   0.25000   0.00000  Uiso   1.00
O854   O     0.56012   0.79375   0.25001   0.00000  Uiso   1.00
O855   O     0.56012   0.87291   0.25001   0.00000  Uiso   1.00
O856   O     0.43988   0.79375   0.25000   0.00000  Uiso   1.00
O857   O     0.49999   0.87293   0.18513   0.00000  Uiso   1.00
O858   O     0.50001   0.79373   0.31487   0.00000  Uiso   1.00
O859   O     0.50001   0.87293   0.31487   0.00000  Uiso   1.00
O860   O     0.49999   0.79373   0.18513   0.00000  Uiso   1.00
C861   C     0.38679   0.87003   0.44695   0.00000  Uiso   1.00
C862   C     0.36482   0.82583   0.43117   0.00000  Uiso   1.00
C863   C     0.66156   0.83698   0.39849   0.00000  Uiso   1.00
H864   H     0.63978   0.86116   0.41384   0.00000  Uiso   1.00
H865   H     0.33895   0.85279   0.36723   0.00000  Uiso   1.00
H866   H     0.64514   0.80453   0.38968   0.00000  Uiso   1.00
H867   H     0.38635   0.80252   0.41444   0.00000  Uiso   1.00
H868   H     0.35376   0.80689   0.46075   0.00000  Uiso   1.00
H869   H     0.36607   0.88922   0.46877   0.00000  Uiso   1.00
H870   H     0.39190   0.89399   0.41846   0.00000  Uiso   1.00
C871   C     0.61338   0.79530   0.05326   0.00000  Uiso   1.00
C872   C     0.63630   0.83784   0.07169   0.00000  Uiso   1.00
C873   C     0.33997   0.82358   0.10267   0.00000  Uiso   1.00
H874   H     0.66310   0.80388   0.13218   0.00000  Uiso   1.00
H875   H     0.36172   0.80182   0.08447   0.00000  Uiso   1.00
H876   H     0.35629   0.85503   0.11476   0.00000  Uiso   1.00
H877   H     0.64711   0.85884   0.04327   0.00000  Uiso   1.00
H878   H     0.61552   0.86005   0.09062   0.00000  Uiso   1.00
H879   H     0.60729   0.77011   0.08046   0.00000  Uiso   1.00
H880   H     0.63396   0.77669   0.03085   0.00000  Uiso   1.00
N881   N     0.37877   0.75117   0.28122   0.00000  Uiso   1.00
H882   H     0.36746   0.71994   0.27006   0.00000  Uiso   1.00
C883   C     0.39143   0.75015   0.32837   0.00000  Uiso   1.00
H884   H     0.36407   0.74777   0.34882   0.00000  Uiso   1.00
H885   H     0.40904   0.78173   0.33754   0.00000  Uiso   1.00
H886   H     0.41167   0.71948   0.33589   0.00000  Uiso   1.00
N887   N     0.62441   0.91511   0.22647   0.00000  Uiso   1.00
H888   H     0.63693   0.94620   0.23646   0.00000  Uiso   1.00
C889   C     0.61518   0.91449   0.17857   0.00000  Uiso   1.00
H890   H     0.64416   0.91455   0.16061   0.00000  Uiso   1.00
H891   H     0.59671   0.94580   0.16818   0.00000  Uiso   1.00
H892   H     0.59703   0.88342   0.16900   0.00000  Uiso   1.00
N893   N     0.62605   0.74736   0.26301   0.00000  Uiso   1.00
H894   H     0.63559   0.72648   0.28995   0.00000  Uiso   1.00
C895   C     0.62084   0.72278   0.22115   0.00000  Uiso   1.00
H896   H     0.65094   0.70968   0.21057   0.00000  Uiso   1.00
H897   H     0.60669   0.74586   0.19434   0.00000  Uiso   1.00
H898   H     0.60011   0.69297   0.22543   0.00000  Uiso   1.00
N899   N     0.37138   0.92023   0.26424   0.00000  Uiso   1.00
H900   H     0.39218   0.93198   0.24253   0.00000  Uiso   1.00
C901   C     0.38156   0.92970   0.31089   0.00000  Uiso   1.00
H902   H     0.35379   0.92639   0.33055   0.00000  Uiso   1.00
H903   H     0.39289   0.96574   0.31413   0.00000  Uiso   1.00
H904   H     0.40596   0.90547   0.32460   0.00000  Uiso   1.00
N905   N     0.46519   0.71666   0.17601   0.00000  Uiso   1.00
H906   H     0.47506   0.70510   0.14589   0.00000  Uiso   1.00
C907   C     0.42241   0.73125   0.17437   0.00000  Uiso   1.00
H908   H     0.42023   0.76931   0.16875   0.00000  Uiso   1.00
H909   H     0.40758   0.72193   0.20564   0.00000  Uiso   1.00
H910   H     0.40517   0.71479   0.14581   0.00000  Uiso   1.00
N911   N     0.54396   0.94842   0.31729   0.00000  Uiso   1.00
H912   H     0.53082   0.94552   0.34775   0.00000  Uiso   1.00
C913   C     0.58803   0.95535   0.32050   0.00000  Uiso   1.00
H914   H     0.59726   0.97265   0.35240   0.00000  Uiso   1.00
H915   H     0.59822   0.97702   0.29238   0.00000  Uiso   1.00
H916   H     0.60393   0.92116   0.32020   0.00000  Uiso   1.00
N917   N     0.53932   0.71239   0.32193   0.00000  Uiso   1.00
H918   H     0.55684   0.74122   0.31685   0.00000  Uiso   1.00
C919   C     0.52331   0.70493   0.36580   0.00000  Uiso   1.00
H920   H     0.51273   0.73797   0.37958   0.00000  Uiso   1.00
H921   H     0.54795   0.69023   0.38909   0.00000  Uiso   1.00
H922   H     0.49660   0.68122   0.36444   0.00000  Uiso   1.00
N923   N     0.46742   0.95238   0.17550   0.00000  Uiso   1.00
H924   H     0.48582   0.95710   0.14886   0.00000  Uiso   1.00
C925   C     0.42382   0.95182   0.16306   0.00000  Uiso   1.00
H926   H     0.40590   0.97401   0.18493   0.00000  Uiso   1.00
H927   H     0.41264   0.91570   0.16513   0.00000  Uiso   1.00
H928   H     0.41819   0.96451   0.12797   0.00000  Uiso   1.00
C929   C     0.75450   0.83361   0.25408   0.00000  Uiso   1.00
C930   C     0.91260   0.83299   0.24887   0.00000  Uiso   1.00
C931   C     0.76197   0.85907   0.01923   0.00000  Uiso   1.00
C932   C     0.90571   0.80973   0.48094   0.00000  Uiso   1.00
C933   C     0.68956   0.79189   0.26646   0.00000  Uiso   1.00
C934   C     0.97859   0.87437   0.24412   0.00000  Uiso   1.00
C935   C     0.98001   0.79055   0.25970   0.00000  Uiso   1.00
C936   C     0.68718   0.87604   0.25532   0.00000  Uiso   1.00
C937   C     0.95766   0.83218   0.24921   0.00000  Uiso   1.00
C938   C     0.71007   0.83416   0.25994   0.00000  Uiso   1.00
C939   C     0.81455   0.69211   0.21493   0.00000  Uiso   1.00
C940   C     0.85372   0.97410   0.28371   0.00000  Uiso   1.00
C941   C     0.85244   0.69027   0.28476   0.00000  Uiso   1.00
C942   C     0.81457   0.97586   0.21498   0.00000  Uiso   1.00
C943   C     0.83315   0.83361   0.16461   0.00000  Uiso   1.00
C944   C     0.83375   0.83315   0.33543   0.00000  Uiso   1.00
C945   C     0.86961   0.82181   0.40893   0.00000  Uiso   1.00
C946   C     0.79819   0.84756   0.09120   0.00000  Uiso   1.00
C947   C     0.83367   0.83309   0.38360   0.00000  Uiso   1.00
C948   C     0.83356   0.83424   0.11653   0.00000  Uiso   1.00
C949   C     0.79772   0.84524   0.40390   0.00000  Uiso   1.00
C950   C     0.86931   0.82115   0.09630   0.00000  Uiso   1.00
C951   C     0.79689   0.84605   0.45072   0.00000  Uiso   1.00
C952   C     0.87050   0.82159   0.04947   0.00000  Uiso   1.00
C953   C     0.83357   0.83421   0.47662   0.00000  Uiso   1.00
C954   C     0.83408   0.83441   0.02355   0.00000  Uiso   1.00
C955   C     0.86978   0.82192   0.45549   0.00000  Uiso   1.00
C956   C     0.79798   0.84722   0.04466   0.00000  Uiso   1.00
C957   C     0.76066   0.85828   0.47238   0.00000  Uiso   1.00
C958   C     0.90671   0.80928   0.02782   0.00000  Uiso   1.00
Cu959  Cu    0.83333   0.88022   0.25000   0.00000  Uiso   1.00
Cu960  Cu    0.83333   0.78645   0.25000   0.00000  Uiso   1.00
H961   H     0.89723   0.81266   0.39220   0.00000  Uiso   1.00
H962   H     0.77070   0.85729   0.10787   0.00000  Uiso   1.00
H963   H     0.77070   0.85350   0.38253   0.00000  Uiso   1.00
H964   H     0.89590   0.81125   0.11775   0.00000  Uiso   1.00
H965   H     0.73447   0.86837   0.03609   0.00000  Uiso   1.00
H966   H     0.93319   0.80042   0.46409   0.00000  Uiso   1.00
N967   N     0.83333   0.95069   0.25000   0.00000  Uiso   1.00
N968   N     0.83333   0.71598   0.25000   0.00000  Uiso   1.00
O969   O     0.77321   0.87291   0.25000   0.00000  Uiso   1.00
O970   O     0.89345   0.79375   0.25001   0.00000  Uiso   1.00
O971   O     0.89345   0.87291   0.25001   0.00000  Uiso   1.00
O972   O     0.77321   0.79375   0.25000   0.00000  Uiso   1.00
O973   O     0.83332   0.87293   0.18513   0.00000  Uiso   1.00
O974   O     0.83334   0.79373   0.31487   0.00000  Uiso   1.00
O975   O     0.83334   0.87293   0.31487   0.00000  Uiso   1.00
O976   O     0.83332   0.79373   0.18513   0.00000  Uiso   1.00
C977   C     0.72012   0.87003   0.44695   0.00000  Uiso   1.00
C978   C     0.69815   0.82583   0.43117   0.00000  Uiso   1.00
C979   C     0.99489   0.83698   0.39849   0.00000  Uiso   1.00
H980   H     0.97311   0.86116   0.41384   0.00000  Uiso   1.00
H981   H     0.67228   0.85279   0.36723   0.00000  Uiso   1.00
H982   H     0.97847   0.80453   0.38968   0.00000  Uiso   1.00
H983   H     0.71968   0.80252   0.41444   0.00000  Uiso   1.00
H984   H     0.68710   0.80689   0.46075   0.00000  Uiso   1.00
H985   H     0.69940   0.88922   0.46877   0.00000  Uiso   1.00
H986   H     0.72523   0.89399   0.41846   0.00000  Uiso   1.00
C987   C     0.94672   0.79530   0.05326   0.00000  Uiso   1.00
C988   C     0.96963   0.83784   0.07169   0.00000  Uiso   1.00
C989   C     0.67331   0.82358   0.10267   0.00000  Uiso   1.00
H990   H     0.99643   0.80388   0.13218   0.00000  Uiso   1.00
H991   H     0.69505   0.80182   0.08447   0.00000  Uiso   1.00
H992   H     0.68962   0.85503   0.11476   0.00000  Uiso   1.00
H993   H     0.98045   0.85884   0.04327   0.00000  Uiso   1.00
H994   H     0.94885   0.86005   0.09062   0.00000  Uiso   1.00
H995   H     0.94062   0.77011   0.08046   0.00000  Uiso   1.00
H996   H     0.96729   0.77669   0.03085   0.00000  Uiso   1.00
N997   N     0.71210   0.75117   0.28122   0.00000  Uiso   1.00
H998   H     0.70079   0.71994   0.27006   0.00000  Uiso   1.00
C999   C     0.72477   0.75015   0.32837   0.00000  Uiso   1.00
H1000  H     0.69740   0.74777   0.34882   0.00000  Uiso   1.00
H1001  H     0.74238   0.78173   0.33754   0.00000  Uiso   1.00
H1002  H     0.74500   0.71948   0.33589   0.00000  Uiso   1.00
N1003  N     0.95775   0.91511   0.22647   0.00000  Uiso   1.00
H1004  H     0.97026   0.94620   0.23646   0.00000  Uiso   1.00
C1005  C     0.94852   0.91449   0.17857   0.00000  Uiso   1.00
H1006  H     0.97749   0.91455   0.16061   0.00000  Uiso   1.00
H1007  H     0.93004   0.94580   0.16818   0.00000  Uiso   1.00
H1008  H     0.93036   0.88342   0.16900   0.00000  Uiso   1.00
N1009  N     0.95939   0.74736   0.26301   0.00000  Uiso   1.00
H1010  H     0.96892   0.72648   0.28995   0.00000  Uiso   1.00
C1011  C     0.95418   0.72278   0.22115   0.00000  Uiso   1.00
H1012  H     0.98427   0.70968   0.21057   0.00000  Uiso   1.00
H1013  H     0.94003   0.74586   0.19434   0.00000  Uiso   1.00
H1014  H     0.93344   0.69297   0.22543   0.00000  Uiso   1.00
N1015  N     0.70471   0.92023   0.26424   0.00000  Uiso   1.00
H1016  H     0.72551   0.93198   0.24253   0.00000  Uiso   1.00
C1017  C     0.71490   0.92970   0.31089   0.00000  Uiso   1.00
H1018  H     0.68712   0.92639   0.33055   0.00000  Uiso   1.00
H1019  H     0.72622   0.96574   0.31413   0.00000  Uiso   1.00
H1020  H     0.73930   0.90547   0.32460   0.00000  Uiso   1.00
N1021  N     0.79853   0.71666   0.17601   0.00000  Uiso   1.00
H1022  H     0.80840   0.70510   0.14589   0.00000  Uiso   1.00
C1023  C     0.75575   0.73125   0.17437   0.00000  Uiso   1.00
H1024  H     0.75356   0.76931   0.16875   0.00000  Uiso   1.00
H1025  H     0.74091   0.72193   0.20564   0.00000  Uiso   1.00
H1026  H     0.73850   0.71479   0.14581   0.00000  Uiso   1.00
N1027  N     0.87730   0.94842   0.31729   0.00000  Uiso   1.00
H1028  H     0.86415   0.94552   0.34775   0.00000  Uiso   1.00
C1029  C     0.92136   0.95535   0.32050   0.00000  Uiso   1.00
H1030  H     0.93060   0.97265   0.35240   0.00000  Uiso   1.00
H1031  H     0.93156   0.97702   0.29238   0.00000  Uiso   1.00
H1032  H     0.93726   0.92116   0.32020   0.00000  Uiso   1.00
N1033  N     0.87266   0.71239   0.32193   0.00000  Uiso   1.00
H1034  H     0.89017   0.74122   0.31685   0.00000  Uiso   1.00
C1035  C     0.85665   0.70493   0.36580   0.00000  Uiso   1.00
H1036  H     0.84606   0.73797   0.37958   0.00000  Uiso   1.00
H1037  H     0.88128   0.69023   0.38909   0.00000  Uiso   1.00
H1038  H     0.82993   0.68122   0.36444   0.00000  Uiso   1.00
N1039  N     0.80075   0.95238   0.17550   0.00000  Uiso   1.00
H1040  H     0.81916   0.95710   0.14886   0.00000  Uiso   1.00
C1041  C     0.75715   0.95182   0.16306   0.00000  Uiso   1.00
H1042  H     0.73924   0.97401   0.18493   0.00000  Uiso   1.00
H1043  H     0.74597   0.91570   0.16513   0.00000  Uiso   1.00
H1044  H     0.75152   0.96451   0.12797   0.00000  Uiso   1.00
C1045  C     0.08784   0.16695   0.75408   0.00000  Uiso   1.00
C1046  C     0.24594   0.16632   0.74887   0.00000  Uiso   1.00
C1047  C     0.09530   0.19240   0.51923   0.00000  Uiso   1.00
C1048  C     0.23904   0.14307   0.98094   0.00000  Uiso   1.00
C1049  C     0.02289   0.12522   0.76646   0.00000  Uiso   1.00
C1050  C     0.31192   0.20770   0.74412   0.00000  Uiso   1.00
C1051  C     0.31334   0.12389   0.75970   0.00000  Uiso   1.00
C1052  C     0.02051   0.20938   0.75532   0.00000  Uiso   1.00
C1053  C     0.29100   0.16551   0.74921   0.00000  Uiso   1.00
C1054  C     0.04341   0.16749   0.75994   0.00000  Uiso   1.00
C1055  C     0.14788   0.02544   0.71493   0.00000  Uiso   1.00
C1056  C     0.18706   0.30744   0.78371   0.00000  Uiso   1.00
C1057  C     0.18577   0.02360   0.78476   0.00000  Uiso   1.00
C1058  C     0.14791   0.30919   0.71498   0.00000  Uiso   1.00
C1059  C     0.16648   0.16694   0.66461   0.00000  Uiso   1.00
C1060  C     0.16709   0.16648   0.83543   0.00000  Uiso   1.00
C1061  C     0.20294   0.15515   0.90893   0.00000  Uiso   1.00
C1062  C     0.13152   0.18089   0.59120   0.00000  Uiso   1.00
C1063  C     0.16700   0.16643   0.88360   0.00000  Uiso   1.00
C1064  C     0.16689   0.16757   0.61653   0.00000  Uiso   1.00
C1065  C     0.13105   0.17857   0.90390   0.00000  Uiso   1.00
C1066  C     0.20264   0.15448   0.59630   0.00000  Uiso   1.00
C1067  C     0.13022   0.17938   0.95072   0.00000  Uiso   1.00
C1068  C     0.20384   0.15492   0.54947   0.00000  Uiso   1.00
C1069  C     0.16690   0.16754   0.97662   0.00000  Uiso   1.00
C1070  C     0.16741   0.16774   0.52355   0.00000  Uiso   1.00
C1071  C     0.20312   0.15525   0.95549   0.00000  Uiso   1.00
C1072  C     0.13131   0.18055   0.54466   0.00000  Uiso   1.00
C1073  C     0.09400   0.19162   0.97238   0.00000  Uiso   1.00
C1074  C     0.24005   0.14261   0.52782   0.00000  Uiso   1.00
Cu1075 Cu    0.16667   0.21355   0.75000   0.00000  Uiso   1.00
Cu1076 Cu    0.16667   0.11978   0.75000   0.00000  Uiso   1.00
H1077  H     0.23056   0.14599   0.89220   0.00000  Uiso   1.00
H1078  H     0.10404   0.19063   0.60787   0.00000  Uiso   1.00
H1079  H     0.10403   0.18683   0.88253   0.00000  Uiso   1.00
H1080  H     0.22924   0.14458   0.61775   0.00000  Uiso   1.00
H1081  H     0.06781   0.20170   0.53609   0.00000  Uiso   1.00
H1082  H     0.26652   0.13375   0.96409   0.00000  Uiso   1.00
N1083  N     0.16667   0.28402   0.75000   0.00000  Uiso   1.00
N1084  N     0.16667   0.04931   0.75000   0.00000  Uiso   1.00
O1085  O     0.10655   0.20625   0.75000   0.00000  Uiso   1.00
O1086  O     0.22679   0.12709   0.75001   0.00000  Uiso   1.00
O1087  O     0.22679   0.20625   0.75001   0.00000  Uiso   1.00
O1088  O     0.10655   0.12709   0.75000   0.00000  Uiso   1.00
O1089  O     0.16666   0.20627   0.68513   0.00000  Uiso   1.00
O1090  O     0.16668   0.12707   0.81487   0.00000  Uiso   1.00
O1091  O     0.16668   0.20627   0.81487   0.00000  Uiso   1.00
O1092  O     0.16666   0.12707   0.68513   0.00000  Uiso   1.00
C1093  C     0.05346   0.20337   0.94695   0.00000  Uiso   1.00
C1094  C     0.03149   0.15916   0.93117   0.00000  Uiso   1.00
C1095  C     0.32822   0.17032   0.89849   0.00000  Uiso   1.00
H1096  H     0.30645   0.19449   0.91384   0.00000  Uiso   1.00
H1097  H     0.00561   0.18613   0.86723   0.00000  Uiso   1.00
H1098  H     0.31180   0.13786   0.88968   0.00000  Uiso   1.00
H1099  H     0.05302   0.13585   0.91444   0.00000  Uiso   1.00
H1100  H     0.02043   0.14023   0.96075   0.00000  Uiso   1.00
H1101  H     0.03274   0.22255   0.96877   0.00000  Uiso   1.00
H1102  H     0.05856   0.22732   0.91846   0.00000  Uiso   1.00
C1103  C     0.28005   0.12863   0.55326   0.00000  Uiso   1.00
C1104  C     0.30297   0.17118   0.57169   0.00000  Uiso   1.00
C1105  C     0.00664   0.15691   0.60267   0.00000  Uiso   1.00
H1106  H     0.32976   0.13722   0.63218   0.00000  Uiso   1.00
H1107  H     0.02839   0.13515   0.58447   0.00000  Uiso   1.00
H1108  H     0.02296   0.18836   0.61476   0.00000  Uiso   1.00
H1109  H     0.31378   0.19217   0.54327   0.00000  Uiso   1.00
H1110  H     0.28219   0.19338   0.59062   0.00000  Uiso   1.00
H1111  H     0.27395   0.10345   0.58046   0.00000  Uiso   1.00
H1112  H     0.30063   0.11003   0.53085   0.00000  Uiso   1.00
N1113  N     0.04543   0.08450   0.78122   0.00000  Uiso   1.00
H1114  H     0.03412   0.05327   0.77006   0.00000  Uiso   1.00
C1115  C     0.05810   0.08349   0.82837   0.00000  Uiso   1.00
H1116  H     0.03073   0.08111   0.84882   0.00000  Uiso   1.00
H1117  H     0.07571   0.11506   0.83754   0.00000  Uiso   1.00
H1118  H     0.07834   0.05281   0.83589   0.00000  Uiso   1.00
N1119  N     0.29108   0.24844   0.72647   0.00000  Uiso   1.00
H1120  H     0.30359   0.27953   0.73646   0.00000  Uiso   1.00
C1121  C     0.28185   0.24783   0.67857   0.00000  Uiso   1.00
H1122  H     0.31082   0.24788   0.66061   0.00000  Uiso   1.00
H1123  H     0.26337   0.27913   0.66818   0.00000  Uiso   1.00
H1124  H     0.26369   0.21676   0.66900   0.00000  Uiso   1.00
N1125  N     0.29272   0.08070   0.76301   0.00000  Uiso   1.00
H1126  H     0.30225   0.05981   0.78995   0.00000  Uiso   1.00
C1127  C     0.28751   0.05611   0.72115   0.00000  Uiso   1.00
H1128  H     0.31760   0.04302   0.71057   0.00000  Uiso   1.00
H1129  H     0.27336   0.07919   0.69434   0.00000  Uiso   1.00
H1130  H     0.26677   0.02630   0.72543   0.00000  Uiso   1.00
N1131  N     0.03804   0.25356   0.76424   0.00000  Uiso   1.00
H1132  H     0.05884   0.26532   0.74253   0.00000  Uiso   1.00
C1133  C     0.04823   0.26303   0.81089   0.00000  Uiso   1.00
H1134  H     0.02046   0.25973   0.83055   0.00000  Uiso   1.00
H1135  H     0.05956   0.29907   0.81413   0.00000  Uiso   1.00
H1136  H     0.07263   0.23880   0.82460   0.00000  Uiso   1.00
N1137  N     0.13186   0.04999   0.67601   0.00000  Uiso   1.00
H1138  H     0.14173   0.03843   0.64589   0.00000  Uiso   1.00
C1139  C     0.08908   0.06459   0.67437   0.00000  Uiso   1.00
H1140  H     0.08689   0.10264   0.66875   0.00000  Uiso   1.00
H1141  H     0.07425   0.05526   0.70564   0.00000  Uiso   1.00
H1142  H     0.07183   0.04813   0.64581   0.00000  Uiso   1.00
N1143  N     0.21063   0.28176   0.81729   0.00000  Uiso   1.00
H1144  H     0.19749   0.27885   0.84775   0.00000  Uiso   1.00
C1145  C     0.25469   0.28868   0.82050   0.00000  Uiso   1.00
H1146  H     0.26393   0.30598   0.85240   0.00000  Uiso   1.00
H1147  H     0.26489   0.31035   0.79238   0.00000  Uiso   1.00
H1148  H     0.27059   0.25449   0.82020   0.00000  Uiso   1.00
N1149  N     0.20599   0.04573   0.82193   0.00000  Uiso   1.00
H1150  H     0.22350   0.07456   0.81685   0.00000  Uiso   1.00
C1151  C     0.18998   0.03827   0.86580   0.00000  Uiso   1.00
H1152  H     0.17939   0.07130   0.87958   0.00000  Uiso   1.00
H1153  H     0.21461   0.02357   0.88909   0.00000  Uiso   1.00
H1154  H     0.16326   0.01456   0.86444   0.00000  Uiso   1.00
N1155  N     0.13408   0.28572   0.67550   0.00000  Uiso   1.00
H1156  H     0.15249   0.29044   0.64886   0.00000  Uiso   1.00
C1157  C     0.09049   0.28516   0.66306   0.00000  Uiso   1.00
H1158  H     0.07257   0.30734   0.68493   0.00000  Uiso   1.00
H1159  H     0.07930   0.24903   0.66513   0.00000  Uiso   1.00
H1160  H     0.08485   0.29784   0.62797   0.00000  Uiso   1.00
C1161  C     0.42117   0.16695   0.75408   0.00000  Uiso   1.00
C1162  C     0.57927   0.16632   0.74887   0.00000  Uiso   1.00
C1163  C     0.42863   0.19240   0.51923   0.00000  Uiso   1.00
C1164  C     0.57237   0.14307   0.98094   0.00000  Uiso   1.00
C1165  C     0.35622   0.12522   0.76646   0.00000  Uiso   1.00
C1166  C     0.64526   0.20770   0.74412   0.00000  Uiso   1.00
C1167  C     0.64667   0.12389   0.75970   0.00000  Uiso   1.00
C1168  C     0.35384   0.20938   0.75532   0.00000  Uiso   1.00
C1169  C     0.62433   0.16551   0.74921   0.00000  Uiso   1.00
C1170  C     0.37674   0.16749   0.75994   0.00000  Uiso   1.00
C1171  C     0.48122   0.02544   0.71493   0.00000  Uiso   1.00
C1172  C     0.52039   0.30744   0.78371   0.00000  Uiso   1.00
C1173  C     0.51910   0.02360   0.78476   0.00000  Uiso   1.00
C1174  C     0.48124   0.30919   0.71498   0.00000  Uiso   1.00
C1175  C     0.49982   0.16694   0.66461   0.00000  Uiso   1.00
C1176  C     0.50042   0.16648   0.83543   0.00000  Uiso   1.00
C1177  C     0.53628   0.15515   0.90893   0.00000  Uiso   1.00
C1178  C     0.46486   0.18089   0.59120   0.00000  Uiso   1.00
C1179  C     0.50034   0.16643   0.88360   0.00000  Uiso   1.00
C1180  C     0.50022   0.16757   0.61653   0.00000  Uiso   1.00
C1181  C     0.46438   0.17857   0.90390   0.00000  Uiso   1.00
C1182  C     0.53598   0.15448   0.59630   0.00000  Uiso   1.00
C1183  C     0.46355   0.17938   0.95072   0.00000  Uiso   1.00
C1184  C     0.53717   0.15492   0.54947   0.00000  Uiso   1.00
C1185  C     0.50023   0.16754   0.97662   0.00000  Uiso   1.00
C1186  C     0.50074   0.16774   0.52355   0.00000  Uiso   1.00
C1187  C     0.53645   0.15525   0.95549   0.00000  Uiso   1.00
C1188  C     0.46465   0.18055   0.54466   0.00000  Uiso   1.00
C1189  C     0.42733   0.19162   0.97238   0.00000  Uiso   1.00
C1190  C     0.57338   0.14261   0.52782   0.00000  Uiso   1.00
Cu1191 Cu    0.50000   0.21355   0.75000   0.00000  Uiso   1.00
Cu1192 Cu    0.50000   0.11978   0.75000   0.00000  Uiso   1.00
H1193  H     0.56389   0.14599   0.89220   0.00000  Uiso   1.00
H1194  H     0.43737   0.19063   0.60787   0.00000  Uiso   1.00
H1195  H     0.43737   0.18683   0.88253   0.00000  Uiso   1.00
H1196  H     0.56257   0.14458   0.61775   0.00000  Uiso   1.00
H1197  H     0.40114   0.20170   0.53609   0.00000  Uiso   1.00
H1198  H     0.59985   0.13375   0.96409   0.00000  Uiso   1.00
N1199  N     0.50000   0.28402   0.75000   0.00000  Uiso   1.00
N1200  N     0.50000   0.04931   0.75000   0.00000  Uiso   1.00
O1201  O     0.43988   0.20625   0.75000   0.00000  Uiso   1.00
O1202  O     0.56012   0.12709   0.75001   0.00000  Uiso   1.00
O1203  O     0.56012   0.20625   0.75001   0.00000  Uiso   1.00
O1204  O     0.43988   0.12709   0.75000   0.00000  Uiso   1.00
O1205  O     0.49999   0.20627   0.68513   0.00000  Uiso   1.00
O1206  O     0.50001   0.12707   0.81487   0.00000  Uiso   1.00
O1207  O     0.50001   0.20627   0.81487   0.00000  Uiso   1.00
O1208  O     0.49999   0.12707   0.68513   0.00000  Uiso   1.00
C1209  C     0.38679   0.20337   0.94695   0.00000  Uiso   1.00
C1210  C     0.36482   0.15916   0.93117   0.00000  Uiso   1.00
C1211  C     0.66156   0.17032   0.89849   0.00000  Uiso   1.00
H1212  H     0.63978   0.19449   0.91384   0.00000  Uiso   1.00
H1213  H     0.33895   0.18613   0.86723   0.00000  Uiso   1.00
H1214  H     0.64514   0.13786   0.88968   0.00000  Uiso   1.00
H1215  H     0.38635   0.13585   0.91444   0.00000  Uiso   1.00
H1216  H     0.35376   0.14023   0.96075   0.00000  Uiso   1.00
H1217  H     0.36607   0.22255   0.96877   0.00000  Uiso   1.00
H1218  H     0.39190   0.22732   0.91846   0.00000  Uiso   1.00
C1219  C     0.61338   0.12863   0.55326   0.00000  Uiso   1.00
C1220  C     0.63630   0.17118   0.57169   0.00000  Uiso   1.00
C1221  C     0.33997   0.15691   0.60267   0.00000  Uiso   1.00
H1222  H     0.66310   0.13722   0.63218   0.00000  Uiso   1.00
H1223  H     0.36172   0.13515   0.58447   0.00000  Uiso   1.00
H1224  H     0.35629   0.18836   0.61476   0.00000  Uiso   1.00
H1225  H     0.64711   0.19217   0.54327   0.00000  Uiso   1.00
H1226  H     0.61552   0.19338   0.59062   0.00000  Uiso   1.00
H1227  H     0.60729   0.10345   0.58046   0.00000  Uiso   1.00
H1228  H     0.63396   0.11003   0.53085   0.00000  Uiso   1.00
N1229  N     0.37877   0.08450   0.78122   0.00000  Uiso   1.00
H1230  H     0.36746   0.05327   0.77006   0.00000  Uiso   1.00
C1231  C     0.39143   0.08349   0.82837   0.00000  Uiso   1.00
H1232  H     0.36407   0.08111   0.84882   0.00000  Uiso   1.00
H1233  H     0.40904   0.11506   0.83754   0.00000  Uiso   1.00
H1234  H     0.41167   0.05281   0.83589   0.00000  Uiso   1.00
N1235  N     0.62441   0.24844   0.72647   0.00000  Uiso   1.00
H1236  H     0.63693   0.27953   0.73646   0.00000  Uiso   1.00
C1237  C     0.61518   0.24783   0.67857   0.00000  Uiso   1.00
H1238  H     0.64416   0.24788   0.66061   0.00000  Uiso   1.00
H1239  H     0.59671   0.27913   0.66818   0.00000  Uiso   1.00
H1240  H     0.59703   0.21676   0.66900   0.00000  Uiso   1.00
N1241  N     0.62605   0.08070   0.76301   0.00000  Uiso   1.00
H1242  H     0.63559   0.05981   0.78995   0.00000  Uiso   1.00
C1243  C     0.62084   0.05611   0.72115   0.00000  Uiso   1.00
H1244  H     0.65094   0.04302   0.71057   0.00000  Uiso   1.00
H1245  H     0.60669   0.07919   0.69434   0.00000  Uiso   1.00
H1246  H     0.60011   0.02630   0.72543   0.00000  Uiso   1.00
N1247  N     0.37138   0.25356   0.76424   0.00000  Uiso   1.00
H1248  H     0.39218   0.26532   0.74253   0.00000  Uiso   1.00
C1249  C     0.38156   0.26303   0.81089   0.00000  Uiso   1.00
H1250  H     0.35379   0.25973   0.83055   0.00000  Uiso   1.00
H1251  H     0.39289   0.29907   0.81413   0.00000  Uiso   1.00
H1252  H     0.40596   0.23880   0.82460   0.00000  Uiso   1.00
N1253  N     0.46519   0.04999   0.67601   0.00000  Uiso   1.00
H1254  H     0.47506   0.03843   0.64589   0.00000  Uiso   1.00
C1255  C     0.42241   0.06459   0.67437   0.00000  Uiso   1.00
H1256  H     0.42023   0.10264   0.66875   0.00000  Uiso   1.00
H1257  H     0.40758   0.05526   0.70564   0.00000  Uiso   1.00
H1258  H     0.40517   0.04813   0.64581   0.00000  Uiso   1.00
N1259  N     0.54396   0.28176   0.81729   0.00000  Uiso   1.00
H1260  H     0.53082   0.27885   0.84775   0.00000  Uiso   1.00
C1261  C     0.58803   0.28868   0.82050   0.00000  Uiso   1.00
H1262  H     0.59726   0.30598   0.85240   0.00000  Uiso   1.00
H1263  H     0.59822   0.31035   0.79238   0.00000  Uiso   1.00
H1264  H     0.60393   0.25449   0.82020   0.00000  Uiso   1.00
N1265  N     0.53932   0.04573   0.82193   0.00000  Uiso   1.00
H1266  H     0.55684   0.07456   0.81685   0.00000  Uiso   1.00
C1267  C     0.52331   0.03827   0.86580   0.00000  Uiso   1.00
H1268  H     0.51273   0.07130   0.87958   0.00000  Uiso   1.00
H1269  H     0.54795   0.02357   0.88909   0.00000  Uiso   1.00
H1270  H     0.49660   0.01456   0.86444   0.00000  Uiso   1.00
N1271  N     0.46742   0.28572   0.67550   0.00000  Uiso   1.00
H1272  H     0.48582   0.29044   0.64886   0.00000  Uiso   1.00
C1273  C     0.42382   0.28516   0.66306   0.00000  Uiso   1.00
H1274  H     0.40590   0.30734   0.68493   0.00000  Uiso   1.00
H1275  H     0.41264   0.24903   0.66513   0.00000  Uiso   1.00
H1276  H     0.41819   0.29784   0.62797   0.00000  Uiso   1.00
C1277  C     0.75450   0.16695   0.75408   0.00000  Uiso   1.00
C1278  C     0.91260   0.16632   0.74887   0.00000  Uiso   1.00
C1279  C     0.76197   0.19240   0.51923   0.00000  Uiso   1.00
C1280  C     0.90571   0.14307   0.98094   0.00000  Uiso   1.00
C1281  C     0.68956   0.12522   0.76646   0.00000  Uiso   1.00
C1282  C     0.97859   0.20770   0.74412   0.00000  Uiso   1.00
C1283  C     0.98001   0.12389   0.75970   0.00000  Uiso   1.00
C1284  C     0.68718   0.20938   0.75532   0.00000  Uiso   1.00
C1285  C     0.95766   0.16551   0.74921   0.00000  Uiso   1.00
C1286  C     0.71007   0.16749   0.75994   0.00000  Uiso   1.00
C1287  C     0.81455   0.02544   0.71493   0.00000  Uiso   1.00
C1288  C     0.85372   0.30744   0.78371   0.00000  Uiso   1.00
C1289  C     0.85244   0.02360   0.78476   0.00000  Uiso   1.00
C1290  C     0.81457   0.30919   0.71498   0.00000  Uiso   1.00
C1291  C     0.83315   0.16694   0.66461   0.00000  Uiso   1.00
C1292  C     0.83375   0.16648   0.83543   0.00000  Uiso   1.00
C1293  C     0.86961   0.15515   0.90893   0.00000  Uiso   1.00
C1294  C     0.79819   0.18089   0.59120   0.00000  Uiso   1.00
C1295  C     0.83367   0.16643   0.88360   0.00000  Uiso   1.00
C1296  C     0.83356   0.16757   0.61653   0.00000  Uiso   1.00
C1297  C     0.79772   0.17857   0.90390   0.00000  Uiso   1.00
C1298  C     0.86931   0.15448   0.59630   0.00000  Uiso   1.00
C1299  C     0.79689   0.17938   0.95072   0.00000  Uiso   1.00
C1300  C     0.87050   0.15492   0.54947   0.00000  Uiso   1.00
C1301  C     0.83357   0.16754   0.97662   0.00000  Uiso   1.00
C1302  C     0.83408   0.16774   0.52355   0.00000  Uiso   1.00
C1303  C     0.86978   0.15525   0.95549   0.00000  Uiso   1.00
C1304  C     0.79798   0.18055   0.54466   0.00000  Uiso   1.00
C1305  C     0.76066   0.19162   0.97238   0.00000  Uiso   1.00
C1306  C     0.90671   0.14261   0.52782   0.00000  Uiso   1.00
Cu1307 Cu    0.83333   0.21355   0.75000   0.00000  Uiso   1.00
Cu1308 Cu    0.83333   0.11978   0.75000   0.00000  Uiso   1.00
H1309  H     0.89723   0.14599   0.89220   0.00000  Uiso   1.00
H1310  H     0.77070   0.19063   0.60787   0.00000  Uiso   1.00
H1311  H     0.77070   0.18683   0.88253   0.00000  Uiso   1.00
H1312  H     0.89590   0.14458   0.61775   0.00000  Uiso   1.00
H1313  H     0.73447   0.20170   0.53609   0.00000  Uiso   1.00
H1314  H     0.93319   0.13375   0.96409   0.00000  Uiso   1.00
N1315  N     0.83333   0.28402   0.75000   0.00000  Uiso   1.00
N1316  N     0.83333   0.04931   0.75000   0.00000  Uiso   1.00
O1317  O     0.77321   0.20625   0.75000   0.00000  Uiso   1.00
O1318  O     0.89345   0.12709   0.75001   0.00000  Uiso   1.00
O1319  O     0.89345   0.20625   0.75001   0.00000  Uiso   1.00
O1320  O     0.77321   0.12709   0.75000   0.00000  Uiso   1.00
O1321  O     0.83332   0.20627   0.68513   0.00000  Uiso   1.00
O1322  O     0.83334   0.12707   0.81487   0.00000  Uiso   1.00
O1323  O     0.83334   0.20627   0.81487   0.00000  Uiso   1.00
O1324  O     0.83332   0.12707   0.68513   0.00000  Uiso   1.00
C1325  C     0.72012   0.20337   0.94695   0.00000  Uiso   1.00
C1326  C     0.69815   0.15916   0.93117   0.00000  Uiso   1.00
C1327  C     0.99489   0.17032   0.89849   0.00000  Uiso   1.00
H1328  H     0.97311   0.19449   0.91384   0.00000  Uiso   1.00
H1329  H     0.67228   0.18613   0.86723   0.00000  Uiso   1.00
H1330  H     0.97847   0.13786   0.88968   0.00000  Uiso   1.00
H1331  H     0.71968   0.13585   0.91444   0.00000  Uiso   1.00
H1332  H     0.68710   0.14023   0.96075   0.00000  Uiso   1.00
H1333  H     0.69940   0.22255   0.96877   0.00000  Uiso   1.00
H1334  H     0.72523   0.22732   0.91846   0.00000  Uiso   1.00
C1335  C     0.94672   0.12863   0.55326   0.00000  Uiso   1.00
C1336  C     0.96963   0.17118   0.57169   0.00000  Uiso   1.00
C1337  C     0.67331   0.15691   0.60267   0.00000  Uiso   1.00
H1338  H     0.99643   0.13722   0.63218   0.00000  Uiso   1.00
H1339  H     0.69505   0.13515   0.58447   0.00000  Uiso   1.00
H1340  H     0.68962   0.18836   0.61476   0.00000  Uiso   1.00
H1341  H     0.98045   0.19217   0.54327   0.00000  Uiso   1.00
H1342  H     0.94885   0.19338   0.59062   0.00000  Uiso   1.00
H1343  H     0.94062   0.10345   0.58046   0.00000  Uiso   1.00
H1344  H     0.96729   0.11003   0.53085   0.00000  Uiso   1.00
N1345  N     0.71210   0.08450   0.78122   0.00000  Uiso   1.00
H1346  H     0.70079   0.05327   0.77006   0.00000  Uiso   1.00
C1347  C     0.72477   0.08349   0.82837   0.00000  Uiso   1.00
H1348  H     0.69740   0.08111   0.84882   0.00000  Uiso   1.00
H1349  H     0.74238   0.11506   0.83754   0.00000  Uiso   1.00
H1350  H     0.74500   0.05281   0.83589   0.00000  Uiso   1.00
N1351  N     0.95775   0.24844   0.72647   0.00000  Uiso   1.00
H1352  H     0.97026   0.27953   0.73646   0.00000  Uiso   1.00
C1353  C     0.94852   0.24783   0.67857   0.00000  Uiso   1.00
H1354  H     0.97749   0.24788   0.66061   0.00000  Uiso   1.00
H1355  H     0.93004   0.27913   0.66818   0.00000  Uiso   1.00
H1356  H     0.93036   0.21676   0.66900   0.00000  Uiso   1.00
N1357  N     0.95939   0.08070   0.76301   0.00000  Uiso   1.00
H1358  H     0.96892   0.05981   0.78995   0.00000  Uiso   1.00
C1359  C     0.95418   0.05611   0.72115   0.00000  Uiso   1.00
H1360  H     0.98427   0.04302   0.71057   0.00000  Uiso   1.00
H1361  H     0.94003   0.07919   0.69434   0.00000  Uiso   1.00
H1362  H     0.93344   0.02630   0.72543   0.00000  Uiso   1.00
N1363  N     0.70471   0.25356   0.76424   0.00000  Uiso   1.00
H1364  H     0.72551   0.26532   0.74253   0.00000  Uiso   1.00
C1365  C     0.71490   0.26303   0.81089   0.00000  Uiso   1.00
H1366  H     0.68712   0.25973   0.83055   0.00000  Uiso   1.00
H1367  H     0.72622   0.29907   0.81413   0.00000  Uiso   1.00
H1368  H     0.73930   0.23880   0.82460   0.00000  Uiso   1.00
N1369  N     0.79853   0.04999   0.67601   0.00000  Uiso   1.00
H1370  H     0.80840   0.03843   0.64589   0.00000  Uiso   1.00
C1371  C     0.75575   0.06459   0.67437   0.00000  Uiso   1.00
H1372  H     0.75356   0.10264   0.66875   0.00000  Uiso   1.00
H1373  H     0.74091   0.05526   0.70564   0.00000  Uiso   1.00
H1374  H     0.73850   0.04813   0.64581   0.00000  Uiso   1.00
N1375  N     0.87730   0.28176   0.81729   0.00000  Uiso   1.00
H1376  H     0.86415   0.27885   0.84775   0.00000  Uiso   1.00
C1377  C     0.92136   0.28868   0.82050   0.00000  Uiso   1.00
H1378  H     0.93060   0.30598   0.85240   0.00000  Uiso   1.00
H1379  H     0.93156   0.31035   0.79238   0.00000  Uiso   1.00
H1380  H     0.93726   0.25449   0.82020   0.00000  Uiso   1.00
N1381  N     0.87266   0.04573   0.82193   0.00000  Uiso   1.00
H1382  H     0.89017   0.07456   0.81685   0.00000  Uiso   1.00
C1383  C     0.85665   0.03827   0.86580   0.00000  Uiso   1.00
H1384  H     0.84606   0.07130   0.87958   0.00000  Uiso   1.00
H1385  H     0.88128   0.02357   0.88909   0.00000  Uiso   1.00
H1386  H     0.82993   0.01456   0.86444   0.00000  Uiso   1.00
N1387  N     0.80075   0.28572   0.67550   0.00000  Uiso   1.00
H1388  H     0.81916   0.29044   0.64886   0.00000  Uiso   1.00
C1389  C     0.75715   0.28516   0.66306   0.00000  Uiso   1.00
H1390  H     0.73924   0.30734   0.68493   0.00000  Uiso   1.00
H1391  H     0.74597   0.24903   0.66513   0.00000  Uiso   1.00
H1392  H     0.75152   0.29784   0.62797   0.00000  Uiso   1.00
C1393  C     0.08784   0.50028   0.75408   0.00000  Uiso   1.00
C1394  C     0.24594   0.49965   0.74887   0.00000  Uiso   1.00
C1395  C     0.09530   0.52573   0.51923   0.00000  Uiso   1.00
C1396  C     0.23904   0.47640   0.98094   0.00000  Uiso   1.00
C1397  C     0.02289   0.45855   0.76646   0.00000  Uiso   1.00
C1398  C     0.31192   0.54104   0.74412   0.00000  Uiso   1.00
C1399  C     0.31334   0.45722   0.75970   0.00000  Uiso   1.00
C1400  C     0.02051   0.54271   0.75532   0.00000  Uiso   1.00
C1401  C     0.29100   0.49884   0.74921   0.00000  Uiso   1.00
C1402  C     0.04341   0.50083   0.75994   0.00000  Uiso   1.00
C1403  C     0.14788   0.35878   0.71493   0.00000  Uiso   1.00
C1404  C     0.18706   0.64077   0.78371   0.00000  Uiso   1.00
C1405  C     0.18577   0.35694   0.78476   0.00000  Uiso   1.00
C1406  C     0.14791   0.64253   0.71498   0.00000  Uiso   1.00
C1407  C     0.16648   0.50028   0.66461   0.00000  Uiso   1.00
C1408  C     0.16709   0.49982   0.83543   0.00000  Uiso   1.00
C1409  C     0.20294   0.48848   0.90893   0.00000  Uiso   1.00
C1410  C     0.13152   0.51423   0.59120   0.00000  Uiso   1.00
C1411  C     0.16700   0.49976   0.88360   0.00000  Uiso   1.00
C1412  C     0.16689   0.50091   0.61653   0.00000  Uiso   1.00
C1413  C     0.13105   0.51190   0.90390   0.00000  Uiso   1.00
C1414  C     0.20264   0.48782   0.59630   0.00000  Uiso   1.00
C1415  C     0.13022   0.51271   0.95072   0.00000  Uiso   1.00
C1416  C     0.20384   0.48825   0.54947   0.00000  Uiso   1.00
C1417  C     0.16690   0.50088   0.97662   0.00000  Uiso   1.00
C1418  C     0.16741   0.50107   0.52355   0.00000  Uiso   1.00
C1419  C     0.20312   0.48858   0.95549   0.00000  Uiso   1.00
C1420  C     0.13131   0.51389   0.54466   0.00000  Uiso   1.00
C1421  C     0.09400   0.52495   0.97238   0.00000  Uiso   1.00
C1422  C     0.24005   0.47594   0.52782   0.00000  Uiso   1.00
Cu1423 Cu    0.16667   0.54689   0.75000   0.00000  Uiso   1.00
Cu1424 Cu    0.16667   0.45311   0.75000   0.00000  Uiso   1.00
H1425  H     0.23056   0.47932   0.89220   0.00000  Uiso   1.00
H1426  H     0.10404   0.52396   0.60787   0.00000  Uiso   1.00
H1427  H     0.10403   0.52017   0.88253   0.00000  Uiso   1.00
H1428  H     0.22924   0.47792   0.61775   0.00000  Uiso   1.00
H1429  H     0.06781   0.53503   0.53609   0.00000  Uiso   1.00
H1430  H     0.26652   0.46709   0.96409   0.00000  Uiso   1.00
N1431  N     0.16667   0.61736   0.75000   0.00000  Uiso   1.00
N1432  N     0.16667   0.38264   0.75000   0.00000  Uiso   1.00
O1433  O     0.10655   0.53958   0.75000   0.00000  Uiso   1.00
O1434  O     0.22679   0.46042   0.75001   0.00000  Uiso   1.00
O1435  O     0.22679   0.53958   0.75001   0.00000  Uiso   1.00
O1436  O     0.10655   0.46042   0.75000   0.00000  Uiso   1.00
O1437  O     0.16666   0.53960   0.68513   0.00000  Uiso   1.00
O1438  O     0.16668   0.46040   0.81487   0.00000  Uiso   1.00
O1439  O     0.16668   0.53960   0.81487   0.00000  Uiso   1.00
O1440  O     0.16666   0.46040   0.68513   0.00000  Uiso   1.00
C1441  C     0.05346   0.53670   0.94695   0.00000  Uiso   1.00
C1442  C     0.03149   0.49249   0.93117   0.00000  Uiso   1.00
C1443  C     0.32822   0.50365   0.89849   0.00000  Uiso   1.00
H1444  H     0.30645   0.52783   0.91384   0.00000  Uiso   1.00
H1445  H     0.00561   0.51946   0.86723   0.00000  Uiso   1.00
H1446  H     0.31180   0.47120   0.88968   0.00000  Uiso   1.00
H1447  H     0.05302   0.46918   0.91444   0.00000  Uiso   1.00
H1448  H     0.02043   0.47356   0.96075   0.00000  Uiso   1.00
H1449  H     0.03274   0.55589   0.96877   0.00000  Uiso   1.00
H1450  H     0.05856   0.56066   0.91846   0.00000  Uiso   1.00
C1451  C     0.28005   0.46196   0.55326   0.00000  Uiso   1.00
C1452  C     0.30297   0.50451   0.57169   0.00000  Uiso   1.00
C1453  C     0.00664   0.49025   0.60267   0.00000  Uiso   1.00
H1454  H     0.32976   0.47055   0.63218   0.00000  Uiso   1.00
H1455  H     0.02839   0.46849   0.58447   0.00000  Uiso   1.00
H1456  H     0.02296   0.52169   0.61476   0.00000  Uiso   1.00
H1457  H     0.31378   0.52551   0.54327   0.00000  Uiso   1.00
H1458  H     0.28219   0.52672   0.59062   0.00000  Uiso   1.00
H1459  H     0.27395   0.43678   0.58046   0.00000  Uiso   1.00
H1460  H     0.30063   0.44336   0.53085   0.00000  Uiso   1.00
N1461  N     0.04543   0.41784   0.78122   0.00000  Uiso   1.00
H1462  H     0.03412   0.38660   0.77006   0.00000  Uiso   1.00
C1463  C     0.05810   0.41682   0.82837   0.00000  Uiso   1.00
H1464  H     0.03073   0.41444   0.84882   0.00000  Uiso   1.00
H1465  H     0.07571   0.44839   0.83754   0.00000  Uiso   1.00
H1466  H     0.07834   0.38615   0.83589   0.00000  Uiso   1.00
N1467  N     0.29108   0.58177   0.72647   0.00000  Uiso   1.00
H1468  H     0.30359   0.61286   0.73646   0.00000  Uiso   1.00
C1469  C     0.28185   0.58116   0.67857   0.00000  Uiso   1.00
H1470  H     0.31082   0.58121   0.66061   0.00000  Uiso   1.00
H1471  H     0.26337   0.61246   0.66818   0.00000  Uiso   1.00
H1472  H     0.26369   0.55009   0.66900   0.00000  Uiso   1.00
N1473  N     0.29272   0.41403   0.76301   0.00000  Uiso   1.00
H1474  H     0.30225   0.39314   0.78995   0.00000  Uiso   1.00
C1475  C     0.28751   0.38944   0.72115   0.00000  Uiso   1.00
H1476  H     0.31760   0.37635   0.71057   0.00000  Uiso   1.00
H1477  H     0.27336   0.41253   0.69434   0.00000  Uiso   1.00
H1478  H     0.26677   0.35963   0.72543   0.00000  Uiso   1.00
N1479  N     0.03804   0.58689   0.76424   0.00000  Uiso   1.00
H1480  H     0.05884   0.59865   0.74253   0.00000  Uiso   1.00
C1481  C     0.04823   0.59637   0.81089   0.00000  Uiso   1.00
H1482  H     0.02046   0.59306   0.83055   0.00000  Uiso   1.00
H1483  H     0.05956   0.63241   0.81413   0.00000  Uiso   1.00
H1484  H     0.07263   0.57214   0.82460   0.00000  Uiso   1.00
N1485  N     0.13186   0.38332   0.67601   0.00000  Uiso   1.00
H1486  H     0.14173   0.37176   0.64589   0.00000  Uiso   1.00
C1487  C     0.08908   0.39792   0.67437   0.00000  Uiso   1.00
H1488  H     0.08689   0.43598   0.66875   0.00000  Uiso   1.00
H1489  H     0.07425   0.38859   0.70564   0.00000  Uiso   1.00
H1490  H     0.07183   0.38146   0.64581   0.00000  Uiso   1.00
N1491  N     0.21063   0.61509   0.81729   0.00000  Uiso   1.00
H1492  H     0.19749   0.61218   0.84775   0.00000  Uiso   1.00
C1493  C     0.25469   0.62202   0.82050   0.00000  Uiso   1.00
H1494  H     0.26393   0.63932   0.85240   0.00000  Uiso   1.00
H1495  H     0.26489   0.64369   0.79238   0.00000  Uiso   1.00
H1496  H     0.27059   0.58782   0.82020   0.00000  Uiso   1.00
N1497  N     0.20599   0.37906   0.82193   0.00000  Uiso   1.00
H1498  H     0.22350   0.40789   0.81685   0.00000  Uiso   1.00
C1499  C     0.18998   0.37160   0.86580   0.00000  Uiso   1.00
H1500  H     0.17939   0.40463   0.87958   0.00000  Uiso   1.00
H1501  H     0.21461   0.35690   0.88909   0.00000  Uiso   1.00
H1502  H     0.16326   0.34789   0.86444   0.00000  Uiso   1.00
N1503  N     0.13408   0.61905   0.67550   0.00000  Uiso   1.00
H1504  H     0.15249   0.62377   0.64886   0.00000  Uiso   1.00
C1505  C     0.09049   0.61849   0.66306   0.00000  Uiso   1.00
H1506  H     0.07257   0.64068   0.68493   0.00000  Uiso   1.00
H1507  H     0.07930   0.58236   0.66513   0.00000  Uiso   1.00
H1508  H     0.08485   0.63117   0.62797   0.00000  Uiso   1.00
C1509  C     0.42117   0.50028   0.75408   0.00000  Uiso   1.00
C1510  C     0.57927   0.49965   0.74887   0.00000  Uiso   1.00
C1511  C     0.42863   0.52573   0.51923   0.00000  Uiso   1.00
C1512  C     0.57237   0.47640   0.98094   0.00000  Uiso   1.00
C1513  C     0.35622   0.45855   0.76646   0.00000  Uiso   1.00
C1514  C     0.64526   0.54104   0.74412   0.00000  Uiso   1.00
C1515  C     0.64667   0.45722   0.75970   0.00000  Uiso   1.00
C1516  C     0.35384   0.54271   0.75532   0.00000  Uiso   1.00
C1517  C     0.62433   0.49884   0.74921   0.00000  Uiso   1.00
C1518  C     0.37674   0.50083   0.75994   0.00000  Uiso   1.00
C1519  C     0.48122   0.35878   0.71493   0.00000  Uiso   1.00
C1520  C     0.52039   0.64077   0.78371   0.00000  Uiso   1.00
C1521  C     0.51910   0.35694   0.78476   0.00000  Uiso   1.00
C1522  C     0.48124   0.64253   0.71498   0.00000  Uiso   1.00
C1523  C     0.49982   0.50028   0.66461   0.00000  Uiso   1.00
C1524  C     0.50042   0.49982   0.83543   0.00000  Uiso   1.00
C1525  C     0.53628   0.48848   0.90893   0.00000  Uiso   1.00
C1526  C     0.46486   0.51423   0.59120   0.00000  Uiso   1.00
C1527  C     0.50034   0.49976   0.88360   0.00000  Uiso   1.00
C1528  C     0.50022   0.50091   0.61653   0.00000  Uiso   1.00
C1529  C     0.46438   0.51190   0.90390   0.00000  Uiso   1.00
C1530  C     0.53598   0.48782   0.59630   0.00000  Uiso   1.00
C1531  C     0.46355   0.51271   0.95072   0.00000  Uiso   1.00
C1532  C     0.53717   0.48825   0.54947   0.00000  Uiso   1.00
C1533  C     0.50023   0.50088   0.97662   0.00000  Uiso   1.00
C1534  C     0.50074   0.50107   0.52355   0.00000  Uiso   1.00
C1535  C     0.53645   0.48858   0.95549   0.00000  Uiso   1.00
C1536  C     0.46465   0.51389   0.54466   0.00000  Uiso   1.00
C1537  C     0.42733   0.52495   0.97238   0.00000  Uiso   1.00
C1538  C     0.57338   0.47594   0.52782   0.00000  Uiso   1.00
Cu1539 Cu    0.50000   0.54689   0.75000   0.00000  Uiso   1.00
Cu1540 Cu    0.50000   0.45311   0.75000   0.00000  Uiso   1.00
H1541  H     0.56389   0.47932   0.89220   0.00000  Uiso   1.00
H1542  H     0.43737   0.52396   0.60787   0.00000  Uiso   1.00
H1543  H     0.43737   0.52017   0.88253   0.00000  Uiso   1.00
H1544  H     0.56257   0.47792   0.61775   0.00000  Uiso   1.00
H1545  H     0.40114   0.53503   0.53609   0.00000  Uiso   1.00
H1546  H     0.59985   0.46709   0.96409   0.00000  Uiso   1.00
N1547  N     0.50000   0.61736   0.75000   0.00000  Uiso   1.00
N1548  N     0.50000   0.38264   0.75000   0.00000  Uiso   1.00
O1549  O     0.43988   0.53958   0.75000   0.00000  Uiso   1.00
O1550  O     0.56012   0.46042   0.75001   0.00000  Uiso   1.00
O1551  O     0.56012   0.53958   0.75001   0.00000  Uiso   1.00
O1552  O     0.43988   0.46042   0.75000   0.00000  Uiso   1.00
O1553  O     0.49999   0.53960   0.68513   0.00000  Uiso   1.00
O1554  O     0.50001   0.46040   0.81487   0.00000  Uiso   1.00
O1555  O     0.50001   0.53960   0.81487   0.00000  Uiso   1.00
O1556  O     0.49999   0.46040   0.68513   0.00000  Uiso   1.00
C1557  C     0.38679   0.53670   0.94695   0.00000  Uiso   1.00
C1558  C     0.36482   0.49249   0.93117   0.00000  Uiso   1.00
C1559  C     0.66156   0.50365   0.89849   0.00000  Uiso   1.00
H1560  H     0.63978   0.52783   0.91384   0.00000  Uiso   1.00
H1561  H     0.33895   0.51946   0.86723   0.00000  Uiso   1.00
H1562  H     0.64514   0.47120   0.88968   0.00000  Uiso   1.00
H1563  H     0.38635   0.46918   0.91444   0.00000  Uiso   1.00
H1564  H     0.35376   0.47356   0.96075   0.00000  Uiso   1.00
H1565  H     0.36607   0.55589   0.96877   0.00000  Uiso   1.00
H1566  H     0.39190   0.56066   0.91846   0.00000  Uiso   1.00
C1567  C     0.61338   0.46196   0.55326   0.00000  Uiso   1.00
C1568  C     0.63630   0.50451   0.57169   0.00000  Uiso   1.00
C1569  C     0.33997   0.49025   0.60267   0.00000  Uiso   1.00
H1570  H     0.66310   0.47055   0.63218   0.00000  Uiso   1.00
H1571  H     0.36172   0.46849   0.58447   0.00000  Uiso   1.00
H1572  H     0.35629   0.52169   0.61476   0.00000  Uiso   1.00
H1573  H     0.64711   0.52551   0.54327   0.00000  Uiso   1.00
H1574  H     0.61552   0.52672   0.59062   0.00000  Uiso   1.00
H1575  H     0.60729   0.43678   0.58046   0.00000  Uiso   1.00
H1576  H     0.63396   0.44336   0.53085   0.00000  Uiso   1.00
N1577  N     0.37877   0.41784   0.78122   0.00000  Uiso   1.00
H1578  H     0.36746   0.38660   0.77006   0.00000  Uiso   1.00
C1579  C     0.39143   0.41682   0.82837   0.00000  Uiso   1.00
H1580  H     0.36407   0.41444   0.84882   0.00000  Uiso   1.00
H1581  H     0.40904   0.44839   0.83754   0.00000  Uiso   1.00
H1582  H     0.41167   0.38615   0.83589   0.00000  Uiso   1.00
N1583  N     0.62441   0.58177   0.72647   0.00000  Uiso   1.00
H1584  H     0.63693   0.61286   0.73646   0.00000  Uiso   1.00
C1585  C     0.61518   0.58116   0.67857   0.00000  Uiso   1.00
H1586  H     0.64416   0.58121   0.66061   0.00000  Uiso   1.00
H1587  H     0.59671   0.61246   0.66818   0.00000  Uiso   1.00
H1588  H     0.59703   0.55009   0.66900   0.00000  Uiso   1.00
N1589  N     0.62605   0.41403   0.76301   0.00000  Uiso   1.00
H1590  H     0.63559   0.39314   0.78995   0.00000  Uiso   1.00
C1591  C     0.62084   0.38944   0.72115   0.00000  Uiso   1.00
H1592  H     0.65094   0.37635   0.71057   0.00000  Uiso   1.00
H1593  H     0.60669   0.41253   0.69434   0.00000  Uiso   1.00
H1594  H     0.60011   0.35963   0.72543   0.00000  Uiso   1.00
N1595  N     0.37138   0.58689   0.76424   0.00000  Uiso   1.00
H1596  H     0.39218   0.59865   0.74253   0.00000  Uiso   1.00
C1597  C     0.38156   0.59637   0.81089   0.00000  Uiso   1.00
H1598  H     0.35379   0.59306   0.83055   0.00000  Uiso   1.00
H1599  H     0.39289   0.63241   0.81413   0.00000  Uiso   1.00
H1600  H     0.40596   0.57214   0.82460   0.00000  Uiso   1.00
N1601  N     0.46519   0.38332   0.67601   0.00000  Uiso   1.00
H1602  H     0.47506   0.37176   0.64589   0.00000  Uiso   1.00
C1603  C     0.42241   0.39792   0.67437   0.00000  Uiso   1.00
H1604  H     0.42023   0.43598   0.66875   0.00000  Uiso   1.00
H1605  H     0.40758   0.38859   0.70564   0.00000  Uiso   1.00
H1606  H     0.40517   0.38146   0.64581   0.00000  Uiso   1.00
N1607  N     0.54396   0.61509   0.81729   0.00000  Uiso   1.00
H1608  H     0.53082   0.61218   0.84775   0.00000  Uiso   1.00
C1609  C     0.58803   0.62202   0.82050   0.00000  Uiso   1.00
H1610  H     0.59726   0.63932   0.85240   0.00000  Uiso   1.00
H1611  H     0.59822   0.64369   0.79238   0.00000  Uiso   1.00
H1612  H     0.60393   0.58782   0.82020   0.00000  Uiso   1.00
N1613  N     0.53932   0.37906   0.82193   0.00000  Uiso   1.00
H1614  H     0.55684   0.40789   0.81685   0.00000  Uiso   1.00
C1615  C     0.52331   0.37160   0.86580   0.00000  Uiso   1.00
H1616  H     0.51273   0.40463   0.87958   0.00000  Uiso   1.00
H1617  H     0.54795   0.35690   0.88909   0.00000  Uiso   1.00
H1618  H     0.49660   0.34789   0.86444   0.00000  Uiso   1.00
N1619  N     0.46742   0.61905   0.67550   0.00000  Uiso   1.00
H1620  H     0.48582   0.62377   0.64886   0.00000  Uiso   1.00
C1621  C     0.42382   0.61849   0.66306   0.00000  Uiso   1.00
H1622  H     0.40590   0.64068   0.68493   0.00000  Uiso   1.00
H1623  H     0.41264   0.58236   0.66513   0.00000  Uiso   1.00
H1624  H     0.41819   0.63117   0.62797   0.00000  Uiso   1.00
C1625  C     0.75450   0.50028   0.75408   0.00000  Uiso   1.00
C1626  C     0.91260   0.49965   0.74887   0.00000  Uiso   1.00
C1627  C     0.76197   0.52573   0.51923   0.00000  Uiso   1.00
C1628  C     0.90571   0.47640   0.98094   0.00000  Uiso   1.00
C1629  C     0.68956   0.45855   0.76646   0.00000  Uiso   1.00
C1630  C     0.97859   0.54104   0.74412   0.00000  Uiso   1.00
C1631  C     0.98001   0.45722   0.75970   0.00000  Uiso   1.00
C1632  C     0.68718   0.54271   0.75532   0.00000  Uiso   1.00
C1633  C     0.95766   0.49884   0.74921   0.00000  Uiso   1.00
C1634  C     0.71007   0.50083   0.75994   0.00000  Uiso   1.00
C1635  C     0.81455   0.35878   0.71493   0.00000  Uiso   1.00
C1636  C     0.85372   0.64077   0.78371   0.00000  Uiso   1.00
C1637  C     0.85244   0.35694   0.78476   0.00000  Uiso   1.00
C1638  C     0.81457   0.64253   0.71498   0.00000  Uiso   1.00
C1639  C     0.83315   0.50028   0.66461   0.00000  Uiso   1.00
C1640  C     0.83375   0.49982   0.83543   0.00000  Uiso   1.00
C1641  C     0.86961   0.48848   0.90893   0.00000  Uiso   1.00
C1642  C     0.79819   0.51423   0.59120   0.00000  Uiso   1.00
C1643  C     0.83367   0.49976   0.88360   0.00000  Uiso   1.00
C1644  C     0.83356   0.50091   0.61653   0.00000  Uiso   1.00
C1645  C     0.79772   0.51190   0.90390   0.00000  Uiso   1.00
C1646  C     0.86931   0.48782   0.59630   0.00000  Uiso   1.00
C1647  C     0.79689   0.51271   0.95072   0.00000  Uiso   1.00
C1648  C     0.87050   0.48825   0.54947   0.00000  Uiso   1.00
C1649  C     0.83357   0.50088   0.97662   0.00000  Uiso   1.00
C1650  C     0.83408   0.50107   0.52355   0.00000  Uiso   1.00
C1651  C     0.86978   0.48858   0.95549   0.00000  Uiso   1.00
C1652  C     0.79798   0.51389   0.54466   0.00000  Uiso   1.00
C1653  C     0.76066   0.52495   0.97238   0.00000  Uiso   1.00
C1654  C     0.90671   0.47594   0.52782   0.00000  Uiso   1.00
Cu1655 Cu    0.83333   0.54689   0.75000   0.00000  Uiso   1.00
Cu1656 Cu    0.83333   0.45311   0.75000   0.00000  Uiso   1.00
H1657  H     0.89723   0.47932   0.89220   0.00000  Uiso   1.00
H1658  H     0.77070   0.52396   0.60787   0.00000  Uiso   1.00
H1659  H     0.77070   0.52017   0.88253   0.00000  Uiso   1.00
H1660  H     0.89590   0.47792   0.61775   0.00000  Uiso   1.00
H1661  H     0.73447   0.53503   0.53609   0.00000  Uiso   1.00
H1662  H     0.93319   0.46709   0.96409   0.00000  Uiso   1.00
N1663  N     0.83333   0.61736   0.75000   0.00000  Uiso   1.00
N1664  N     0.83333   0.38264   0.75000   0.00000  Uiso   1.00
O1665  O     0.77321   0.53958   0.75000   0.00000  Uiso   1.00
O1666  O     0.89345   0.46042   0.75001   0.00000  Uiso   1.00
O1667  O     0.89345   0.53958   0.75001   0.00000  Uiso   1.00
O1668  O     0.77321   0.46042   0.75000   0.00000  Uiso   1.00
O1669  O     0.83332   0.53960   0.68513   0.00000  Uiso   1.00
O1670  O     0.83334   0.46040   0.81487   0.00000  Uiso   1.00
O1671  O     0.83334   0.53960   0.81487   0.00000  Uiso   1.00
O1672  O     0.83332   0.46040   0.68513   0.00000  Uiso   1.00
C1673  C     0.72012   0.53670   0.94695   0.00000  Uiso   1.00
C1674  C     0.69815   0.49249   0.93117   0.00000  Uiso   1.00
C1675  C     0.99489   0.50365   0.89849   0.00000  Uiso   1.00
H1676  H     0.97311   0.52783   0.91384   0.00000  Uiso   1.00
H1677  H     0.67228   0.51946   0.86723   0.00000  Uiso   1.00
H1678  H     0.97847   0.47120   0.88968   0.00000  Uiso   1.00
H1679  H     0.71968   0.46918   0.91444   0.00000  Uiso   1.00
H1680  H     0.68710   0.47356   0.96075   0.00000  Uiso   1.00
H1681  H     0.69940   0.55589   0.96877   0.00000  Uiso   1.00
H1682  H     0.72523   0.56066   0.91846   0.00000  Uiso   1.00
C1683  C     0.94672   0.46196   0.55326   0.00000  Uiso   1.00
C1684  C     0.96963   0.50451   0.57169   0.00000  Uiso   1.00
C1685  C     0.67331   0.49025   0.60267   0.00000  Uiso   1.00
H1686  H     0.99643   0.47055   0.63218   0.00000  Uiso   1.00
H1687  H     0.69505   0.46849   0.58447   0.00000  Uiso   1.00
H1688  H     0.68962   0.52169   0.61476   0.00000  Uiso   1.00
H1689  H     0.98045   0.52551   0.54327   0.00000  Uiso   1.00
H1690  H     0.94885   0.52672   0.59062   0.00000  Uiso   1.00
H1691  H     0.94062   0.43678   0.58046   0.00000  Uiso   1.00
H1692  H     0.96729   0.44336   0.53085   0.00000  Uiso   1.00
N1693  N     0.71210   0.41784   0.78122   0.00000  Uiso   1.00
H1694  H     0.70079   0.38660   0.77006   0.00000  Uiso   1.00
C1695  C     0.72477   0.41682   0.82837   0.00000  Uiso   1.00
H1696  H     0.69740   0.41444   0.84882   0.00000  Uiso   1.00
H1697  H     0.74238   0.44839   0.83754   0.00000  Uiso   1.00
H1698  H     0.74500   0.38615   0.83589   0.00000  Uiso   1.00
N1699  N     0.95775   0.58177   0.72647   0.00000  Uiso   1.00
H1700  H     0.97026   0.61286   0.73646   0.00000  Uiso   1.00
C1701  C     0.94852   0.58116   0.67857   0.00000  Uiso   1.00
H1702  H     0.97749   0.58121   0.66061   0.00000  Uiso   1.00
H1703  H     0.93004   0.61246   0.66818   0.00000  Uiso   1.00
H1704  H     0.93036   0.55009   0.66900   0.00000  Uiso   1.00
N1705  N     0.95939   0.41403   0.76301   0.00000  Uiso   1.00
H1706  H     0.96892   0.39314   0.78995   0.00000  Uiso   1.00
C1707  C     0.95418   0.38944   0.72115   0.00000  Uiso   1.00
H1708  H     0.98427   0.37635   0.71057   0.00000  Uiso   1.00
H1709  H     0.94003   0.41253   0.69434   0.00000  Uiso   1.00
H1710  H     0.93344   0.35963   0.72543   0.00000  Uiso   1.00
N1711  N     0.70471   0.58689   0.76424   0.00000  Uiso   1.00
H1712  H     0.72551   0.59865   0.74253   0.00000  Uiso   1.00
C1713  C     0.71490   0.59637   0.81089   0.00000  Uiso   1.00
H1714  H     0.68712   0.59306   0.83055   0.00000  Uiso   1.00
H1715  H     0.72622   0.63241   0.81413   0.00000  Uiso   1.00
H1716  H     0.73930   0.57214   0.82460   0.00000  Uiso   1.00
N1717  N     0.79853   0.38332   0.67601   0.00000  Uiso   1.00
H1718  H     0.80840   0.37176   0.64589   0.00000  Uiso   1.00
C1719  C     0.75575   0.39792   0.67437   0.00000  Uiso   1.00
H1720  H     0.75356   0.43598   0.66875   0.00000  Uiso   1.00
H1721  H     0.74091   0.38859   0.70564   0.00000  Uiso   1.00
H1722  H     0.73850   0.38146   0.64581   0.00000  Uiso   1.00
N1723  N     0.87730   0.61509   0.81729   0.00000  Uiso   1.00
H1724  H     0.86415   0.61218   0.84775   0.00000  Uiso   1.00
C1725  C     0.92136   0.62202   0.82050   0.00000  Uiso   1.00
H1726  H     0.93060   0.63932   0.85240   0.00000  Uiso   1.00
H1727  H     0.93156   0.64369   0.79238   0.00000  Uiso   1.00
H1728  H     0.93726   0.58782   0.82020   0.00000  Uiso   1.00
N1729  N     0.87266   0.37906   0.82193   0.00000  Uiso   1.00
H1730  H     0.89017   0.40789   0.81685   0.00000  Uiso   1.00
C1731  C     0.85665   0.37160   0.86580   0.00000  Uiso   1.00
H1732  H     0.84606   0.40463   0.87958   0.00000  Uiso   1.00
H1733  H     0.88128   0.35690   0.88909   0.00000  Uiso   1.00
H1734  H     0.82993   0.34789   0.86444   0.00000  Uiso   1.00
N1735  N     0.80075   0.61905   0.67550   0.00000  Uiso   1.00
H1736  H     0.81916   0.62377   0.64886   0.00000  Uiso   1.00
C1737  C     0.75715   0.61849   0.66306   0.00000  Uiso   1.00
H1738  H     0.73924   0.64068   0.68493   0.00000  Uiso   1.00
H1739  H     0.74597   0.58236   0.66513   0.00000  Uiso   1.00
H1740  H     0.75152   0.63117   0.62797   0.00000  Uiso   1.00
C1741  C     0.08784   0.83361   0.75408   0.00000  Uiso   1.00
C1742  C     0.24594   0.83299   0.74887   0.00000  Uiso   1.00
C1743  C     0.09530   0.85907   0.51923   0.00000  Uiso   1.00
C1744  C     0.23904   0.80973   0.98094   0.00000  Uiso   1.00
C1745  C     0.02289   0.79189   0.76646   0.00000  Uiso   1.00
C1746  C     0.31192   0.87437   0.74412   0.00000  Uiso   1.00
C1747  C     0.31334   0.79055   0.75970   0.00000  Uiso   1.00
C1748  C     0.02051   0.87604   0.75532   0.00000  Uiso   1.00
C1749  C     0.29100   0.83218   0.74921   0.00000  Uiso   1.00
C1750  C     0.04341   0.83416   0.75994   0.00000  Uiso   1.00
C1751  C     0.14788   0.69211   0.71493   0.00000  Uiso   1.00
C1752  C     0.18706   0.97410   0.78371   0.00000  Uiso   1.00
C1753  C     0.18577   0.69027   0.78476   0.00000  Uiso   1.00
C1754  C     0.14791   0.97586   0.71498   0.00000  Uiso   1.00
C1755  C     0.16648   0.83361   0.66461   0.00000  Uiso   1.00
C1756  C     0.16709   0.83315   0.83543   0.00000  Uiso   1.00
C1757  C     0.20294   0.82181   0.90893   0.00000  Uiso   1.00
C1758  C     0.13152   0.84756   0.59120   0.00000  Uiso   1.00
C1759  C     0.16700   0.83309   0.88360   0.00000  Uiso   1.00
C1760  C     0.16689   0.83424   0.61653   0.00000  Uiso   1.00
C1761  C     0.13105   0.84524   0.90390   0.00000  Uiso   1.00
C1762  C     0.20264   0.82115   0.59630   0.00000  Uiso   1.00
C1763  C     0.13022   0.84605   0.95072   0.00000  Uiso   1.00
C1764  C     0.20384   0.82159   0.54947   0.00000  Uiso   1.00
C1765  C     0.16690   0.83421   0.97662   0.00000  Uiso   1.00
C1766  C     0.16741   0.83441   0.52355   0.00000  Uiso   1.00
C1767  C     0.20312   0.82192   0.95549   0.00000  Uiso   1.00
C1768  C     0.13131   0.84722   0.54466   0.00000  Uiso   1.00
C1769  C     0.09400   0.85828   0.97238   0.00000  Uiso   1.00
C1770  C     0.24005   0.80928   0.52782   0.00000  Uiso   1.00
Cu1771 Cu    0.16667   0.88022   0.75000   0.00000  Uiso   1.00
Cu1772 Cu    0.16667   0.78645   0.75000   0.00000  Uiso   1.00
H1773  H     0.23056   0.81266   0.89220   0.00000  Uiso   1.00
H1774  H     0.10404   0.85729   0.60787   0.00000  Uiso   1.00
H1775  H     0.10403   0.85350   0.88253   0.00000  Uiso   1.00
H1776  H     0.22924   0.81125   0.61775   0.00000  Uiso   1.00
H1777  H     0.06781   0.86837   0.53609   0.00000  Uiso   1.00
H1778  H     0.26652   0.80042   0.96409   0.00000  Uiso   1.00
N1779  N     0.16667   0.95069   0.75000   0.00000  Uiso   1.00
N1780  N     0.16667   0.71598   0.75000   0.00000  Uiso   1.00
O1781  O     0.10655   0.87291   0.75000   0.00000  Uiso   1.00
O1782  O     0.22679   0.79375   0.75001   0.00000  Uiso   1.00
O1783  O     0.22679   0.87291   0.75001   0.00000  Uiso   1.00
O1784  O     0.10655   0.79375   0.75000   0.00000  Uiso   1.00
O1785  O     0.16666   0.87293   0.68513   0.00000  Uiso   1.00
O1786  O     0.16668   0.79373   0.81487   0.00000  Uiso   1.00
O1787  O     0.16668   0.87293   0.81487   0.00000  Uiso   1.00
O1788  O     0.16666   0.79373   0.68513   0.00000  Uiso   1.00
C1789  C     0.05346   0.87003   0.94695   0.00000  Uiso   1.00
C1790  C     0.03149   0.82583   0.93117   0.00000  Uiso   1.00
C1791  C     0.32822   0.83698   0.89849   0.00000  Uiso   1.00
H1792  H     0.30645   0.86116   0.91384   0.00000  Uiso   1.00
H1793  H     0.00561   0.85279   0.86723   0.00000  Uiso   1.00
H1794  H     0.31180   0.80453   0.88968   0.00000  Uiso   1.00
H1795  H     0.05302   0.80252   0.91444   0.00000  Uiso   1.00
H1796  H     0.02043   0.80689   0.96075   0.00000  Uiso   1.00
H1797  H     0.03274   0.88922   0.96877   0.00000  Uiso   1.00
H1798  H     0.05856   0.89399   0.91846   0.00000  Uiso   1.00
C1799  C     0.28005   0.79530   0.55326   0.00000  Uiso   1.00
C1800  C     0.30297   0.83784   0.57169   0.00000  Uiso   1.00
C1801  C     0.00664   0.82358   0.60267   0.00000  Uiso   1.00
H1802  H     0.32976   0.80388   0.63218   0.00000  Uiso   1.00
H1803  H     0.02839   0.80182   0.58447   0.00000  Uiso   1.00
H1804  H     0.02296   0.85503   0.61476   0.00000  Uiso   1.00
H1805  H     0.31378   0.85884   0.54327   0.00000  Uiso   1.00
H1806  H     0.28219   0.86005   0.59062   0.00000  Uiso   1.00
H1807  H     0.27395   0.77011   0.58046   0.00000  Uiso   1.00
H1808  H     0.30063   0.77669   0.53085   0.00000  Uiso   1.00
N1809  N     0.04543   0.75117   0.78122   0.00000  Uiso   1.00
H1810  H     0.03412   0.71994   0.77006   0.00000  Uiso   1.00
C1811  C     0.05810   0.75015   0.82837   0.00000  Uiso   1.00
H1812  H     0.03073   0.74777   0.84882   0.00000  Uiso   1.00
H1813  H     0.07571   0.78173   0.83754   0.00000  Uiso   1.00
H1814  H     0.07834   0.71948   0.83589   0.00000  Uiso   1.00
N1815  N     0.29108   0.91511   0.72647   0.00000  Uiso   1.00
H1816  H     0.30359   0.94620   0.73646   0.00000  Uiso   1.00
C1817  C     0.28185   0.91449   0.67857   0.00000  Uiso   1.00
H1818  H     0.31082   0.91455   0.66061   0.00000  Uiso   1.00
H1819  H     0.26337   0.94580   0.66818   0.00000  Uiso   1.00
H1820  H     0.26369   0.88342   0.66900   0.00000  Uiso   1.00
N1821  N     0.29272   0.74736   0.76301   0.00000  Uiso   1.00
H1822  H     0.30225   0.72648   0.78995   0.00000  Uiso   1.00
C1823  C     0.28751   0.72278   0.72115   0.00000  Uiso   1.00
H1824  H     0.31760   0.70968   0.71057   0.00000  Uiso   1.00
H1825  H     0.27336   0.74586   0.69434   0.00000  Uiso   1.00
H1826  H     0.26677   0.69297   0.72543   0.00000  Uiso   1.00
N1827  N     0.03804   0.92023   0.76424   0.00000  Uiso   1.00
H1828  H     0.05884   0.93198   0.74253   0.00000  Uiso   1.00
C1829  C     0.04823   0.92970   0.81089   0.00000  Uiso   1.00
H1830  H     0.02046   0.92639   0.83055   0.00000  Uiso   1.00
H1831  H     0.05956   0.96574   0.81413   0.00000  Uiso   1.00
H1832  H     0.07263   0.90547   0.82460   0.00000  Uiso   1.00
N1833  N     0.13186   0.71666   0.67601   0.00000  Uiso   1.00
H1834  H     0.14173   0.70510   0.64589   0.00000  Uiso   1.00
C1835  C     0.08908   0.73125   0.67437   0.00000  Uiso   1.00
H1836  H     0.08689   0.76931   0.66875   0.00000  Uiso   1.00
H1837  H     0.07425   0.72193   0.70564   0.00000  Uiso   1.00
H1838  H     0.07183   0.71479   0.64581   0.00000  Uiso   1.00
N1839  N     0.21063   0.94842   0.81729   0.00000  Uiso   1.00
H1840  H     0.19749   0.94552   0.84775   0.00000  Uiso   1.00
C1841  C     0.25469   0.95535   0.82050   0.00000  Uiso   1.00
H1842  H     0.26393   0.97265   0.85240   0.00000  Uiso   1.00
H1843  H     0.26489   0.97702   0.79238   0.00000  Uiso   1.00
H1844  H     0.27059   0.92116   0.82020   0.00000  Uiso   1.00
N1845  N     0.20599   0.71239   0.82193   0.00000  Uiso   1.00
H1846  H     0.22350   0.74122   0.81685   0.00000  Uiso   1.00
C1847  C     0.18998   0.70493   0.86580   0.00000  Uiso   1.00
H1848  H     0.17939   0.73797   0.87958   0.00000  Uiso   1.00
H1849  H     0.21461   0.69023   0.88909   0.00000  Uiso   1.00
H1850  H     0.16326   0.68122   0.86444   0.00000  Uiso   1.00
N1851  N     0.13408   0.95238   0.67550   0.00000  Uiso   1.00
H1852  H     0.15249   0.95710   0.64886   0.00000  Uiso   1.00
C1853  C     0.09049   0.95182   0.66306   0.00000  Uiso   1.00
H1854  H     0.07257   0.97401   0.68493   0.00000  Uiso   1.00
H1855  H     0.07930   0.91570   0.66513   0.00000  Uiso   1.00
H1856  H     0.08485   0.96451   0.62797   0.00000  Uiso   1.00
C1857  C     0.42117   0.83361   0.75408   0.00000  Uiso   1.00
C1858  C     0.57927   0.83299   0.74887   0.00000  Uiso   1.00
C1859  C     0.42863   0.85907   0.51923   0.00000  Uiso   1.00
C1860  C     0.57237   0.80973   0.98094   0.00000  Uiso   1.00
C1861  C     0.35622   0.79189   0.76646   0.00000  Uiso   1.00
C1862  C     0.64526   0.87437   0.74412   0.00000  Uiso   1.00
C1863  C     0.64667   0.79055   0.75970   0.00000  Uiso   1.00
C1864  C     0.35384   0.87604   0.75532   0.00000  Uiso   1.00
C1865  C     0.62433   0.83218   0.74921   0.00000  Uiso   1.00
C1866  C     0.37674   0.83416   0.75994   0.00000  Uiso   1.00
C1867  C     0.48122   0.69211   0.71493   0.00000  Uiso   1.00
C1868  C     0.52039   0.97410   0.78371   0.00000  Uiso   1.00
C1869  C     0.51910   0.69027   0.78476   0.00000  Uiso   1.00
C1870  C     0.48124   0.97586   0.71498   0.00000  Uiso   1.00
C1871  C     0.49982   0.83361   0.66461   0.00000  Uiso   1.00
C1872  C     0.50042   0.83315   0.83543   0.00000  Uiso   1.00
C1873  C     0.53628   0.82181   0.90893   0.00000  Uiso   1.00
C1874  C     0.46486   0.84756   0.59120   0.00000  Uiso   1.00
C1875  C     0.50034   0.83309   0.88360   0.00000  Uiso   1.00
C1876  C     0.50022   0.83424   0.61653   0.00000  Uiso   1.00
C1877  C     0.46438   0.84524   0.90390   0.00000  Uiso   1.00
C1878  C     0.53598   0.82115   0.59630   0.00000  Uiso   1.00
C1879  C     0.46355   0.84605   0.95072   0.00000  Uiso   1.00
C1880  C     0.53717   0.82159   0.54947   0.00000  Uiso   1.00
C1881  C     0.50023   0.83421   0.97662   0.00000  Uiso   1.00
C1882  C     0.50074   0.83441   0.52355   0.00000  Uiso   1.00
C1883  C     0.53645   0.82192   0.95549   0.00000  Uiso   1.00
C1884  C     0.46465   0.84722   0.54466   0.00000  Uiso   1.00
C1885  C     0.42733   0.85828   0.97238   0.00000  Uiso   1.00
C1886  C     0.57338   0.80928   0.52782   0.00000  Uiso   1.00
Cu1887 Cu    0.50000   0.88022   0.75000   0.00000  Uiso   1.00
Cu1888 Cu    0.50000   0.78645   0.75000   0.00000  Uiso   1.00
H1889  H     0.56389   0.81266   0.89220   0.00000  Uiso   1.00
H1890  H     0.43737   0.85729   0.60787   0.00000  Uiso   1.00
H1891  H     0.43737   0.85350   0.88253   0.00000  Uiso   1.00
H1892  H     0.56257   0.81125   0.61775   0.00000  Uiso   1.00
H1893  H     0.40114   0.86837   0.53609   0.00000  Uiso   1.00
H1894  H     0.59985   0.80042   0.96409   0.00000  Uiso   1.00
N1895  N     0.50000   0.95069   0.75000   0.00000  Uiso   1.00
N1896  N     0.50000   0.71598   0.75000   0.00000  Uiso   1.00
O1897  O     0.43988   0.87291   0.75000   0.00000  Uiso   1.00
O1898  O     0.56012   0.79375   0.75001   0.00000  Uiso   1.00
O1899  O     0.56012   0.87291   0.75001   0.00000  Uiso   1.00
O1900  O     0.43988   0.79375   0.75000   0.00000  Uiso   1.00
O1901  O     0.49999   0.87293   0.68513   0.00000  Uiso   1.00
O1902  O     0.50001   0.79373   0.81487   0.00000  Uiso   1.00
O1903  O     0.50001   0.87293   0.81487   0.00000  Uiso   1.00
O1904  O     0.49999   0.79373   0.68513   0.00000  Uiso   1.00
C1905  C     0.38679   0.87003   0.94695   0.00000  Uiso   1.00
C1906  C     0.36482   0.82583   0.93117   0.00000  Uiso   1.00
C1907  C     0.66156   0.83698   0.89849   0.00000  Uiso   1.00
H1908  H     0.63978   0.86116   0.91384   0.00000  Uiso   1.00
H1909  H     0.33895   0.85279   0.86723   0.00000  Uiso   1.00
H1910  H     0.64514   0.80453   0.88968   0.00000  Uiso   1.00
H1911  H     0.38635   0.80252   0.91444   0.00000  Uiso   1.00
H1912  H     0.35376   0.80689   0.96075   0.00000  Uiso   1.00
H1913  H     0.36607   0.88922   0.96877   0.00000  Uiso   1.00
H1914  H     0.39190   0.89399   0.91846   0.00000  Uiso   1.00
C1915  C     0.61338   0.79530   0.55326   0.00000  Uiso   1.00
C1916  C     0.63630   0.83784   0.57169   0.00000  Uiso   1.00
C1917  C     0.33997   0.82358   0.60267   0.00000  Uiso   1.00
H1918  H     0.66310   0.80388   0.63218   0.00000  Uiso   1.00
H1919  H     0.36172   0.80182   0.58447   0.00000  Uiso   1.00
H1920  H     0.35629   0.85503   0.61476   0.00000  Uiso   1.00
H1921  H     0.64711   0.85884   0.54327   0.00000  Uiso   1.00
H1922  H     0.61552   0.86005   0.59062   0.00000  Uiso   1.00
H1923  H     0.60729   0.77011   0.58046   0.00000  Uiso   1.00
H1924  H     0.63396   0.77669   0.53085   0.00000  Uiso   1.00
N1925  N     0.37877   0.75117   0.78122   0.00000  Uiso   1.00
H1926  H     0.36746   0.71994   0.77006   0.00000  Uiso   1.00
C1927  C     0.39143   0.75015   0.82837   0.00000  Uiso   1.00
H1928  H     0.36407   0.74777   0.84882   0.00000  Uiso   1.00
H1929  H     0.40904   0.78173   0.83754   0.00000  Uiso   1.00
H1930  H     0.41167   0.71948   0.83589   0.00000  Uiso   1.00
N1931  N     0.62441   0.91511   0.72647   0.00000  Uiso   1.00
H1932  H     0.63693   0.94620   0.73646   0.00000  Uiso   1.00
C1933  C     0.61518   0.91449   0.67857   0.00000  Uiso   1.00
H1934  H     0.64416   0.91455   0.66061   0.00000  Uiso   1.00
H1935  H     0.59671   0.94580   0.66818   0.00000  Uiso   1.00
H1936  H     0.59703   0.88342   0.66900   0.00000  Uiso   1.00
N1937  N     0.62605   0.74736   0.76301   0.00000  Uiso   1.00
H1938  H     0.63559   0.72648   0.78995   0.00000  Uiso   1.00
C1939  C     0.62084   0.72278   0.72115   0.00000  Uiso   1.00
H1940  H     0.65094   0.70968   0.71057   0.00000  Uiso   1.00
H1941  H     0.60669   0.74586   0.69434   0.00000  Uiso   1.00
H1942  H     0.60011   0.69297   0.72543   0.00000  Uiso   1.00
N1943  N     0.37138   0.92023   0.76424   0.00000  Uiso   1.00
H1944  H     0.39218   0.93198   0.74253   0.00000  Uiso   1.00
C1945  C     0.38156   0.92970   0.81089   0.00000  Uiso   1.00
H1946  H     0.35379   0.92639   0.83055   0.00000  Uiso   1.00
H1947  H     0.39289   0.96574   0.81413   0.00000  Uiso   1.00
H1948  H     0.40596   0.90547   0.82460   0.00000  Uiso   1.00
N1949  N     0.46519   0.71666   0.67601   0.00000  Uiso   1.00
H1950  H     0.47506   0.70510   0.64589   0.00000  Uiso   1.00
C1951  C     0.42241   0.73125   0.67437   0.00000  Uiso   1.00
H1952  H     0.42023   0.76931   0.66875   0.00000  Uiso   1.00
H1953  H     0.40758   0.72193   0.70564   0.00000  Uiso   1.00
H1954  H     0.40517   0.71479   0.64581   0.00000  Uiso   1.00
N1955  N     0.54396   0.94842   0.81729   0.00000  Uiso   1.00
H1956  H     0.53082   0.94552   0.84775   0.00000  Uiso   1.00
C1957  C     0.58803   0.95535   0.82050   0.00000  Uiso   1.00
H1958  H     0.59726   0.97265   0.85240   0.00000  Uiso   1.00
H1959  H     0.59822   0.97702   0.79238   0.00000  Uiso   1.00
H1960  H     0.60393   0.92116   0.82020   0.00000  Uiso   1.00
N1961  N     0.53932   0.71239   0.82193   0.00000  Uiso   1.00
H1962  H     0.55684   0.74122   0.81685   0.00000  Uiso   1.00
C1963  C     0.52331   0.70493   0.86580   0.00000  Uiso   1.00
H1964  H     0.51273   0.73797   0.87958   0.00000  Uiso   1.00
H1965  H     0.54795   0.69023   0.88909   0.00000  Uiso   1.00
H1966  H     0.49660   0.68122   0.86444   0.00000  Uiso   1.00
N1967  N     0.46742   0.95238   0.67550   0.00000  Uiso   1.00
H1968  H     0.48582   0.95710   0.64886   0.00000  Uiso   1.00
C1969  C     0.42382   0.95182   0.66306   0.00000  Uiso   1.00
H1970  H     0.40590   0.97401   0.68493   0.00000  Uiso   1.00
H1971  H     0.41264   0.91570   0.66513   0.00000  Uiso   1.00
H1972  H     0.41819   0.96451   0.62797   0.00000  Uiso   1.00
C1973  C     0.75450   0.83361   0.75408   0.00000  Uiso   1.00
C1974  C     0.91260   0.83299   0.74887   0.00000  Uiso   1.00
C1975  C     0.76197   0.85907   0.51923   0.00000  Uiso   1.00
C1976  C     0.90571   0.80973   0.98094   0.00000  Uiso   1.00
C1977  C     0.68956   0.79189   0.76646   0.00000  Uiso   1.00
C1978  C     0.97859   0.87437   0.74412   0.00000  Uiso   1.00
C1979  C     0.98001   0.79055   0.75970   0.00000  Uiso   1.00
C1980  C     0.68718   0.87604   0.75532   0.00000  Uiso   1.00
C1981  C     0.95766   0.83218   0.74921   0.00000  Uiso   1.00
C1982  C     0.71007   0.83416   0.75994   0.00000  Uiso   1.00
C1983  C     0.81455   0.69211   0.71493   0.00000  Uiso   1.00
C1984  C     0.85372   0.97410   0.78371   0.00000  Uiso   1.00
C1985  C     0.85244   0.69027   0.78476   0.00000  Uiso   1.00
C1986  C     0.81457   0.97586   0.71498   0.00000  Uiso   1.00
C1987  C     0.83315   0.83361   0.66461   0.00000  Uiso   1.00
C1988  C     0.83375   0.83315   0.83543   0.00000  Uiso   1.00
C1989  C     0.86961   0.82181   0.90893   0.00000  Uiso   1.00
C1990  C     0.79819   0.84756   0.59120   0.00000  Uiso   1.00
C1991  C     0.83367   0.83309   0.88360   0.00000  Uiso   1.00
C1992  C     0.83356   0.83424   0.61653   0.00000  Uiso   1.00
C1993  C     0.79772   0.84524   0.90390   0.00000  Uiso   1.00
C1994  C     0.86931   0.82115   0.59630   0.00000  Uiso   1.00
C1995  C     0.79689   0.84605   0.95072   0.00000  Uiso   1.00
C1996  C     0.87050   0.82159   0.54947   0.00000  Uiso   1.00
C1997  C     0.83357   0.83421   0.97662   0.00000  Uiso   1.00
C1998  C     0.83408   0.83441   0.52355   0.00000  Uiso   1.00
C1999  C     0.86978   0.82192   0.95549   0.00000  Uiso   1.00
C2000  C     0.79798   0.84722   0.54466   0.00000  Uiso   1.00
C2001  C     0.76066   0.85828   0.97238   0.00000  Uiso   1.00
C2002  C     0.90671   0.80928   0.52782   0.00000  Uiso   1.00
Cu2003 Cu    0.83333   0.88022   0.75000   0.00000  Uiso   1.00
Cu2004 Cu    0.83333   0.78645   0.75000   0.00000  Uiso   1.00
H2005  H     0.89723   0.81266   0.89220   0.00000  Uiso   1.00
H2006  H     0.77070   0.85729   0.60787   0.00000  Uiso   1.00
H2007  H     0.77070   0.85350   0.88253   0.00000  Uiso   1.00
H2008  H     0.89590   0.81125   0.61775   0.00000  Uiso   1.00
H2009  H     0.73447   0.86837   0.53609   0.00000  Uiso   1.00
H2010  H     0.93319   0.80042   0.96409   0.00000  Uiso   1.00
N2011  N     0.83333   0.95069   0.75000   0.00000  Uiso   1.00
N2012  N     0.83333   0.71598   0.75000   0.00000  Uiso   1.00
O2013  O     0.77321   0.87291   0.75000   0.00000  Uiso   1.00
O2014  O     0.89345   0.79375   0.75001   0.00000  Uiso   1.00
O2015  O     0.89345   0.87291   0.75001   0.00000  Uiso   1.00
O2016  O     0.77321   0.79375   0.75000   0.00000  Uiso   1.00
O2017  O     0.83332   0.87293   0.68513   0.00000  Uiso   1.00
O2018  O     0.83334   0.79373   0.81487   0.00000  Uiso   1.00
O2019  O     0.83334   0.87293   0.81487   0.00000  Uiso   1.00
O2020  O     0.83332   0.79373   0.68513   0.00000  Uiso   1.00
C2021  C     0.72012   0.87003   0.94695   0.00000  Uiso   1.00
C2022  C     0.69815   0.82583   0.93117   0.00000  Uiso   1.00
C2023  C     0.99489   0.83698   0.89849   0.00000  Uiso   1.00
H2024  H     0.97311   0.86116   0.91384   0.00000  Uiso   1.00
H2025  H     0.67228   0.85279   0.86723   0.00000  Uiso   1.00
H2026  H     0.97847   0.80453   0.88968   0.00000  Uiso   1.00
H2027  H     0.71968   0.80252   0.91444   0.00000  Uiso   1.00
H2028  H     0.68710   0.80689   0.96075   0.00000  Uiso   1.00
H2029  H     0.69940   0.88922   0.96877   0.00000  Uiso   1.00
H2030  H     0.72523   0.89399   0.91846   0.00000  Uiso   1.00
C2031  C     0.94672   0.79530   0.55326   0.00000  Uiso   1.00
C2032  C     0.96963   0.83784   0.57169   0.00000  Uiso   1.00
C2033  C     0.67331   0.82358   0.60267   0.00000  Uiso   1.00
H2034  H     0.99643   0.80388   0.63218   0.00000  Uiso   1.00
H2035  H     0.69505   0.80182   0.58447   0.00000  Uiso   1.00
H2036  H     0.68962   0.85503   0.61476   0.00000  Uiso   1.00
H2037  H     0.98045   0.85884   0.54327   0.00000  Uiso   1.00
H2038  H     0.94885   0.86005   0.59062   0.00000  Uiso   1.00
H2039  H     0.94062   0.77011   0.58046   0.00000  Uiso   1.00
H2040  H     0.96729   0.77669   0.53085   0.00000  Uiso   1.00
N2041  N     0.71210   0.75117   0.78122   0.00000  Uiso   1.00
H2042  H     0.70079   0.71994   0.77006   0.00000  Uiso   1.00
C2043  C     0.72477   0.75015   0.82837   0.00000  Uiso   1.00
H2044  H     0.69740   0.74777   0.84882   0.00000  Uiso   1.00
H2045  H     0.74238   0.78173   0.83754   0.00000  Uiso   1.00
H2046  H     0.74500   0.71948   0.83589   0.00000  Uiso   1.00
N2047  N     0.95775   0.91511   0.72647   0.00000  Uiso   1.00
H2048  H     0.97026   0.94620   0.73646   0.00000  Uiso   1.00
C2049  C     0.94852   0.91449   0.67857   0.00000  Uiso   1.00
H2050  H     0.97749   0.91455   0.66061   0.00000  Uiso   1.00
H2051  H     0.93004   0.94580   0.66818   0.00000  Uiso   1.00
H2052  H     0.93036   0.88342   0.66900   0.00000  Uiso   1.00
N2053  N     0.95939   0.74736   0.76301   0.00000  Uiso   1.00
H2054  H     0.96892   0.72648   0.78995   0.00000  Uiso   1.00
C2055  C     0.95418   0.72278   0.72115   0.00000  Uiso   1.00
H2056  H     0.98427   0.70968   0.71057   0.00000  Uiso   1.00
H2057  H     0.94003   0.74586   0.69434   0.00000  Uiso   1.00
H2058  H     0.93344   0.69297   0.72543   0.00000  Uiso   1.00
N2059  N     0.70471   0.92023   0.76424   0.00000  Uiso   1.00
H2060  H     0.72551   0.93198   0.74253   0.00000  Uiso   1.00
C2061  C     0.71490   0.92970   0.81089   0.00000  Uiso   1.00
H2062  H     0.68712   0.92639   0.83055   0.00000  Uiso   1.00
H2063  H     0.72622   0.96574   0.81413   0.00000  Uiso   1.00
H2064  H     0.73930   0.90547   0.82460   0.00000  Uiso   1.00
N2065  N     0.79853   0.71666   0.67601   0.00000  Uiso   1.00
H2066  H     0.80840   0.70510   0.64589   0.00000  Uiso   1.00
C2067  C     0.75575   0.73125   0.67437   0.00000  Uiso   1.00
H2068  H     0.75356   0.76931   0.66875   0.00000  Uiso   1.00
H2069  H     0.74091   0.72193   0.70564   0.00000  Uiso   1.00
H2070  H     0.73850   0.71479   0.64581   0.00000  Uiso   1.00
N2071  N     0.87730   0.94842   0.81729   0.00000  Uiso   1.00
H2072  H     0.86415   0.94552   0.84775   0.00000  Uiso   1.00
C2073  C     0.92136   0.95535   0.82050   0.00000  Uiso   1.00
H2074  H     0.93060   0.97265   0.85240   0.00000  Uiso   1.00
H2075  H     0.93156   0.97702   0.79238   0.00000  Uiso   1.00
H2076  H     0.93726   0.92116   0.82020   0.00000  Uiso   1.00
N2077  N     0.87266   0.71239   0.82193   0.00000  Uiso   1.00
H2078  H     0.89017   0.74122   0.81685   0.00000  Uiso   1.00
C2079  C     0.85665   0.70493   0.86580   0.00000  Uiso   1.00
H2080  H     0.84606   0.73797   0.87958   0.00000  Uiso   1.00
H2081  H     0.88128   0.69023   0.88909   0.00000  Uiso   1.00
H2082  H     0.82993   0.68122   0.86444   0.00000  Uiso   1.00
N2083  N     0.80075   0.95238   0.67550   0.00000  Uiso   1.00
H2084  H     0.81916   0.95710   0.64886   0.00000  Uiso   1.00
C2085  C     0.75715   0.95182   0.66306   0.00000  Uiso   1.00
H2086  H     0.73924   0.97401   0.68493   0.00000  Uiso   1.00
H2087  H     0.74597   0.91570   0.66513   0.00000  Uiso   1.00
H2088  H     0.75152   0.96451   0.62797   0.00000  Uiso   1.00
loop_
_geom_bond_atom_site_label_1
_geom_bond_atom_site_label_2
_geom_bond_distance
_geom_bond_site_symmetry_2
_ccdc_geom_bond_type
C1     O44     1.306   .     A
C1     O41     1.300   .     A
C1     C10     1.467   .     S
C2     O43     1.305   .     A
C2     O42     1.299   .     A
C2     C9      1.467   .     S
C3     C28     1.398   .     A
C3     H37     1.085   .     S
C3     C1073   1.399   1_554 S
C4     H38     1.084   .     S
C4     C27     1.398   .     A
C4     C1074   1.400   .     S
C5     N69     1.430   .     S
C5     C10     1.413   .     A
C5     C239    1.401   1_455 S
C6     C9      1.412   .     A
C6     N75     1.430   .     S
C6     C124    1.389   .     S
C7     C9      1.419   .     A
C7     N81     1.426   .     S
C7     C121    1.401   .     S
C8     C10     1.414   .     A
C8     N87     1.424   .     S
C8     C238    1.389   1_455 S
C11    N93     1.424   .     S
C11    N40     1.380   .     A
C11    C710    1.430   1_545 S
C12    N99     1.424   .     S
C12    N39     1.366   .     A
C12    C361    1.429   .     S
C13    N40     1.383   .     A
C13    N105    1.422   .     S
C13    C708    1.429   1_545 S
C14    N39     1.376   .     A
C14    N111    1.422   .     S
C14    C359    1.430   .     S
C15    O48     1.296   .     A
C15    C20     1.438   .     S
C15    O45     1.296   .     A
C16    O47     1.294   .     A
C16    O46     1.299   .     A
C16    C19     1.440   .     S
C17    H33     1.085   .     S
C17    C27     1.392   .     A
C17    C19     1.391   .     A
C18    C28     1.391   .     A
C18    H34     1.085   .     S
C18    C20     1.390   .     A
C19    C21     1.392   .     A
C20    C22     1.393   .     A
C21    C23     1.402   .     A
C21    H35     1.080   .     S
C22    C24     1.402   .     A
C22    H36     1.082   .     S
C23    C29     1.421   .     A
C23    C25     1.422   .     A
C24    C26     1.423   .     A
C24    C30     1.421   .     A
C25    C27     1.413   .     A
C25    C1070   1.402   .     S
C26    C28     1.413   .     A
C26    C1069   1.402   1_554 S
C29    C49     1.519   .     S
C29    C1047   1.399   .     S
C30    C59     1.519   .     S
C30    C1048   1.400   1_554 S
Cu31   O43     1.967   .     S
Cu31   O47     1.948   .     S
Cu31   O41     1.971   .     S
Cu31   Cu32    2.705   .     S
Cu31   N39     2.032   .     S
Cu31   O45     1.953   .     S
Cu32   N40     2.032   .     S
Cu32   O48     1.948   .     S
Cu32   O44     1.967   .     S
Cu32   O46     1.953   .     S
Cu32   O42     1.971   .     S
C49    H57     1.113   .     S
C49    H58     1.111   .     S
C49    C50     1.536   .     S
C50    H56     1.112   .     S
C50    H55     1.110   .     S
C50    C283    1.527   1_455 S
C51    H52     1.111   .     S
C51    H54     1.110   .     S
C51    C166    1.527   .     S
C51    H169    1.110   .     S
H53    C283    1.110   1_455 S
C59    H67     1.111   .     S
C59    C60     1.536   .     S
C59    H68     1.113   .     S
C60    H66     1.110   .     S
C60    H65     1.112   .     S
C60    C177    1.527   .     S
C61    H63     1.111   .     S
C61    H64     1.110   .     S
C61    C292    1.527   1_455 S
C61    H294    1.111   1_455 S
H62    C177    1.111   .     S
N69    C71     1.446   .     S
N69    H70     1.029   .     S
C71    H73     1.111   .     S
C71    H74     1.110   .     S
C71    H72     1.111   .     S
N75    H76     1.030   .     S
N75    C77     1.447   .     S
C77    H78     1.111   .     S
C77    H79     1.111   .     S
C77    H80     1.111   .     S
N81    H82     1.031   .     S
N81    C83     1.449   .     S
C83    H84     1.111   .     S
C83    H85     1.112   .     S
C83    H86     1.109   .     S
N87    H88     1.022   .     S
N87    C89     1.445   .     S
C89    H91     1.110   .     S
C89    H92     1.110   .     S
C89    H90     1.110   .     S
N93    H94     1.031   .     S
N93    C95     1.449   .     S
C95    H96     1.109   .     S
C95    H98     1.110   .     S
C95    H97     1.107   .     S
N99    H100    1.030   .     S
N99    C101    1.449   .     S
C101   H102    1.110   .     S
C101   H103    1.109   .     S
C101   H104    1.109   .     S
N105   C107    1.452   .     S
N105   H106    1.028   .     S
C107   H109    1.109   .     S
C107   H108    1.103   .     S
C107   H110    1.112   .     S
N111   C113    1.448   .     S
N111   H112    1.032   .     S
C113   H116    1.111   .     S
C113   H114    1.106   .     S
C113   H115    1.110   .     S
C117   O160    1.306   .     A
C117   O157    1.300   .     A
C117   C126    1.467   .     S
C118   O159    1.305   .     A
C118   O158    1.299   .     A
C118   C125    1.467   .     S
C119   C144    1.398   .     A
C119   H153    1.085   .     S
C119   C1189   1.399   1_554 S
C120   H154    1.084   .     S
C120   C143    1.398   .     A
C120   C1190   1.400   .     S
C121   N185    1.430   .     S
C121   C126    1.413   .     A
C122   C125    1.412   .     A
C122   N191    1.430   .     S
C122   C240    1.389   .     S
C123   C125    1.419   .     A
C123   N197    1.426   .     S
C123   C237    1.401   .     S
C124   C126    1.414   .     A
C124   N203    1.424   .     S
C127   N209    1.424   .     S
C127   N156    1.380   .     A
C127   C826    1.430   1_545 S
C128   N215    1.424   .     S
C128   N155    1.366   .     A
C128   C477    1.429   .     S
C129   N156    1.383   .     A
C129   N221    1.422   .     S
C129   C824    1.429   1_545 S
C130   N155    1.376   .     A
C130   N227    1.422   .     S
C130   C475    1.430   .     S
C131   O164    1.296   .     A
C131   C136    1.438   .     S
C131   O161    1.296   .     A
C132   O163    1.294   .     A
C132   O162    1.299   .     A
C132   C135    1.440   .     S
C133   H149    1.085   .     S
C133   C143    1.392   .     A
C133   C135    1.391   .     A
C134   C144    1.391   .     A
C134   H150    1.085   .     S
C134   C136    1.390   .     A
C135   C137    1.392   .     A
C136   C138    1.393   .     A
C137   C139    1.402   .     A
C137   H151    1.080   .     S
C138   C140    1.402   .     A
C138   H152    1.082   .     S
C139   C145    1.421   .     A
C139   C141    1.422   .     A
C140   C142    1.423   .     A
C140   C146    1.421   .     A
C141   C143    1.413   .     A
C141   C1186   1.402   .     S
C142   C144    1.413   .     A
C142   C1185   1.402   1_554 S
C145   C165    1.519   .     S
C145   C1163   1.399   .     S
C146   C175    1.519   .     S
C146   C1164   1.400   1_554 S
Cu147  O159    1.967   .     S
Cu147  O163    1.948   .     S
Cu147  O157    1.971   .     S
Cu147  Cu148   2.705   .     S
Cu147  N155    2.032   .     S
Cu147  O161    1.953   .     S
Cu148  N156    2.032   .     S
Cu148  O164    1.948   .     S
Cu148  O160    1.967   .     S
Cu148  O162    1.953   .     S
Cu148  O158    1.971   .     S
C165   H173    1.113   .     S
C165   H174    1.111   .     S
C165   C166    1.536   .     S
C166   H172    1.112   .     S
C166   H171    1.110   .     S
C167   H168    1.111   .     S
C167   H170    1.110   .     S
C167   C282    1.527   .     S
C167   H285    1.110   .     S
C175   H183    1.111   .     S
C175   C176    1.536   .     S
C175   H184    1.113   .     S
C176   H182    1.110   .     S
C176   H181    1.112   .     S
C176   C293    1.527   .     S
C177   H179    1.111   .     S
C177   H180    1.110   .     S
H178   C293    1.111   .     S
N185   C187    1.446   .     S
N185   H186    1.029   .     S
C187   H189    1.111   .     S
C187   H190    1.110   .     S
C187   H188    1.111   .     S
N191   H192    1.030   .     S
N191   C193    1.447   .     S
C193   H194    1.111   .     S
C193   H195    1.111   .     S
C193   H196    1.111   .     S
N197   H198    1.031   .     S
N197   C199    1.449   .     S
C199   H200    1.111   .     S
C199   H201    1.112   .     S
C199   H202    1.109   .     S
N203   H204    1.022   .     S
N203   C205    1.445   .     S
C205   H207    1.110   .     S
C205   H208    1.110   .     S
C205   H206    1.110   .     S
N209   H210    1.031   .     S
N209   C211    1.449   .     S
C211   H212    1.109   .     S
C211   H214    1.110   .     S
C211   H213    1.107   .     S
N215   H216    1.030   .     S
N215   C217    1.449   .     S
C217   H218    1.110   .     S
C217   H219    1.109   .     S
C217   H220    1.109   .     S
N221   C223    1.452   .     S
N221   H222    1.028   .     S
C223   H225    1.109   .     S
C223   H224    1.103   .     S
C223   H226    1.112   .     S
N227   C229    1.448   .     S
N227   H228    1.032   .     S
C229   H232    1.111   .     S
C229   H230    1.106   .     S
C229   H231    1.110   .     S
C233   O276    1.306   .     A
C233   O273    1.300   .     A
C233   C242    1.467   .     S
C234   O275    1.305   .     A
C234   O274    1.299   .     A
C234   C241    1.467   .     S
C235   C260    1.398   .     A
C235   H269    1.085   .     S
C235   C1305   1.399   1_554 S
C236   H270    1.084   .     S
C236   C259    1.398   .     A
C236   C1306   1.400   .     S
C237   N301    1.430   .     S
C237   C242    1.413   .     A
C238   C241    1.412   .     A
C238   N307    1.430   .     S
C238   C8      1.389   1_655 S
C239   C241    1.419   .     A
C239   N313    1.426   .     S
C239   C5      1.401   1_655 S
C240   C242    1.414   .     A
C240   N319    1.424   .     S
C243   N325    1.424   .     S
C243   N272    1.380   .     A
C243   C942    1.430   1_545 S
C244   N331    1.424   .     S
C244   N271    1.366   .     A
C244   C593    1.429   .     S
C245   N272    1.383   .     A
C245   N337    1.422   .     S
C245   C940    1.429   1_545 S
C246   N271    1.376   .     A
C246   N343    1.422   .     S
C246   C591    1.430   .     S
C247   O280    1.296   .     A
C247   C252    1.438   .     S
C247   O277    1.296   .     A
C248   O279    1.294   .     A
C248   O278    1.299   .     A
C248   C251    1.440   .     S
C249   H265    1.085   .     S
C249   C259    1.392   .     A
C249   C251    1.391   .     A
C250   C260    1.391   .     A
C250   H266    1.085   .     S
C250   C252    1.390   .     A
C251   C253    1.392   .     A
C252   C254    1.393   .     A
C253   C255    1.402   .     A
C253   H267    1.080   .     S
C254   C256    1.402   .     A
C254   H268    1.082   .     S
C255   C261    1.421   .     A
C255   C257    1.422   .     A
C256   C258    1.423   .     A
C256   C262    1.421   .     A
C257   C259    1.413   .     A
C257   C1302   1.402   .     S
C258   C260    1.413   .     A
C258   C1301   1.402   1_554 S
C261   C281    1.519   .     S
C261   C1279   1.399   .     S
C262   C291    1.519   .     S
C262   C1280   1.400   1_554 S
Cu263  O275    1.967   .     S
Cu263  O279    1.948   .     S
Cu263  O273    1.971   .     S
Cu263  Cu264   2.705   .     S
Cu263  N271    2.032   .     S
Cu263  O277    1.953   .     S
Cu264  N272    2.032   .     S
Cu264  O280    1.948   .     S
Cu264  O276    1.967   .     S
Cu264  O278    1.953   .     S
Cu264  O274    1.971   .     S
C281   H289    1.113   .     S
C281   H290    1.111   .     S
C281   C282    1.536   .     S
C282   H288    1.112   .     S
C282   H287    1.110   .     S
C283   H284    1.111   .     S
C283   H286    1.110   .     S
C283   C50     1.527   1_655 S
C283   H53     1.110   1_655 S
C291   H299    1.111   .     S
C291   C292    1.536   .     S
C291   H300    1.113   .     S
C292   H298    1.110   .     S
C292   H297    1.112   .     S
C292   C61     1.527   1_655 S
C293   H295    1.111   .     S
C293   H296    1.110   .     S
H294   C61     1.111   1_655 S
N301   C303    1.446   .     S
N301   H302    1.029   .     S
C303   H305    1.111   .     S
C303   H306    1.110   .     S
C303   H304    1.111   .     S
N307   H308    1.030   .     S
N307   C309    1.447   .     S
C309   H310    1.111   .     S
C309   H311    1.111   .     S
C309   H312    1.111   .     S
N313   H314    1.031   .     S
N313   C315    1.449   .     S
C315   H316    1.111   .     S
C315   H317    1.112   .     S
C315   H318    1.109   .     S
N319   H320    1.022   .     S
N319   C321    1.445   .     S
C321   H323    1.110   .     S
C321   H324    1.110   .     S
C321   H322    1.110   .     S
N325   H326    1.031   .     S
N325   C327    1.449   .     S
C327   H328    1.109   .     S
C327   H330    1.110   .     S
C327   H329    1.107   .     S
N331   H332    1.030   .     S
N331   C333    1.449   .     S
C333   H334    1.110   .     S
C333   H335    1.109   .     S
C333   H336    1.109   .     S
N337   C339    1.452   .     S
N337   H338    1.028   .     S
C339   H341    1.109   .     S
C339   H340    1.103   .     S
C339   H342    1.112   .     S
N343   C345    1.448   .     S
N343   H344    1.032   .     S
C345   H348    1.111   .     S
C345   H346    1.106   .     S
C345   H347    1.110   .     S
C349   O392    1.306   .     A
C349   O389    1.300   .     A
C349   C358    1.467   .     S
C350   O391    1.305   .     A
C350   O390    1.299   .     A
C350   C357    1.467   .     S
C351   C376    1.398   .     A
C351   H385    1.085   .     S
C351   C1421   1.399   1_554 S
C352   H386    1.084   .     S
C352   C375    1.398   .     A
C352   C1422   1.400   .     S
C353   N417    1.430   .     S
C353   C358    1.413   .     A
C353   C587    1.401   1_455 S
C354   C357    1.412   .     A
C354   N423    1.430   .     S
C354   C472    1.389   .     S
C355   C357    1.419   .     A
C355   N429    1.426   .     S
C355   C469    1.401   .     S
C356   C358    1.414   .     A
C356   N435    1.424   .     S
C356   C586    1.389   1_455 S
C359   N441    1.424   .     S
C359   N388    1.380   .     A
C360   N447    1.424   .     S
C360   N387    1.366   .     A
C360   C709    1.429   .     S
C361   N388    1.383   .     A
C361   N453    1.422   .     S
C362   N387    1.376   .     A
C362   N459    1.422   .     S
C362   C707    1.430   .     S
C363   O396    1.296   .     A
C363   C368    1.438   .     S
C363   O393    1.296   .     A
C364   O395    1.294   .     A
C364   O394    1.299   .     A
C364   C367    1.440   .     S
C365   H381    1.085   .     S
C365   C375    1.392   .     A
C365   C367    1.391   .     A
C366   C376    1.391   .     A
C366   H382    1.085   .     S
C366   C368    1.390   .     A
C367   C369    1.392   .     A
C368   C370    1.393   .     A
C369   C371    1.402   .     A
C369   H383    1.080   .     S
C370   C372    1.402   .     A
C370   H384    1.082   .     S
C371   C377    1.421   .     A
C371   C373    1.422   .     A
C372   C374    1.423   .     A
C372   C378    1.421   .     A
C373   C375    1.413   .     A
C373   C1418   1.402   .     S
C374   C376    1.413   .     A
C374   C1417   1.402   1_554 S
C377   C397    1.519   .     S
C377   C1395   1.399   .     S
C378   C407    1.519   .     S
C378   C1396   1.400   1_554 S
Cu379  O391    1.967   .     S
Cu379  O395    1.948   .     S
Cu379  O389    1.971   .     S
Cu379  Cu380   2.705   .     S
Cu379  N387    2.032   .     S
Cu379  O393    1.953   .     S
Cu380  N388    2.032   .     S
Cu380  O396    1.948   .     S
Cu380  O392    1.967   .     S
Cu380  O394    1.953   .     S
Cu380  O390    1.971   .     S
C397   H405    1.113   .     S
C397   H406    1.111   .     S
C397   C398    1.536   .     S
C398   H404    1.112   .     S
C398   H403    1.110   .     S
C398   C631    1.527   1_455 S
C399   H400    1.111   .     S
C399   H402    1.110   .     S
C399   C514    1.527   .     S
C399   H517    1.110   .     S
H401   C631    1.110   1_455 S
C407   H415    1.111   .     S
C407   C408    1.536   .     S
C407   H416    1.113   .     S
C408   H414    1.110   .     S
C408   H413    1.112   .     S
C408   C525    1.527   .     S
C409   H411    1.111   .     S
C409   H412    1.110   .     S
C409   C640    1.527   1_455 S
C409   H642    1.111   1_455 S
H410   C525    1.111   .     S
N417   C419    1.446   .     S
N417   H418    1.029   .     S
C419   H421    1.111   .     S
C419   H422    1.110   .     S
C419   H420    1.111   .     S
N423   H424    1.030   .     S
N423   C425    1.447   .     S
C425   H426    1.111   .     S
C425   H427    1.111   .     S
C425   H428    1.111   .     S
N429   H430    1.031   .     S
N429   C431    1.449   .     S
C431   H432    1.111   .     S
C431   H433    1.112   .     S
C431   H434    1.109   .     S
N435   H436    1.022   .     S
N435   C437    1.445   .     S
C437   H439    1.110   .     S
C437   H440    1.110   .     S
C437   H438    1.110   .     S
N441   H442    1.031   .     S
N441   C443    1.449   .     S
C443   H444    1.109   .     S
C443   H446    1.110   .     S
C443   H445    1.107   .     S
N447   H448    1.030   .     S
N447   C449    1.449   .     S
C449   H450    1.110   .     S
C449   H451    1.109   .     S
C449   H452    1.109   .     S
N453   C455    1.452   .     S
N453   H454    1.028   .     S
C455   H457    1.109   .     S
C455   H456    1.103   .     S
C455   H458    1.112   .     S
N459   C461    1.448   .     S
N459   H460    1.032   .     S
C461   H464    1.111   .     S
C461   H462    1.106   .     S
C461   H463    1.110   .     S
C465   O508    1.306   .     A
C465   O505    1.300   .     A
C465   C474    1.467   .     S
C466   O507    1.305   .     A
C466   O506    1.299   .     A
C466   C473    1.467   .     S
C467   C492    1.398   .     A
C467   H501    1.085   .     S
C467   C1537   1.399   1_554 S
C468   H502    1.084   .     S
C468   C491    1.398   .     A
C468   C1538   1.400   .     S
C469   N533    1.430   .     S
C469   C474    1.413   .     A
C470   C473    1.412   .     A
C470   N539    1.430   .     S
C470   C588    1.389   .     S
C471   C473    1.419   .     A
C471   N545    1.426   .     S
C471   C585    1.401   .     S
C472   C474    1.414   .     A
C472   N551    1.424   .     S
C475   N557    1.424   .     S
C475   N504    1.380   .     A
C476   N563    1.424   .     S
C476   N503    1.366   .     A
C476   C825    1.429   .     S
C477   N504    1.383   .     A
C477   N569    1.422   .     S
C478   N503    1.376   .     A
C478   N575    1.422   .     S
C478   C823    1.430   .     S
C479   O512    1.296   .     A
C479   C484    1.438   .     S
C479   O509    1.296   .     A
C480   O511    1.294   .     A
C480   O510    1.299   .     A
C480   C483    1.440   .     S
C481   H497    1.085   .     S
C481   C491    1.392   .     A
C481   C483    1.391   .     A
C482   C492    1.391   .     A
C482   H498    1.085   .     S
C482   C484    1.390   .     A
C483   C485    1.392   .     A
C484   C486    1.393   .     A
C485   C487    1.402   .     A
C485   H499    1.080   .     S
C486   C488    1.402   .     A
C486   H500    1.082   .     S
C487   C493    1.421   .     A
C487   C489    1.422   .     A
C488   C490    1.423   .     A
C488   C494    1.421   .     A
C489   C491    1.413   .     A
C489   C1534   1.402   .     S
C490   C492    1.413   .     A
C490   C1533   1.402   1_554 S
C493   C513    1.519   .     S
C493   C1511   1.399   .     S
C494   C523    1.519   .     S
C494   C1512   1.400   1_554 S
Cu495  O507    1.967   .     S
Cu495  O511    1.948   .     S
Cu495  O505    1.971   .     S
Cu495  Cu496   2.705   .     S
Cu495  N503    2.032   .     S
Cu495  O509    1.953   .     S
Cu496  N504    2.032   .     S
Cu496  O512    1.948   .     S
Cu496  O508    1.967   .     S
Cu496  O510    1.953   .     S
Cu496  O506    1.971   .     S
C513   H521    1.113   .     S
C513   H522    1.111   .     S
C513   C514    1.536   .     S
C514   H520    1.112   .     S
C514   H519    1.110   .     S
C515   H516    1.111   .     S
C515   H518    1.110   .     S
C515   C630    1.527   .     S
C515   H633    1.110   .     S
C523   H531    1.111   .     S
C523   C524    1.536   .     S
C523   H532    1.113   .     S
C524   H530    1.110   .     S
C524   H529    1.112   .     S
C524   C641    1.527   .     S
C525   H527    1.111   .     S
C525   H528    1.110   .     S
H526   C641    1.111   .     S
N533   C535    1.446   .     S
N533   H534    1.029   .     S
C535   H537    1.111   .     S
C535   H538    1.110   .     S
C535   H536    1.111   .     S
N539   H540    1.030   .     S
N539   C541    1.447   .     S
C541   H542    1.111   .     S
C541   H543    1.111   .     S
C541   H544    1.111   .     S
N545   H546    1.031   .     S
N545   C547    1.449   .     S
C547   H548    1.111   .     S
C547   H549    1.112   .     S
C547   H550    1.109   .     S
N551   H552    1.022   .     S
N551   C553    1.445   .     S
C553   H555    1.110   .     S
C553   H556    1.110   .     S
C553   H554    1.110   .     S
N557   H558    1.031   .     S
N557   C559    1.449   .     S
C559   H560    1.109   .     S
C559   H562    1.110   .     S
C559   H561    1.107   .     S
N563   H564    1.030   .     S
N563   C565    1.449   .     S
C565   H566    1.110   .     S
C565   H567    1.109   .     S
C565   H568    1.109   .     S
N569   C571    1.452   .     S
N569   H570    1.028   .     S
C571   H573    1.109   .     S
C571   H572    1.103   .     S
C571   H574    1.112   .     S
N575   C577    1.448   .     S
N575   H576    1.032   .     S
C577   H580    1.111   .     S
C577   H578    1.106   .     S
C577   H579    1.110   .     S
C581   O624    1.306   .     A
C581   O621    1.300   .     A
C581   C590    1.467   .     S
C582   O623    1.305   .     A
C582   O622    1.299   .     A
C582   C589    1.467   .     S
C583   C608    1.398   .     A
C583   H617    1.085   .     S
C583   C1653   1.399   1_554 S
C584   H618    1.084   .     S
C584   C607    1.398   .     A
C584   C1654   1.400   .     S
C585   N649    1.430   .     S
C585   C590    1.413   .     A
C586   C589    1.412   .     A
C586   N655    1.430   .     S
C586   C356    1.389   1_655 S
C587   C589    1.419   .     A
C587   N661    1.426   .     S
C587   C353    1.401   1_655 S
C588   C590    1.414   .     A
C588   N667    1.424   .     S
C591   N673    1.424   .     S
C591   N620    1.380   .     A
C592   N679    1.424   .     S
C592   N619    1.366   .     A
C592   C941    1.429   .     S
C593   N620    1.383   .     A
C593   N685    1.422   .     S
C594   N619    1.376   .     A
C594   N691    1.422   .     S
C594   C939    1.430   .     S
C595   O628    1.296   .     A
C595   C600    1.438   .     S
C595   O625    1.296   .     A
C596   O627    1.294   .     A
C596   O626    1.299   .     A
C596   C599    1.440   .     S
C597   H613    1.085   .     S
C597   C607    1.392   .     A
C597   C599    1.391   .     A
C598   C608    1.391   .     A
C598   H614    1.085   .     S
C598   C600    1.390   .     A
C599   C601    1.392   .     A
C600   C602    1.393   .     A
C601   C603    1.402   .     A
C601   H615    1.080   .     S
C602   C604    1.402   .     A
C602   H616    1.082   .     S
C603   C609    1.421   .     A
C603   C605    1.422   .     A
C604   C606    1.423   .     A
C604   C610    1.421   .     A
C605   C607    1.413   .     A
C605   C1650   1.402   .     S
C606   C608    1.413   .     A
C606   C1649   1.402   1_554 S
C609   C629    1.519   .     S
C609   C1627   1.399   .     S
C610   C639    1.519   .     S
C610   C1628   1.400   1_554 S
Cu611  O623    1.967   .     S
Cu611  O627    1.948   .     S
Cu611  O621    1.971   .     S
Cu611  Cu612   2.705   .     S
Cu611  N619    2.032   .     S
Cu611  O625    1.953   .     S
Cu612  N620    2.032   .     S
Cu612  O628    1.948   .     S
Cu612  O624    1.967   .     S
Cu612  O626    1.953   .     S
Cu612  O622    1.971   .     S
C629   H637    1.113   .     S
C629   H638    1.111   .     S
C629   C630    1.536   .     S
C630   H636    1.112   .     S
C630   H635    1.110   .     S
C631   H632    1.111   .     S
C631   H634    1.110   .     S
C631   C398    1.527   1_655 S
C631   H401    1.110   1_655 S
C639   H647    1.111   .     S
C639   C640    1.536   .     S
C639   H648    1.113   .     S
C640   H646    1.110   .     S
C640   H645    1.112   .     S
C640   C409    1.527   1_655 S
C641   H643    1.111   .     S
C641   H644    1.110   .     S
H642   C409    1.111   1_655 S
N649   C651    1.446   .     S
N649   H650    1.029   .     S
C651   H653    1.111   .     S
C651   H654    1.110   .     S
C651   H652    1.111   .     S
N655   H656    1.030   .     S
N655   C657    1.447   .     S
C657   H658    1.111   .     S
C657   H659    1.111   .     S
C657   H660    1.111   .     S
N661   H662    1.031   .     S
N661   C663    1.449   .     S
C663   H664    1.111   .     S
C663   H665    1.112   .     S
C663   H666    1.109   .     S
N667   H668    1.022   .     S
N667   C669    1.445   .     S
C669   H671    1.110   .     S
C669   H672    1.110   .     S
C669   H670    1.110   .     S
N673   H674    1.031   .     S
N673   C675    1.449   .     S
C675   H676    1.109   .     S
C675   H678    1.110   .     S
C675   H677    1.107   .     S
N679   H680    1.030   .     S
N679   C681    1.449   .     S
C681   H682    1.110   .     S
C681   H683    1.109   .     S
C681   H684    1.109   .     S
N685   C687    1.452   .     S
N685   H686    1.028   .     S
C687   H689    1.109   .     S
C687   H688    1.103   .     S
C687   H690    1.112   .     S
N691   C693    1.448   .     S
N691   H692    1.032   .     S
C693   H696    1.111   .     S
C693   H694    1.106   .     S
C693   H695    1.110   .     S
C697   O740    1.306   .     A
C697   O737    1.300   .     A
C697   C706    1.467   .     S
C698   O739    1.305   .     A
C698   O738    1.299   .     A
C698   C705    1.467   .     S
C699   C724    1.398   .     A
C699   H733    1.085   .     S
C699   C1769   1.399   1_554 S
C700   H734    1.084   .     S
C700   C723    1.398   .     A
C700   C1770   1.400   .     S
C701   N765    1.430   .     S
C701   C706    1.413   .     A
C701   C935    1.401   1_455 S
C702   C705    1.412   .     A
C702   N771    1.430   .     S
C702   C820    1.389   .     S
C703   C705    1.419   .     A
C703   N777    1.426   .     S
C703   C817    1.401   .     S
C704   C706    1.414   .     A
C704   N783    1.424   .     S
C704   C934    1.389   1_455 S
C707   N789    1.424   .     S
C707   N736    1.380   .     A
C708   N795    1.424   .     S
C708   N735    1.366   .     A
C708   C13     1.429   1_565 S
C709   N736    1.383   .     A
C709   N801    1.422   .     S
C710   N735    1.376   .     A
C710   N807    1.422   .     S
C710   C11     1.430   1_565 S
C711   O744    1.296   .     A
C711   C716    1.438   .     S
C711   O741    1.296   .     A
C712   O743    1.294   .     A
C712   O742    1.299   .     A
C712   C715    1.440   .     S
C713   H729    1.085   .     S
C713   C723    1.392   .     A
C713   C715    1.391   .     A
C714   C724    1.391   .     A
C714   H730    1.085   .     S
C714   C716    1.390   .     A
C715   C717    1.392   .     A
C716   C718    1.393   .     A
C717   C719    1.402   .     A
C717   H731    1.080   .     S
C718   C720    1.402   .     A
C718   H732    1.082   .     S
C719   C725    1.421   .     A
C719   C721    1.422   .     A
C720   C722    1.423   .     A
C720   C726    1.421   .     A
C721   C723    1.413   .     A
C721   C1766   1.402   .     S
C722   C724    1.413   .     A
C722   C1765   1.402   1_554 S
C725   C745    1.519   .     S
C725   C1743   1.399   .     S
C726   C755    1.519   .     S
C726   C1744   1.400   1_554 S
Cu727  O739    1.967   .     S
Cu727  O743    1.948   .     S
Cu727  O737    1.971   .     S
Cu727  Cu728   2.705   .     S
Cu727  N735    2.032   .     S
Cu727  O741    1.953   .     S
Cu728  N736    2.032   .     S
Cu728  O744    1.948   .     S
Cu728  O740    1.967   .     S
Cu728  O742    1.953   .     S
Cu728  O738    1.971   .     S
C745   H753    1.113   .     S
C745   H754    1.111   .     S
C745   C746    1.536   .     S
C746   H752    1.112   .     S
C746   H751    1.110   .     S
C746   C979    1.527   1_455 S
C747   H748    1.111   .     S
C747   H750    1.110   .     S
C747   C862    1.527   .     S
C747   H865    1.110   .     S
H749   C979    1.110   1_455 S
C755   H763    1.111   .     S
C755   C756    1.536   .     S
C755   H764    1.113   .     S
C756   H762    1.110   .     S
C756   H761    1.112   .     S
C756   C873    1.527   .     S
C757   H759    1.111   .     S
C757   H760    1.110   .     S
C757   C988    1.527   1_455 S
C757   H990    1.111   1_455 S
H758   C873    1.111   .     S
N765   C767    1.446   .     S
N765   H766    1.029   .     S
C767   H769    1.111   .     S
C767   H770    1.110   .     S
C767   H768    1.111   .     S
N771   H772    1.030   .     S
N771   C773    1.447   .     S
C773   H774    1.111   .     S
C773   H775    1.111   .     S
C773   H776    1.111   .     S
N777   H778    1.031   .     S
N777   C779    1.449   .     S
C779   H780    1.111   .     S
C779   H781    1.112   .     S
C779   H782    1.109   .     S
N783   H784    1.022   .     S
N783   C785    1.445   .     S
C785   H787    1.110   .     S
C785   H788    1.110   .     S
C785   H786    1.110   .     S
N789   H790    1.031   .     S
N789   C791    1.449   .     S
C791   H792    1.109   .     S
C791   H794    1.110   .     S
C791   H793    1.107   .     S
N795   H796    1.030   .     S
N795   C797    1.449   .     S
C797   H798    1.110   .     S
C797   H799    1.109   .     S
C797   H800    1.109   .     S
N801   C803    1.452   .     S
N801   H802    1.028   .     S
C803   H805    1.109   .     S
C803   H804    1.103   .     S
C803   H806    1.112   .     S
N807   C809    1.448   .     S
N807   H808    1.032   .     S
C809   H812    1.111   .     S
C809   H810    1.106   .     S
C809   H811    1.110   .     S
C813   O856    1.306   .     A
C813   O853    1.300   .     A
C813   C822    1.467   .     S
C814   O855    1.305   .     A
C814   O854    1.299   .     A
C814   C821    1.467   .     S
C815   C840    1.398   .     A
C815   H849    1.085   .     S
C815   C1885   1.399   1_554 S
C816   H850    1.084   .     S
C816   C839    1.398   .     A
C816   C1886   1.400   .     S
C817   N881    1.430   .     S
C817   C822    1.413   .     A
C818   C821    1.412   .     A
C818   N887    1.430   .     S
C818   C936    1.389   .     S
C819   C821    1.419   .     A
C819   N893    1.426   .     S
C819   C933    1.401   .     S
C820   C822    1.414   .     A
C820   N899    1.424   .     S
C823   N905    1.424   .     S
C823   N852    1.380   .     A
C824   N911    1.424   .     S
C824   N851    1.366   .     A
C824   C129    1.429   1_565 S
C825   N852    1.383   .     A
C825   N917    1.422   .     S
C826   N851    1.376   .     A
C826   N923    1.422   .     S
C826   C127    1.430   1_565 S
C827   O860    1.296   .     A
C827   C832    1.438   .     S
C827   O857    1.296   .     A
C828   O859    1.294   .     A
C828   O858    1.299   .     A
C828   C831    1.440   .     S
C829   H845    1.085   .     S
C829   C839    1.392   .     A
C829   C831    1.391   .     A
C830   C840    1.391   .     A
C830   H846    1.085   .     S
C830   C832    1.390   .     A
C831   C833    1.392   .     A
C832   C834    1.393   .     A
C833   C835    1.402   .     A
C833   H847    1.080   .     S
C834   C836    1.402   .     A
C834   H848    1.082   .     S
C835   C841    1.421   .     A
C835   C837    1.422   .     A
C836   C838    1.423   .     A
C836   C842    1.421   .     A
C837   C839    1.413   .     A
C837   C1882   1.402   .     S
C838   C840    1.413   .     A
C838   C1881   1.402   1_554 S
C841   C861    1.519   .     S
C841   C1859   1.399   .     S
C842   C871    1.519   .     S
C842   C1860   1.400   1_554 S
Cu843  O855    1.967   .     S
Cu843  O859    1.948   .     S
Cu843  O853    1.971   .     S
Cu843  Cu844   2.705   .     S
Cu843  N851    2.032   .     S
Cu843  O857    1.953   .     S
Cu844  N852    2.032   .     S
Cu844  O860    1.948   .     S
Cu844  O856    1.967   .     S
Cu844  O858    1.953   .     S
Cu844  O854    1.971   .     S
C861   H869    1.113   .     S
C861   H870    1.111   .     S
C861   C862    1.536   .     S
C862   H868    1.112   .     S
C862   H867    1.110   .     S
C863   H864    1.111   .     S
C863   H866    1.110   .     S
C863   C978    1.527   .     S
C863   H981    1.110   .     S
C871   H879    1.111   .     S
C871   C872    1.536   .     S
C871   H880    1.113   .     S
C872   H878    1.110   .     S
C872   H877    1.112   .     S
C872   C989    1.527   .     S
C873   H875    1.111   .     S
C873   H876    1.110   .     S
H874   C989    1.111   .     S
N881   C883    1.446   .     S
N881   H882    1.029   .     S
C883   H885    1.111   .     S
C883   H886    1.110   .     S
C883   H884    1.111   .     S
N887   H888    1.030   .     S
N887   C889    1.447   .     S
C889   H890    1.111   .     S
C889   H891    1.111   .     S
C889   H892    1.111   .     S
N893   H894    1.031   .     S
N893   C895    1.449   .     S
C895   H896    1.111   .     S
C895   H897    1.112   .     S
C895   H898    1.109   .     S
N899   H900    1.022   .     S
N899   C901    1.445   .     S
C901   H903    1.110   .     S
C901   H904    1.110   .     S
C901   H902    1.110   .     S
N905   H906    1.031   .     S
N905   C907    1.449   .     S
C907   H908    1.109   .     S
C907   H910    1.110   .     S
C907   H909    1.107   .     S
N911   H912    1.030   .     S
N911   C913    1.449   .     S
C913   H914    1.110   .     S
C913   H915    1.109   .     S
C913   H916    1.109   .     S
N917   C919    1.452   .     S
N917   H918    1.028   .     S
C919   H921    1.109   .     S
C919   H920    1.103   .     S
C919   H922    1.112   .     S
N923   C925    1.448   .     S
N923   H924    1.032   .     S
C925   H928    1.111   .     S
C925   H926    1.106   .     S
C925   H927    1.110   .     S
C929   O972    1.306   .     A
C929   O969    1.300   .     A
C929   C938    1.467   .     S
C930   O971    1.305   .     A
C930   O970    1.299   .     A
C930   C937    1.467   .     S
C931   C956    1.398   .     A
C931   H965    1.085   .     S
C931   C2001   1.399   1_554 S
C932   H966    1.084   .     S
C932   C955    1.398   .     A
C932   C2002   1.400   .     S
C933   N997    1.430   .     S
C933   C938    1.413   .     A
C934   C937    1.412   .     A
C934   N1003   1.430   .     S
C934   C704    1.389   1_655 S
C935   C937    1.419   .     A
C935   N1009   1.426   .     S
C935   C701    1.401   1_655 S
C936   C938    1.414   .     A
C936   N1015   1.424   .     S
C939   N1021   1.424   .     S
C939   N968    1.380   .     A
C940   N1027   1.424   .     S
C940   N967    1.366   .     A
C940   C245    1.429   1_565 S
C941   N968    1.383   .     A
C941   N1033   1.422   .     S
C942   N967    1.376   .     A
C942   N1039   1.422   .     S
C942   C243    1.430   1_565 S
C943   O976    1.296   .     A
C943   C948    1.438   .     S
C943   O973    1.296   .     A
C944   O975    1.294   .     A
C944   O974    1.299   .     A
C944   C947    1.440   .     S
C945   H961    1.085   .     S
C945   C955    1.392   .     A
C945   C947    1.391   .     A
C946   C956    1.391   .     A
C946   H962    1.085   .     S
C946   C948    1.390   .     A
C947   C949    1.392   .     A
C948   C950    1.393   .     A
C949   C951    1.402   .     A
C949   H963    1.080   .     S
C950   C952    1.402   .     A
C950   H964    1.082   .     S
C951   C957    1.421   .     A
C951   C953    1.422   .     A
C952   C954    1.423   .     A
C952   C958    1.421   .     A
C953   C955    1.413   .     A
C953   C1998   1.402   .     S
C954   C956    1.413   .     A
C954   C1997   1.402   1_554 S
C957   C977    1.519   .     S
C957   C1975   1.399   .     S
C958   C987    1.519   .     S
C958   C1976   1.400   1_554 S
Cu959  O971    1.967   .     S
Cu959  O975    1.948   .     S
Cu959  O969    1.971   .     S
Cu959  Cu960   2.705   .     S
Cu959  N967    2.032   .     S
Cu959  O973    1.953   .     S
Cu960  N968    2.032   .     S
Cu960  O976    1.948   .     S
Cu960  O972    1.967   .     S
Cu960  O974    1.953   .     S
Cu960  O970    1.971   .     S
C977   H985    1.113   .     S
C977   H986    1.111   .     S
C977   C978    1.536   .     S
C978   H984    1.112   .     S
C978   H983    1.110   .     S
C979   H980    1.111   .     S
C979   H982    1.110   .     S
C979   C746    1.527   1_655 S
C979   H749    1.110   1_655 S
C987   H995    1.111   .     S
C987   C988    1.536   .     S
C987   H996    1.113   .     S
C988   H994    1.110   .     S
C988   H993    1.112   .     S
C988   C757    1.527   1_655 S
C989   H991    1.111   .     S
C989   H992    1.110   .     S
H990   C757    1.111   1_655 S
N997   C999    1.446   .     S
N997   H998    1.029   .     S
C999   H1001   1.111   .     S
C999   H1002   1.110   .     S
C999   H1000   1.111   .     S
N1003  H1004   1.030   .     S
N1003  C1005   1.447   .     S
C1005  H1006   1.111   .     S
C1005  H1007   1.111   .     S
C1005  H1008   1.111   .     S
N1009  H1010   1.031   .     S
N1009  C1011   1.449   .     S
C1011  H1012   1.111   .     S
C1011  H1013   1.112   .     S
C1011  H1014   1.109   .     S
N1015  H1016   1.022   .     S
N1015  C1017   1.445   .     S
C1017  H1019   1.110   .     S
C1017  H1020   1.110   .     S
C1017  H1018   1.110   .     S
N1021  H1022   1.031   .     S
N1021  C1023   1.449   .     S
C1023  H1024   1.109   .     S
C1023  H1026   1.110   .     S
C1023  H1025   1.107   .     S
N1027  H1028   1.030   .     S
N1027  C1029   1.449   .     S
C1029  H1030   1.110   .     S
C1029  H1031   1.109   .     S
C1029  H1032   1.109   .     S
N1033  C1035   1.452   .     S
N1033  H1034   1.028   .     S
C1035  H1037   1.109   .     S
C1035  H1036   1.103   .     S
C1035  H1038   1.112   .     S
N1039  C1041   1.448   .     S
N1039  H1040   1.032   .     S
C1041  H1044   1.111   .     S
C1041  H1042   1.106   .     S
C1041  H1043   1.110   .     S
C1045  O1088   1.306   .     A
C1045  O1085   1.300   .     A
C1045  C1054   1.467   .     S
C1046  O1087   1.305   .     A
C1046  O1086   1.299   .     A
C1046  C1053   1.467   .     S
C1047  C1072   1.398   .     A
C1047  H1081   1.085   .     S
C1048  H1082   1.084   .     S
C1048  C1071   1.398   .     A
C1048  C30     1.400   1_556 S
C1049  N1113   1.430   .     S
C1049  C1054   1.413   .     A
C1049  C1283   1.401   1_455 S
C1050  C1053   1.412   .     A
C1050  N1119   1.430   .     S
C1050  C1168   1.389   .     S
C1051  C1053   1.419   .     A
C1051  N1125   1.426   .     S
C1051  C1165   1.401   .     S
C1052  C1054   1.414   .     A
C1052  N1131   1.424   .     S
C1052  C1282   1.389   1_455 S
C1055  N1137   1.424   .     S
C1055  N1084   1.380   .     A
C1055  C1754   1.430   1_545 S
C1056  N1143   1.424   .     S
C1056  N1083   1.366   .     A
C1056  C1405   1.429   .     S
C1057  N1084   1.383   .     A
C1057  N1149   1.422   .     S
C1057  C1752   1.429   1_545 S
C1058  N1083   1.376   .     A
C1058  N1155   1.422   .     S
C1058  C1403   1.430   .     S
C1059  O1092   1.296   .     A
C1059  C1064   1.438   .     S
C1059  O1089   1.296   .     A
C1060  O1091   1.294   .     A
C1060  O1090   1.299   .     A
C1060  C1063   1.440   .     S
C1061  H1077   1.085   .     S
C1061  C1071   1.392   .     A
C1061  C1063   1.391   .     A
C1062  C1072   1.391   .     A
C1062  H1078   1.085   .     S
C1062  C1064   1.390   .     A
C1063  C1065   1.392   .     A
C1064  C1066   1.393   .     A
C1065  C1067   1.402   .     A
C1065  H1079   1.080   .     S
C1066  C1068   1.402   .     A
C1066  H1080   1.082   .     S
C1067  C1073   1.421   .     A
C1067  C1069   1.422   .     A
C1068  C1070   1.423   .     A
C1068  C1074   1.421   .     A
C1069  C1071   1.413   .     A
C1069  C26     1.402   1_556 S
C1070  C1072   1.413   .     A
C1073  C1093   1.519   .     S
C1073  C3      1.399   1_556 S
C1074  C1103   1.519   .     S
Cu1075 O1087   1.967   .     S
Cu1075 O1091   1.948   .     S
Cu1075 O1085   1.971   .     S
Cu1075 Cu1076  2.705   .     S
Cu1075 N1083   2.032   .     S
Cu1075 O1089   1.953   .     S
Cu1076 N1084   2.032   .     S
Cu1076 O1092   1.948   .     S
Cu1076 O1088   1.967   .     S
Cu1076 O1090   1.953   .     S
Cu1076 O1086   1.971   .     S
C1093  H1101   1.113   .     S
C1093  H1102   1.111   .     S
C1093  C1094   1.536   .     S
C1094  H1100   1.112   .     S
C1094  H1099   1.110   .     S
C1094  C1327   1.527   1_455 S
C1095  H1096   1.111   .     S
C1095  H1098   1.110   .     S
C1095  C1210   1.527   .     S
C1095  H1213   1.110   .     S
H1097  C1327   1.110   1_455 S
C1103  H1111   1.111   .     S
C1103  C1104   1.536   .     S
C1103  H1112   1.113   .     S
C1104  H1110   1.110   .     S
C1104  H1109   1.112   .     S
C1104  C1221   1.527   .     S
C1105  H1107   1.111   .     S
C1105  H1108   1.110   .     S
C1105  C1336   1.527   1_455 S
C1105  H1338   1.111   1_455 S
H1106  C1221   1.111   .     S
N1113  C1115   1.446   .     S
N1113  H1114   1.029   .     S
C1115  H1117   1.111   .     S
C1115  H1118   1.110   .     S
C1115  H1116   1.111   .     S
N1119  H1120   1.030   .     S
N1119  C1121   1.447   .     S
C1121  H1122   1.111   .     S
C1121  H1123   1.111   .     S
C1121  H1124   1.111   .     S
N1125  H1126   1.031   .     S
N1125  C1127   1.449   .     S
C1127  H1128   1.111   .     S
C1127  H1129   1.112   .     S
C1127  H1130   1.109   .     S
N1131  H1132   1.022   .     S
N1131  C1133   1.445   .     S
C1133  H1135   1.110   .     S
C1133  H1136   1.110   .     S
C1133  H1134   1.110   .     S
N1137  H1138   1.031   .     S
N1137  C1139   1.449   .     S
C1139  H1140   1.109   .     S
C1139  H1142   1.110   .     S
C1139  H1141   1.107   .     S
N1143  H1144   1.030   .     S
N1143  C1145   1.449   .     S
C1145  H1146   1.110   .     S
C1145  H1147   1.109   .     S
C1145  H1148   1.109   .     S
N1149  C1151   1.452   .     S
N1149  H1150   1.028   .     S
C1151  H1153   1.109   .     S
C1151  H1152   1.103   .     S
C1151  H1154   1.112   .     S
N1155  C1157   1.448   .     S
N1155  H1156   1.032   .     S
C1157  H1160   1.111   .     S
C1157  H1158   1.106   .     S
C1157  H1159   1.110   .     S
C1161  O1204   1.306   .     A
C1161  O1201   1.300   .     A
C1161  C1170   1.467   .     S
C1162  O1203   1.305   .     A
C1162  O1202   1.299   .     A
C1162  C1169   1.467   .     S
C1163  C1188   1.398   .     A
C1163  H1197   1.085   .     S
C1164  H1198   1.084   .     S
C1164  C1187   1.398   .     A
C1164  C146    1.400   1_556 S
C1165  N1229   1.430   .     S
C1165  C1170   1.413   .     A
C1166  C1169   1.412   .     A
C1166  N1235   1.430   .     S
C1166  C1284   1.389   .     S
C1167  C1169   1.419   .     A
C1167  N1241   1.426   .     S
C1167  C1281   1.401   .     S
C1168  C1170   1.414   .     A
C1168  N1247   1.424   .     S
C1171  N1253   1.424   .     S
C1171  N1200   1.380   .     A
C1171  C1870   1.430   1_545 S
C1172  N1259   1.424   .     S
C1172  N1199   1.366   .     A
C1172  C1521   1.429   .     S
C1173  N1200   1.383   .     A
C1173  N1265   1.422   .     S
C1173  C1868   1.429   1_545 S
C1174  N1199   1.376   .     A
C1174  N1271   1.422   .     S
C1174  C1519   1.430   .     S
C1175  O1208   1.296   .     A
C1175  C1180   1.438   .     S
C1175  O1205   1.296   .     A
C1176  O1207   1.294   .     A
C1176  O1206   1.299   .     A
C1176  C1179   1.440   .     S
C1177  H1193   1.085   .     S
C1177  C1187   1.392   .     A
C1177  C1179   1.391   .     A
C1178  C1188   1.391   .     A
C1178  H1194   1.085   .     S
C1178  C1180   1.390   .     A
C1179  C1181   1.392   .     A
C1180  C1182   1.393   .     A
C1181  C1183   1.402   .     A
C1181  H1195   1.080   .     S
C1182  C1184   1.402   .     A
C1182  H1196   1.082   .     S
C1183  C1189   1.421   .     A
C1183  C1185   1.422   .     A
C1184  C1186   1.423   .     A
C1184  C1190   1.421   .     A
C1185  C1187   1.413   .     A
C1185  C142    1.402   1_556 S
C1186  C1188   1.413   .     A
C1189  C1209   1.519   .     S
C1189  C119    1.399   1_556 S
C1190  C1219   1.519   .     S
Cu1191 O1203   1.967   .     S
Cu1191 O1207   1.948   .     S
Cu1191 O1201   1.971   .     S
Cu1191 Cu1192  2.705   .     S
Cu1191 N1199   2.032   .     S
Cu1191 O1205   1.953   .     S
Cu1192 N1200   2.032   .     S
Cu1192 O1208   1.948   .     S
Cu1192 O1204   1.967   .     S
Cu1192 O1206   1.953   .     S
Cu1192 O1202   1.971   .     S
C1209  H1217   1.113   .     S
C1209  H1218   1.111   .     S
C1209  C1210   1.536   .     S
C1210  H1216   1.112   .     S
C1210  H1215   1.110   .     S
C1211  H1212   1.111   .     S
C1211  H1214   1.110   .     S
C1211  C1326   1.527   .     S
C1211  H1329   1.110   .     S
C1219  H1227   1.111   .     S
C1219  C1220   1.536   .     S
C1219  H1228   1.113   .     S
C1220  H1226   1.110   .     S
C1220  H1225   1.112   .     S
C1220  C1337   1.527   .     S
C1221  H1223   1.111   .     S
C1221  H1224   1.110   .     S
H1222  C1337   1.111   .     S
N1229  C1231   1.446   .     S
N1229  H1230   1.029   .     S
C1231  H1233   1.111   .     S
C1231  H1234   1.110   .     S
C1231  H1232   1.111   .     S
N1235  H1236   1.030   .     S
N1235  C1237   1.447   .     S
C1237  H1238   1.111   .     S
C1237  H1239   1.111   .     S
C1237  H1240   1.111   .     S
N1241  H1242   1.031   .     S
N1241  C1243   1.449   .     S
C1243  H1244   1.111   .     S
C1243  H1245   1.112   .     S
C1243  H1246   1.109   .     S
N1247  H1248   1.022   .     S
N1247  C1249   1.445   .     S
C1249  H1251   1.110   .     S
C1249  H1252   1.110   .     S
C1249  H1250   1.110   .     S
N1253  H1254   1.031   .     S
N1253  C1255   1.449   .     S
C1255  H1256   1.109   .     S
C1255  H1258   1.110   .     S
C1255  H1257   1.107   .     S
N1259  H1260   1.030   .     S
N1259  C1261   1.449   .     S
C1261  H1262   1.110   .     S
C1261  H1263   1.109   .     S
C1261  H1264   1.109   .     S
N1265  C1267   1.452   .     S
N1265  H1266   1.028   .     S
C1267  H1269   1.109   .     S
C1267  H1268   1.103   .     S
C1267  H1270   1.112   .     S
N1271  C1273   1.448   .     S
N1271  H1272   1.032   .     S
C1273  H1276   1.111   .     S
C1273  H1274   1.106   .     S
C1273  H1275   1.110   .     S
C1277  O1320   1.306   .     A
C1277  O1317   1.300   .     A
C1277  C1286   1.467   .     S
C1278  O1319   1.305   .     A
C1278  O1318   1.299   .     A
C1278  C1285   1.467   .     S
C1279  C1304   1.398   .     A
C1279  H1313   1.085   .     S
C1280  H1314   1.084   .     S
C1280  C1303   1.398   .     A
C1280  C262    1.400   1_556 S
C1281  N1345   1.430   .     S
C1281  C1286   1.413   .     A
C1282  C1285   1.412   .     A
C1282  N1351   1.430   .     S
C1282  C1052   1.389   1_655 S
C1283  C1285   1.419   .     A
C1283  N1357   1.426   .     S
C1283  C1049   1.401   1_655 S
C1284  C1286   1.414   .     A
C1284  N1363   1.424   .     S
C1287  N1369   1.424   .     S
C1287  N1316   1.380   .     A
C1287  C1986   1.430   1_545 S
C1288  N1375   1.424   .     S
C1288  N1315   1.366   .     A
C1288  C1637   1.429   .     S
C1289  N1316   1.383   .     A
C1289  N1381   1.422   .     S
C1289  C1984   1.429   1_545 S
C1290  N1315   1.376   .     A
C1290  N1387   1.422   .     S
C1290  C1635   1.430   .     S
C1291  O1324   1.296   .     A
C1291  C1296   1.438   .     S
C1291  O1321   1.296   .     A
C1292  O1323   1.294   .     A
C1292  O1322   1.299   .     A
C1292  C1295   1.440   .     S
C1293  H1309   1.085   .     S
C1293  C1303   1.392   .     A
C1293  C1295   1.391   .     A
C1294  C1304   1.391   .     A
C1294  H1310   1.085   .     S
C1294  C1296   1.390   .     A
C1295  C1297   1.392   .     A
C1296  C1298   1.393   .     A
C1297  C1299   1.402   .     A
C1297  H1311   1.080   .     S
C1298  C1300   1.402   .     A
C1298  H1312   1.082   .     S
C1299  C1305   1.421   .     A
C1299  C1301   1.422   .     A
C1300  C1302   1.423   .     A
C1300  C1306   1.421   .     A
C1301  C1303   1.413   .     A
C1301  C258    1.402   1_556 S
C1302  C1304   1.413   .     A
C1305  C1325   1.519   .     S
C1305  C235    1.399   1_556 S
C1306  C1335   1.519   .     S
Cu1307 O1319   1.967   .     S
Cu1307 O1323   1.948   .     S
Cu1307 O1317   1.971   .     S
Cu1307 Cu1308  2.705   .     S
Cu1307 N1315   2.032   .     S
Cu1307 O1321   1.953   .     S
Cu1308 N1316   2.032   .     S
Cu1308 O1324   1.948   .     S
Cu1308 O1320   1.967   .     S
Cu1308 O1322   1.953   .     S
Cu1308 O1318   1.971   .     S
C1325  H1333   1.113   .     S
C1325  H1334   1.111   .     S
C1325  C1326   1.536   .     S
C1326  H1332   1.112   .     S
C1326  H1331   1.110   .     S
C1327  H1328   1.111   .     S
C1327  H1330   1.110   .     S
C1327  C1094   1.527   1_655 S
C1327  H1097   1.110   1_655 S
C1335  H1343   1.111   .     S
C1335  C1336   1.536   .     S
C1335  H1344   1.113   .     S
C1336  H1342   1.110   .     S
C1336  H1341   1.112   .     S
C1336  C1105   1.527   1_655 S
C1337  H1339   1.111   .     S
C1337  H1340   1.110   .     S
H1338  C1105   1.111   1_655 S
N1345  C1347   1.446   .     S
N1345  H1346   1.029   .     S
C1347  H1349   1.111   .     S
C1347  H1350   1.110   .     S
C1347  H1348   1.111   .     S
N1351  H1352   1.030   .     S
N1351  C1353   1.447   .     S
C1353  H1354   1.111   .     S
C1353  H1355   1.111   .     S
C1353  H1356   1.111   .     S
N1357  H1358   1.031   .     S
N1357  C1359   1.449   .     S
C1359  H1360   1.111   .     S
C1359  H1361   1.112   .     S
C1359  H1362   1.109   .     S
N1363  H1364   1.022   .     S
N1363  C1365   1.445   .     S
C1365  H1367   1.110   .     S
C1365  H1368   1.110   .     S
C1365  H1366   1.110   .     S
N1369  H1370   1.031   .     S
N1369  C1371   1.449   .     S
C1371  H1372   1.109   .     S
C1371  H1374   1.110   .     S
C1371  H1373   1.107   .     S
N1375  H1376   1.030   .     S
N1375  C1377   1.449   .     S
C1377  H1378   1.110   .     S
C1377  H1379   1.109   .     S
C1377  H1380   1.109   .     S
N1381  C1383   1.452   .     S
N1381  H1382   1.028   .     S
C1383  H1385   1.109   .     S
C1383  H1384   1.103   .     S
C1383  H1386   1.112   .     S
N1387  C1389   1.448   .     S
N1387  H1388   1.032   .     S
C1389  H1392   1.111   .     S
C1389  H1390   1.106   .     S
C1389  H1391   1.110   .     S
C1393  O1436   1.306   .     A
C1393  O1433   1.300   .     A
C1393  C1402   1.467   .     S
C1394  O1435   1.305   .     A
C1394  O1434   1.299   .     A
C1394  C1401   1.467   .     S
C1395  C1420   1.398   .     A
C1395  H1429   1.085   .     S
C1396  H1430   1.084   .     S
C1396  C1419   1.398   .     A
C1396  C378    1.400   1_556 S
C1397  N1461   1.430   .     S
C1397  C1402   1.413   .     A
C1397  C1631   1.401   1_455 S
C1398  C1401   1.412   .     A
C1398  N1467   1.430   .     S
C1398  C1516   1.389   .     S
C1399  C1401   1.419   .     A
C1399  N1473   1.426   .     S
C1399  C1513   1.401   .     S
C1400  C1402   1.414   .     A
C1400  N1479   1.424   .     S
C1400  C1630   1.389   1_455 S
C1403  N1485   1.424   .     S
C1403  N1432   1.380   .     A
C1404  N1491   1.424   .     S
C1404  N1431   1.366   .     A
C1404  C1753   1.429   .     S
C1405  N1432   1.383   .     A
C1405  N1497   1.422   .     S
C1406  N1431   1.376   .     A
C1406  N1503   1.422   .     S
C1406  C1751   1.430   .     S
C1407  O1440   1.296   .     A
C1407  C1412   1.438   .     S
C1407  O1437   1.296   .     A
C1408  O1439   1.294   .     A
C1408  O1438   1.299   .     A
C1408  C1411   1.440   .     S
C1409  H1425   1.085   .     S
C1409  C1419   1.392   .     A
C1409  C1411   1.391   .     A
C1410  C1420   1.391   .     A
C1410  H1426   1.085   .     S
C1410  C1412   1.390   .     A
C1411  C1413   1.392   .     A
C1412  C1414   1.393   .     A
C1413  C1415   1.402   .     A
C1413  H1427   1.080   .     S
C1414  C1416   1.402   .     A
C1414  H1428   1.082   .     S
C1415  C1421   1.421   .     A
C1415  C1417   1.422   .     A
C1416  C1418   1.423   .     A
C1416  C1422   1.421   .     A
C1417  C1419   1.413   .     A
C1417  C374    1.402   1_556 S
C1418  C1420   1.413   .     A
C1421  C1441   1.519   .     S
C1421  C351    1.399   1_556 S
C1422  C1451   1.519   .     S
Cu1423 O1435   1.967   .     S
Cu1423 O1439   1.948   .     S
Cu1423 O1433   1.971   .     S
Cu1423 Cu1424  2.705   .     S
Cu1423 N1431   2.032   .     S
Cu1423 O1437   1.953   .     S
Cu1424 N1432   2.032   .     S
Cu1424 O1440   1.948   .     S
Cu1424 O1436   1.967   .     S
Cu1424 O1438   1.953   .     S
Cu1424 O1434   1.971   .     S
C1441  H1449   1.113   .     S
C1441  H1450   1.111   .     S
C1441  C1442   1.536   .     S
C1442  H1448   1.112   .     S
C1442  H1447   1.110   .     S
C1442  C1675   1.527   1_455 S
C1443  H1444   1.111   .     S
C1443  H1446   1.110   .     S
C1443  C1558   1.527   .     S
C1443  H1561   1.110   .     S
H1445  C1675   1.110   1_455 S
C1451  H1459   1.111   .     S
C1451  C1452   1.536   .     S
C1451  H1460   1.113   .     S
C1452  H1458   1.110   .     S
C1452  H1457   1.112   .     S
C1452  C1569   1.527   .     S
C1453  H1455   1.111   .     S
C1453  H1456   1.110   .     S
C1453  C1684   1.527   1_455 S
C1453  H1686   1.111   1_455 S
H1454  C1569   1.111   .     S
N1461  C1463   1.446   .     S
N1461  H1462   1.029   .     S
C1463  H1465   1.111   .     S
C1463  H1466   1.110   .     S
C1463  H1464   1.111   .     S
N1467  H1468   1.030   .     S
N1467  C1469   1.447   .     S
C1469  H1470   1.111   .     S
C1469  H1471   1.111   .     S
C1469  H1472   1.111   .     S
N1473  H1474   1.031   .     S
N1473  C1475   1.449   .     S
C1475  H1476   1.111   .     S
C1475  H1477   1.112   .     S
C1475  H1478   1.109   .     S
N1479  H1480   1.022   .     S
N1479  C1481   1.445   .     S
C1481  H1483   1.110   .     S
C1481  H1484   1.110   .     S
C1481  H1482   1.110   .     S
N1485  H1486   1.031   .     S
N1485  C1487   1.449   .     S
C1487  H1488   1.109   .     S
C1487  H1490   1.110   .     S
C1487  H1489   1.107   .     S
N1491  H1492   1.030   .     S
N1491  C1493   1.449   .     S
C1493  H1494   1.110   .     S
C1493  H1495   1.109   .     S
C1493  H1496   1.109   .     S
N1497  C1499   1.452   .     S
N1497  H1498   1.028   .     S
C1499  H1501   1.109   .     S
C1499  H1500   1.103   .     S
C1499  H1502   1.112   .     S
N1503  C1505   1.448   .     S
N1503  H1504   1.032   .     S
C1505  H1508   1.111   .     S
C1505  H1506   1.106   .     S
C1505  H1507   1.110   .     S
C1509  O1552   1.306   .     A
C1509  O1549   1.300   .     A
C1509  C1518   1.467   .     S
C1510  O1551   1.305   .     A
C1510  O1550   1.299   .     A
C1510  C1517   1.467   .     S
C1511  C1536   1.398   .     A
C1511  H1545   1.085   .     S
C1512  H1546   1.084   .     S
C1512  C1535   1.398   .     A
C1512  C494    1.400   1_556 S
C1513  N1577   1.430   .     S
C1513  C1518   1.413   .     A
C1514  C1517   1.412   .     A
C1514  N1583   1.430   .     S
C1514  C1632   1.389   .     S
C1515  C1517   1.419   .     A
C1515  N1589   1.426   .     S
C1515  C1629   1.401   .     S
C1516  C1518   1.414   .     A
C1516  N1595   1.424   .     S
C1519  N1601   1.424   .     S
C1519  N1548   1.380   .     A
C1520  N1607   1.424   .     S
C1520  N1547   1.366   .     A
C1520  C1869   1.429   .     S
C1521  N1548   1.383   .     A
C1521  N1613   1.422   .     S
C1522  N1547   1.376   .     A
C1522  N1619   1.422   .     S
C1522  C1867   1.430   .     S
C1523  O1556   1.296   .     A
C1523  C1528   1.438   .     S
C1523  O1553   1.296   .     A
C1524  O1555   1.294   .     A
C1524  O1554   1.299   .     A
C1524  C1527   1.440   .     S
C1525  H1541   1.085   .     S
C1525  C1535   1.392   .     A
C1525  C1527   1.391   .     A
C1526  C1536   1.391   .     A
C1526  H1542   1.085   .     S
C1526  C1528   1.390   .     A
C1527  C1529   1.392   .     A
C1528  C1530   1.393   .     A
C1529  C1531   1.402   .     A
C1529  H1543   1.080   .     S
C1530  C1532   1.402   .     A
C1530  H1544   1.082   .     S
C1531  C1537   1.421   .     A
C1531  C1533   1.422   .     A
C1532  C1534   1.423   .     A
C1532  C1538   1.421   .     A
C1533  C1535   1.413   .     A
C1533  C490    1.402   1_556 S
C1534  C1536   1.413   .     A
C1537  C1557   1.519   .     S
C1537  C467    1.399   1_556 S
C1538  C1567   1.519   .     S
Cu1539 O1551   1.967   .     S
Cu1539 O1555   1.948   .     S
Cu1539 O1549   1.971   .     S
Cu1539 Cu1540  2.705   .     S
Cu1539 N1547   2.032   .     S
Cu1539 O1553   1.953   .     S
Cu1540 N1548   2.032   .     S
Cu1540 O1556   1.948   .     S
Cu1540 O1552   1.967   .     S
Cu1540 O1554   1.953   .     S
Cu1540 O1550   1.971   .     S
C1557  H1565   1.113   .     S
C1557  H1566   1.111   .     S
C1557  C1558   1.536   .     S
C1558  H1564   1.112   .     S
C1558  H1563   1.110   .     S
C1559  H1560   1.111   .     S
C1559  H1562   1.110   .     S
C1559  C1674   1.527   .     S
C1559  H1677   1.110   .     S
C1567  H1575   1.111   .     S
C1567  C1568   1.536   .     S
C1567  H1576   1.113   .     S
C1568  H1574   1.110   .     S
C1568  H1573   1.112   .     S
C1568  C1685   1.527   .     S
C1569  H1571   1.111   .     S
C1569  H1572   1.110   .     S
H1570  C1685   1.111   .     S
N1577  C1579   1.446   .     S
N1577  H1578   1.029   .     S
C1579  H1581   1.111   .     S
C1579  H1582   1.110   .     S
C1579  H1580   1.111   .     S
N1583  H1584   1.030   .     S
N1583  C1585   1.447   .     S
C1585  H1586   1.111   .     S
C1585  H1587   1.111   .     S
C1585  H1588   1.111   .     S
N1589  H1590   1.031   .     S
N1589  C1591   1.449   .     S
C1591  H1592   1.111   .     S
C1591  H1593   1.112   .     S
C1591  H1594   1.109   .     S
N1595  H1596   1.022   .     S
N1595  C1597   1.445   .     S
C1597  H1599   1.110   .     S
C1597  H1600   1.110   .     S
C1597  H1598   1.110   .     S
N1601  H1602   1.031   .     S
N1601  C1603   1.449   .     S
C1603  H1604   1.109   .     S
C1603  H1606   1.110   .     S
C1603  H1605   1.107   .     S
N1607  H1608   1.030   .     S
N1607  C1609   1.449   .     S
C1609  H1610   1.110   .     S
C1609  H1611   1.109   .     S
C1609  H1612   1.109   .     S
N1613  C1615   1.452   .     S
N1613  H1614   1.028   .     S
C1615  H1617   1.109   .     S
C1615  H1616   1.103   .     S
C1615  H1618   1.112   .     S
N1619  C1621   1.448   .     S
N1619  H1620   1.032   .     S
C1621  H1624   1.111   .     S
C1621  H1622   1.106   .     S
C1621  H1623   1.110   .     S
C1625  O1668   1.306   .     A
C1625  O1665   1.300   .     A
C1625  C1634   1.467   .     S
C1626  O1667   1.305   .     A
C1626  O1666   1.299   .     A
C1626  C1633   1.467   .     S
C1627  C1652   1.398   .     A
C1627  H1661   1.085   .     S
C1628  H1662   1.084   .     S
C1628  C1651   1.398   .     A
C1628  C610    1.400   1_556 S
C1629  N1693   1.430   .     S
C1629  C1634   1.413   .     A
C1630  C1633   1.412   .     A
C1630  N1699   1.430   .     S
C1630  C1400   1.389   1_655 S
C1631  C1633   1.419   .     A
C1631  N1705   1.426   .     S
C1631  C1397   1.401   1_655 S
C1632  C1634   1.414   .     A
C1632  N1711   1.424   .     S
C1635  N1717   1.424   .     S
C1635  N1664   1.380   .     A
C1636  N1723   1.424   .     S
C1636  N1663   1.366   .     A
C1636  C1985   1.429   .     S
C1637  N1664   1.383   .     A
C1637  N1729   1.422   .     S
C1638  N1663   1.376   .     A
C1638  N1735   1.422   .     S
C1638  C1983   1.430   .     S
C1639  O1672   1.296   .     A
C1639  C1644   1.438   .     S
C1639  O1669   1.296   .     A
C1640  O1671   1.294   .     A
C1640  O1670   1.299   .     A
C1640  C1643   1.440   .     S
C1641  H1657   1.085   .     S
C1641  C1651   1.392   .     A
C1641  C1643   1.391   .     A
C1642  C1652   1.391   .     A
C1642  H1658   1.085   .     S
C1642  C1644   1.390   .     A
C1643  C1645   1.392   .     A
C1644  C1646   1.393   .     A
C1645  C1647   1.402   .     A
C1645  H1659   1.080   .     S
C1646  C1648   1.402   .     A
C1646  H1660   1.082   .     S
C1647  C1653   1.421   .     A
C1647  C1649   1.422   .     A
C1648  C1650   1.423   .     A
C1648  C1654   1.421   .     A
C1649  C1651   1.413   .     A
C1649  C606    1.402   1_556 S
C1650  C1652   1.413   .     A
C1653  C1673   1.519   .     S
C1653  C583    1.399   1_556 S
C1654  C1683   1.519   .     S
Cu1655 O1667   1.967   .     S
Cu1655 O1671   1.948   .     S
Cu1655 O1665   1.971   .     S
Cu1655 Cu1656  2.705   .     S
Cu1655 N1663   2.032   .     S
Cu1655 O1669   1.953   .     S
Cu1656 N1664   2.032   .     S
Cu1656 O1672   1.948   .     S
Cu1656 O1668   1.967   .     S
Cu1656 O1670   1.953   .     S
Cu1656 O1666   1.971   .     S
C1673  H1681   1.113   .     S
C1673  H1682   1.111   .     S
C1673  C1674   1.536   .     S
C1674  H1680   1.112   .     S
C1674  H1679   1.110   .     S
C1675  H1676   1.111   .     S
C1675  H1678   1.110   .     S
C1675  C1442   1.527   1_655 S
C1675  H1445   1.110   1_655 S
C1683  H1691   1.111   .     S
C1683  C1684   1.536   .     S
C1683  H1692   1.113   .     S
C1684  H1690   1.110   .     S
C1684  H1689   1.112   .     S
C1684  C1453   1.527   1_655 S
C1685  H1687   1.111   .     S
C1685  H1688   1.110   .     S
H1686  C1453   1.111   1_655 S
N1693  C1695   1.446   .     S
N1693  H1694   1.029   .     S
C1695  H1697   1.111   .     S
C1695  H1698   1.110   .     S
C1695  H1696   1.111   .     S
N1699  H1700   1.030   .     S
N1699  C1701   1.447   .     S
C1701  H1702   1.111   .     S
C1701  H1703   1.111   .     S
C1701  H1704   1.111   .     S
N1705  H1706   1.031   .     S
N1705  C1707   1.449   .     S
C1707  H1708   1.111   .     S
C1707  H1709   1.112   .     S
C1707  H1710   1.109   .     S
N1711  H1712   1.022   .     S
N1711  C1713   1.445   .     S
C1713  H1715   1.110   .     S
C1713  H1716   1.110   .     S
C1713  H1714   1.110   .     S
N1717  H1718   1.031   .     S
N1717  C1719   1.449   .     S
C1719  H1720   1.109   .     S
C1719  H1722   1.110   .     S
C1719  H1721   1.107   .     S
N1723  H1724   1.030   .     S
N1723  C1725   1.449   .     S
C1725  H1726   1.110   .     S
C1725  H1727   1.109   .     S
C1725  H1728   1.109   .     S
N1729  C1731   1.452   .     S
N1729  H1730   1.028   .     S
C1731  H1733   1.109   .     S
C1731  H1732   1.103   .     S
C1731  H1734   1.112   .     S
N1735  C1737   1.448   .     S
N1735  H1736   1.032   .     S
C1737  H1740   1.111   .     S
C1737  H1738   1.106   .     S
C1737  H1739   1.110   .     S
C1741  O1784   1.306   .     A
C1741  O1781   1.300   .     A
C1741  C1750   1.467   .     S
C1742  O1783   1.305   .     A
C1742  O1782   1.299   .     A
C1742  C1749   1.467   .     S
C1743  C1768   1.398   .     A
C1743  H1777   1.085   .     S
C1744  H1778   1.084   .     S
C1744  C1767   1.398   .     A
C1744  C726    1.400   1_556 S
C1745  N1809   1.430   .     S
C1745  C1750   1.413   .     A
C1745  C1979   1.401   1_455 S
C1746  C1749   1.412   .     A
C1746  N1815   1.430   .     S
C1746  C1864   1.389   .     S
C1747  C1749   1.419   .     A
C1747  N1821   1.426   .     S
C1747  C1861   1.401   .     S
C1748  C1750   1.414   .     A
C1748  N1827   1.424   .     S
C1748  C1978   1.389   1_455 S
C1751  N1833   1.424   .     S
C1751  N1780   1.380   .     A
C1752  N1839   1.424   .     S
C1752  N1779   1.366   .     A
C1752  C1057   1.429   1_565 S
C1753  N1780   1.383   .     A
C1753  N1845   1.422   .     S
C1754  N1779   1.376   .     A
C1754  N1851   1.422   .     S
C1754  C1055   1.430   1_565 S
C1755  O1788   1.296   .     A
C1755  C1760   1.438   .     S
C1755  O1785   1.296   .     A
C1756  O1787   1.294   .     A
C1756  O1786   1.299   .     A
C1756  C1759   1.440   .     S
C1757  H1773   1.085   .     S
C1757  C1767   1.392   .     A
C1757  C1759   1.391   .     A
C1758  C1768   1.391   .     A
C1758  H1774   1.085   .     S
C1758  C1760   1.390   .     A
C1759  C1761   1.392   .     A
C1760  C1762   1.393   .     A
C1761  C1763   1.402   .     A
C1761  H1775   1.080   .     S
C1762  C1764   1.402   .     A
C1762  H1776   1.082   .     S
C1763  C1769   1.421   .     A
C1763  C1765   1.422   .     A
C1764  C1766   1.423   .     A
C1764  C1770   1.421   .     A
C1765  C1767   1.413   .     A
C1765  C722    1.402   1_556 S
C1766  C1768   1.413   .     A
C1769  C1789   1.519   .     S
C1769  C699    1.399   1_556 S
C1770  C1799   1.519   .     S
Cu1771 O1783   1.967   .     S
Cu1771 O1787   1.948   .     S
Cu1771 O1781   1.971   .     S
Cu1771 Cu1772  2.705   .     S
Cu1771 N1779   2.032   .     S
Cu1771 O1785   1.953   .     S
Cu1772 N1780   2.032   .     S
Cu1772 O1788   1.948   .     S
Cu1772 O1784   1.967   .     S
Cu1772 O1786   1.953   .     S
Cu1772 O1782   1.971   .     S
C1789  H1797   1.113   .     S
C1789  H1798   1.111   .     S
C1789  C1790   1.536   .     S
C1790  H1796   1.112   .     S
C1790  H1795   1.110   .     S
C1790  C2023   1.527   1_455 S
C1791  H1792   1.111   .     S
C1791  H1794   1.110   .     S
C1791  C1906   1.527   .     S
C1791  H1909   1.110   .     S
H1793  C2023   1.110   1_455 S
C1799  H1807   1.111   .     S
C1799  C1800   1.536   .     S
C1799  H1808   1.113   .     S
C1800  H1806   1.110   .     S
C1800  H1805   1.112   .     S
C1800  C1917   1.527   .     S
C1801  H1803   1.111   .     S
C1801  H1804   1.110   .     S
C1801  C2032   1.527   1_455 S
C1801  H2034   1.111   1_455 S
H1802  C1917   1.111   .     S
N1809  C1811   1.446   .     S
N1809  H1810   1.029   .     S
C1811  H1813   1.111   .     S
C1811  H1814   1.110   .     S
C1811  H1812   1.111   .     S
N1815  H1816   1.030   .     S
N1815  C1817   1.447   .     S
C1817  H1818   1.111   .     S
C1817  H1819   1.111   .     S
C1817  H1820   1.111   .     S
N1821  H1822   1.031   .     S
N1821  C1823   1.449   .     S
C1823  H1824   1.111   .     S
C1823  H1825   1.112   .     S
C1823  H1826   1.109   .     S
N1827  H1828   1.022   .     S
N1827  C1829   1.445   .     S
C1829  H1831   1.110   .     S
C1829  H1832   1.110   .     S
C1829  H1830   1.110   .     S
N1833  H1834   1.031   .     S
N1833  C1835   1.449   .     S
C1835  H1836   1.109   .     S
C1835  H1838   1.110   .     S
C1835  H1837   1.107   .     S
N1839  H1840   1.030   .     S
N1839  C1841   1.449   .     S
C1841  H1842   1.110   .     S
C1841  H1843   1.109   .     S
C1841  H1844   1.109   .     S
N1845  C1847   1.452   .     S
N1845  H1846   1.028   .     S
C1847  H1849   1.109   .     S
C1847  H1848   1.103   .     S
C1847  H1850   1.112   .     S
N1851  C1853   1.448   .     S
N1851  H1852   1.032   .     S
C1853  H1856   1.111   .     S
C1853  H1854   1.106   .     S
C1853  H1855   1.110   .     S
C1857  O1900   1.306   .     A
C1857  O1897   1.300   .     A
C1857  C1866   1.467   .     S
C1858  O1899   1.305   .     A
C1858  O1898   1.299   .     A
C1858  C1865   1.467   .     S
C1859  C1884   1.398   .     A
C1859  H1893   1.085   .     S
C1860  H1894   1.084   .     S
C1860  C1883   1.398   .     A
C1860  C842    1.400   1_556 S
C1861  N1925   1.430   .     S
C1861  C1866   1.413   .     A
C1862  C1865   1.412   .     A
C1862  N1931   1.430   .     S
C1862  C1980   1.389   .     S
C1863  C1865   1.419   .     A
C1863  N1937   1.426   .     S
C1863  C1977   1.401   .     S
C1864  C1866   1.414   .     A
C1864  N1943   1.424   .     S
C1867  N1949   1.424   .     S
C1867  N1896   1.380   .     A
C1868  N1955   1.424   .     S
C1868  N1895   1.366   .     A
C1868  C1173   1.429   1_565 S
C1869  N1896   1.383   .     A
C1869  N1961   1.422   .     S
C1870  N1895   1.376   .     A
C1870  N1967   1.422   .     S
C1870  C1171   1.430   1_565 S
C1871  O1904   1.296   .     A
C1871  C1876   1.438   .     S
C1871  O1901   1.296   .     A
C1872  O1903   1.294   .     A
C1872  O1902   1.299   .     A
C1872  C1875   1.440   .     S
C1873  H1889   1.085   .     S
C1873  C1883   1.392   .     A
C1873  C1875   1.391   .     A
C1874  C1884   1.391   .     A
C1874  H1890   1.085   .     S
C1874  C1876   1.390   .     A
C1875  C1877   1.392   .     A
C1876  C1878   1.393   .     A
C1877  C1879   1.402   .     A
C1877  H1891   1.080   .     S
C1878  C1880   1.402   .     A
C1878  H1892   1.082   .     S
C1879  C1885   1.421   .     A
C1879  C1881   1.422   .     A
C1880  C1882   1.423   .     A
C1880  C1886   1.421   .     A
C1881  C1883   1.413   .     A
C1881  C838    1.402   1_556 S
C1882  C1884   1.413   .     A
C1885  C1905   1.519   .     S
C1885  C815    1.399   1_556 S
C1886  C1915   1.519   .     S
Cu1887 O1899   1.967   .     S
Cu1887 O1903   1.948   .     S
Cu1887 O1897   1.971   .     S
Cu1887 Cu1888  2.705   .     S
Cu1887 N1895   2.032   .     S
Cu1887 O1901   1.953   .     S
Cu1888 N1896   2.032   .     S
Cu1888 O1904   1.948   .     S
Cu1888 O1900   1.967   .     S
Cu1888 O1902   1.953   .     S
Cu1888 O1898   1.971   .     S
C1905  H1913   1.113   .     S
C1905  H1914   1.111   .     S
C1905  C1906   1.536   .     S
C1906  H1912   1.112   .     S
C1906  H1911   1.110   .     S
C1907  H1908   1.111   .     S
C1907  H1910   1.110   .     S
C1907  C2022   1.527   .     S
C1907  H2025   1.110   .     S
C1915  H1923   1.111   .     S
C1915  C1916   1.536   .     S
C1915  H1924   1.113   .     S
C1916  H1922   1.110   .     S
C1916  H1921   1.112   .     S
C1916  C2033   1.527   .     S
C1917  H1919   1.111   .     S
C1917  H1920   1.110   .     S
H1918  C2033   1.111   .     S
N1925  C1927   1.446   .     S
N1925  H1926   1.029   .     S
C1927  H1929   1.111   .     S
C1927  H1930   1.110   .     S
C1927  H1928   1.111   .     S
N1931  H1932   1.030   .     S
N1931  C1933   1.447   .     S
C1933  H1934   1.111   .     S
C1933  H1935   1.111   .     S
C1933  H1936   1.111   .     S
N1937  H1938   1.031   .     S
N1937  C1939   1.449   .     S
C1939  H1940   1.111   .     S
C1939  H1941   1.112   .     S
C1939  H1942   1.109   .     S
N1943  H1944   1.022   .     S
N1943  C1945   1.445   .     S
C1945  H1947   1.110   .     S
C1945  H1948   1.110   .     S
C1945  H1946   1.110   .     S
N1949  H1950   1.031   .     S
N1949  C1951   1.449   .     S
C1951  H1952   1.109   .     S
C1951  H1954   1.110   .     S
C1951  H1953   1.107   .     S
N1955  H1956   1.030   .     S
N1955  C1957   1.449   .     S
C1957  H1958   1.110   .     S
C1957  H1959   1.109   .     S
C1957  H1960   1.109   .     S
N1961  C1963   1.452   .     S
N1961  H1962   1.028   .     S
C1963  H1965   1.109   .     S
C1963  H1964   1.103   .     S
C1963  H1966   1.112   .     S
N1967  C1969   1.448   .     S
N1967  H1968   1.032   .     S
C1969  H1972   1.111   .     S
C1969  H1970   1.106   .     S
C1969  H1971   1.110   .     S
C1973  O2016   1.306   .     A
C1973  O2013   1.300   .     A
C1973  C1982   1.467   .     S
C1974  O2015   1.305   .     A
C1974  O2014   1.299   .     A
C1974  C1981   1.467   .     S
C1975  C2000   1.398   .     A
C1975  H2009   1.085   .     S
C1976  H2010   1.084   .     S
C1976  C1999   1.398   .     A
C1976  C958    1.400   1_556 S
C1977  N2041   1.430   .     S
C1977  C1982   1.413   .     A
C1978  C1981   1.412   .     A
C1978  N2047   1.430   .     S
C1978  C1748   1.389   1_655 S
C1979  C1981   1.419   .     A
C1979  N2053   1.426   .     S
C1979  C1745   1.401   1_655 S
C1980  C1982   1.414   .     A
C1980  N2059   1.424   .     S
C1983  N2065   1.424   .     S
C1983  N2012   1.380   .     A
C1984  N2071   1.424   .     S
C1984  N2011   1.366   .     A
C1984  C1289   1.429   1_565 S
C1985  N2012   1.383   .     A
C1985  N2077   1.422   .     S
C1986  N2011   1.376   .     A
C1986  N2083   1.422   .     S
C1986  C1287   1.430   1_565 S
C1987  O2020   1.296   .     A
C1987  C1992   1.438   .     S
C1987  O2017   1.296   .     A
C1988  O2019   1.294   .     A
C1988  O2018   1.299   .     A
C1988  C1991   1.440   .     S
C1989  H2005   1.085   .     S
C1989  C1999   1.392   .     A
C1989  C1991   1.391   .     A
C1990  C2000   1.391   .     A
C1990  H2006   1.085   .     S
C1990  C1992   1.390   .     A
C1991  C1993   1.392   .     A
C1992  C1994   1.393   .     A
C1993  C1995   1.402   .     A
C1993  H2007   1.080   .     S
C1994  C1996   1.402   .     A
C1994  H2008   1.082   .     S
C1995  C2001   1.421   .     A
C1995  C1997   1.422   .     A
C1996  C1998   1.423   .     A
C1996  C2002   1.421   .     A
C1997  C1999   1.413   .     A
C1997  C954    1.402   1_556 S
C1998  C2000   1.413   .     A
C2001  C2021   1.519   .     S
C2001  C931    1.399   1_556 S
C2002  C2031   1.519   .     S
Cu2003 O2015   1.967   .     S
Cu2003 O2019   1.948   .     S
Cu2003 O2013   1.971   .     S
Cu2003 Cu2004  2.705   .     S
Cu2003 N2011   2.032   .     S
Cu2003 O2017   1.953   .     S
Cu2004 N2012   2.032   .     S
Cu2004 O2020   1.948   .     S
Cu2004 O2016   1.967   .     S
Cu2004 O2018   1.953   .     S
Cu2004 O2014   1.971   .     S
C2021  H2029   1.113   .     S
C2021  H2030   1.111   .     S
C2021  C2022   1.536   .     S
C2022  H2028   1.112   .     S
C2022  H2027   1.110   .     S
C2023  H2024   1.111   .     S
C2023  H2026   1.110   .     S
C2023  C1790   1.527   1_655 S
C2023  H1793   1.110   1_655 S
C2031  H2039   1.111   .     S
C2031  C2032   1.536   .     S
C2031  H2040   1.113   .     S
C2032  H2038   1.110   .     S
C2032  H2037   1.112   .     S
C2032  C1801   1.527   1_655 S
C2033  H2035   1.111   .     S
C2033  H2036   1.110   .     S
H2034  C1801   1.111   1_655 S
N2041  C2043   1.446   .     S
N2041  H2042   1.029   .     S
C2043  H2045   1.111   .     S
C2043  H2046   1.110   .     S
C2043  H2044   1.111   .     S
N2047  H2048   1.030   .     S
N2047  C2049   1.447   .     S
C2049  H2050   1.111   .     S
C2049  H2051   1.111   .     S
C2049  H2052   1.111   .     S
N2053  H2054   1.031   .     S
N2053  C2055   1.449   .     S
C2055  H2056   1.111   .     S
C2055  H2057   1.112   .     S
C2055  H2058   1.109   .     S
N2059  H2060   1.022   .     S
N2059  C2061   1.445   .     S
C2061  H2063   1.110   .     S
C2061  H2064   1.110   .     S
C2061  H2062   1.110   .     S
N2065  H2066   1.031   .     S
N2065  C2067   1.449   .     S
C2067  H2068   1.109   .     S
C2067  H2070   1.110   .     S
C2067  H2069   1.107   .     S
N2071  H2072   1.030   .     S
N2071  C2073   1.449   .     S
C2073  H2074   1.110   .     S
C2073  H2075   1.109   .     S
C2073  H2076   1.109   .     S
N2077  C2079   1.452   .     S
N2077  H2078   1.028   .     S
C2079  H2081   1.109   .     S
C2079  H2080   1.103   .     S
C2079  H2082   1.112   .     S
N2083  C2085   1.448   .     S
N2083  H2084   1.032   .     S
C2085  H2088   1.111   .     S
C2085  H2086   1.106   .     S
C2085  H2087   1.110   .     S
