data_str_m2_o1_o16_pcu_sym.182
_audit_creation_date              2020-01-03
_audit_creation_method            'Materials Studio'
_symmetry_space_group_name_H-M    'P1'
_symmetry_Int_Tables_number       1
_symmetry_cell_setting            triclinic
loop_
_symmetry_equiv_pos_as_xyz
  x,y,z
_cell_length_a                    28.6483
_cell_length_b                    32.4627
_cell_length_c                    26.8038
_cell_angle_alpha                 90.4835
_cell_angle_beta                  71.9220
_cell_angle_gamma                 89.4639
loop_
_atom_site_label
_atom_site_type_symbol
_atom_site_fract_x
_atom_site_fract_y
_atom_site_fract_z
_atom_site_U_iso_or_equiv
_atom_site_adp_type
_atom_site_occupancy
C1     C     0.16645   0.24594   0.25027   0.00000  Uiso   1.00
C2     C     0.14443   0.16091   0.48946   0.00000  Uiso   1.00
C3     C     0.15488   0.14772   0.43635   0.00000  Uiso   1.00
C4     C     0.18083   0.15588   0.01509   0.00000  Uiso   1.00
C5     C     0.22263   0.13075   0.49088   0.00000  Uiso   1.00
C6     C     0.22862   0.11259   0.44201   0.00000  Uiso   1.00
C7     C     0.19501   0.11976   0.41502   0.00000  Uiso   1.00
C8     C     0.17748   0.17510   0.06379   0.00000  Uiso   1.00
C9     C     0.24918   0.13636   0.06790   0.00000  Uiso   1.00
C10    C     0.12357   0.16206   0.40783   0.00000  Uiso   1.00
C11    C     0.20382   0.31173   0.26270   0.00000  Uiso   1.00
C12    C     0.14024   0.16466   0.35015   0.00000  Uiso   1.00
C13    C     0.20392   0.02101   0.26278   0.00000  Uiso   1.00
C14    C     0.16662   0.04275   0.25044   0.00000  Uiso   1.00
C15    C     0.12876   0.02157   0.23883   0.00000  Uiso   1.00
C16    C     0.12848   0.31227   0.23908   0.00000  Uiso   1.00
C17    C     0.16618   0.29056   0.25072   0.00000  Uiso   1.00
C18    C     0.29970   0.19488   0.27927   0.00000  Uiso   1.00
C19    C     0.01586   0.19471   0.27949   0.00000  Uiso   1.00
C20    C     0.03424   0.13885   0.22053   0.00000  Uiso   1.00
C21    C     0.31832   0.13811   0.22087   0.00000  Uiso   1.00
C22    C     0.16676   0.08739   0.25004   0.00000  Uiso   1.00
C23    C     0.19306   0.16700   0.14972   0.00000  Uiso   1.00
C24    C     0.25718   0.12235   0.01680   0.00000  Uiso   1.00
C25    C     0.20832   0.16134   0.09249   0.00000  Uiso   1.00
C26    C     0.07723   0.17882   0.43513   0.00000  Uiso   1.00
C27    C     0.06307   0.18374   0.48922   0.00000  Uiso   1.00
C28    C     0.09644   0.17564   0.01614   0.00000  Uiso   1.00
Cu29   Cu    0.11978   0.16666   0.25000   0.00000  Uiso   1.00
Cu30   Cu    0.21355   0.16667   0.25000   0.00000  Uiso   1.00
H31    H     0.27400   0.12632   0.08871   0.00000  Uiso   1.00
H32    H     0.23279   0.03681   0.27307   0.00000  Uiso   1.00
H33    H     0.09958   0.03787   0.22918   0.00000  Uiso   1.00
H34    H     0.09917   0.29639   0.22962   0.00000  Uiso   1.00
H35    H     0.27404   0.21743   0.30286   0.00000  Uiso   1.00
H36    H     0.02732   0.21713   0.30326   0.00000  Uiso   1.00
H37    H     0.06031   0.11634   0.19735   0.00000  Uiso   1.00
H38    H     0.25893   0.09125   0.42526   0.00000  Uiso   1.00
H39    H     0.28897   0.10287   0.49865   0.00000  Uiso   1.00
H40    H     0.05207   0.18875   0.41454   0.00000  Uiso   1.00
H41    H     0.08309   0.17914   0.05823   0.00000  Uiso   1.00
H42    H     0.02660   0.19529   0.01021   0.00000  Uiso   1.00
H43    H     0.23295   0.29543   0.27243   0.00000  Uiso   1.00
N44    N     0.04931   0.16666   0.24998   0.00000  Uiso   1.00
N45    N     0.28402   0.16669   0.24999   0.00000  Uiso   1.00
O46    O     0.12708   0.22678   0.25000   0.00000  Uiso   1.00
O47    O     0.20627   0.22679   0.25000   0.00000  Uiso   1.00
O48    O     0.10775   0.16665   0.32549   0.00000  Uiso   1.00
O49    O     0.18694   0.16666   0.32549   0.00000  Uiso   1.00
O50    O     0.12706   0.10654   0.24999   0.00000  Uiso   1.00
O51    O     0.20625   0.10655   0.24999   0.00000  Uiso   1.00
O52    O     0.14640   0.16667   0.17451   0.00000  Uiso   1.00
O53    O     0.22559   0.16668   0.17451   0.00000  Uiso   1.00
N54    N     0.30579   0.10528   0.19183   0.00000  Uiso   1.00
H55    H     0.28379   0.11580   0.17027   0.00000  Uiso   1.00
H56    H     0.28844   0.08236   0.21777   0.00000  Uiso   1.00
N57    N     0.14845   0.21207   0.08008   0.00000  Uiso   1.00
H58    H     0.12039   0.20726   0.11510   0.00000  Uiso   1.00
H59    H     0.17107   0.23531   0.08642   0.00000  Uiso   1.00
N60    N     0.19817   0.09239   0.37167   0.00000  Uiso   1.00
H61    H     0.22618   0.10215   0.33881   0.00000  Uiso   1.00
H62    H     0.16485   0.09025   0.36370   0.00000  Uiso   1.00
C63    C     0.49978   0.24594   0.25027   0.00000  Uiso   1.00
C64    C     0.47776   0.16091   0.48946   0.00000  Uiso   1.00
C65    C     0.48821   0.14772   0.43635   0.00000  Uiso   1.00
C66    C     0.51417   0.15588   0.01509   0.00000  Uiso   1.00
C67    C     0.55596   0.13075   0.49088   0.00000  Uiso   1.00
C68    C     0.56195   0.11259   0.44201   0.00000  Uiso   1.00
C69    C     0.52834   0.11976   0.41502   0.00000  Uiso   1.00
C70    C     0.51081   0.17510   0.06379   0.00000  Uiso   1.00
C71    C     0.58251   0.13636   0.06790   0.00000  Uiso   1.00
C72    C     0.45690   0.16206   0.40783   0.00000  Uiso   1.00
C73    C     0.53716   0.31173   0.26270   0.00000  Uiso   1.00
C74    C     0.47357   0.16466   0.35015   0.00000  Uiso   1.00
C75    C     0.53725   0.02101   0.26278   0.00000  Uiso   1.00
C76    C     0.49995   0.04275   0.25044   0.00000  Uiso   1.00
C77    C     0.46209   0.02157   0.23883   0.00000  Uiso   1.00
C78    C     0.46182   0.31227   0.23908   0.00000  Uiso   1.00
C79    C     0.49951   0.29056   0.25072   0.00000  Uiso   1.00
C80    C     0.63304   0.19488   0.27927   0.00000  Uiso   1.00
C81    C     0.34919   0.19471   0.27949   0.00000  Uiso   1.00
C82    C     0.36757   0.13885   0.22053   0.00000  Uiso   1.00
C83    C     0.65165   0.13811   0.22087   0.00000  Uiso   1.00
C84    C     0.50010   0.08739   0.25004   0.00000  Uiso   1.00
C85    C     0.52639   0.16700   0.14972   0.00000  Uiso   1.00
C86    C     0.59051   0.12235   0.01680   0.00000  Uiso   1.00
C87    C     0.54166   0.16134   0.09249   0.00000  Uiso   1.00
C88    C     0.41057   0.17882   0.43513   0.00000  Uiso   1.00
C89    C     0.39640   0.18374   0.48922   0.00000  Uiso   1.00
C90    C     0.42977   0.17564   0.01614   0.00000  Uiso   1.00
Cu91   Cu    0.45311   0.16666   0.25000   0.00000  Uiso   1.00
Cu92   Cu    0.54689   0.16667   0.25000   0.00000  Uiso   1.00
H93    H     0.60734   0.12632   0.08871   0.00000  Uiso   1.00
H94    H     0.56613   0.03681   0.27307   0.00000  Uiso   1.00
H95    H     0.43292   0.03787   0.22918   0.00000  Uiso   1.00
H96    H     0.43250   0.29639   0.22962   0.00000  Uiso   1.00
H97    H     0.60737   0.21743   0.30286   0.00000  Uiso   1.00
H98    H     0.36065   0.21713   0.30326   0.00000  Uiso   1.00
H99    H     0.39364   0.11634   0.19735   0.00000  Uiso   1.00
H100   H     0.59227   0.09125   0.42526   0.00000  Uiso   1.00
H101   H     0.62231   0.10287   0.49865   0.00000  Uiso   1.00
H102   H     0.38540   0.18875   0.41454   0.00000  Uiso   1.00
H103   H     0.41643   0.17914   0.05823   0.00000  Uiso   1.00
H104   H     0.35994   0.19529   0.01021   0.00000  Uiso   1.00
H105   H     0.56629   0.29543   0.27243   0.00000  Uiso   1.00
N106   N     0.38265   0.16666   0.24998   0.00000  Uiso   1.00
N107   N     0.61735   0.16669   0.24999   0.00000  Uiso   1.00
O108   O     0.46042   0.22678   0.25000   0.00000  Uiso   1.00
O109   O     0.53961   0.22679   0.25000   0.00000  Uiso   1.00
O110   O     0.44108   0.16665   0.32549   0.00000  Uiso   1.00
O111   O     0.52027   0.16666   0.32549   0.00000  Uiso   1.00
O112   O     0.46039   0.10654   0.24999   0.00000  Uiso   1.00
O113   O     0.53958   0.10655   0.24999   0.00000  Uiso   1.00
O114   O     0.47973   0.16667   0.17451   0.00000  Uiso   1.00
O115   O     0.55892   0.16668   0.17451   0.00000  Uiso   1.00
N116   N     0.63912   0.10528   0.19183   0.00000  Uiso   1.00
H117   H     0.61712   0.11580   0.17027   0.00000  Uiso   1.00
H118   H     0.62177   0.08236   0.21777   0.00000  Uiso   1.00
N119   N     0.48178   0.21207   0.08008   0.00000  Uiso   1.00
H120   H     0.45372   0.20726   0.11510   0.00000  Uiso   1.00
H121   H     0.50440   0.23531   0.08642   0.00000  Uiso   1.00
N122   N     0.53151   0.09239   0.37167   0.00000  Uiso   1.00
H123   H     0.55951   0.10215   0.33881   0.00000  Uiso   1.00
H124   H     0.49818   0.09025   0.36370   0.00000  Uiso   1.00
C125   C     0.83312   0.24594   0.25027   0.00000  Uiso   1.00
C126   C     0.81110   0.16091   0.48946   0.00000  Uiso   1.00
C127   C     0.82154   0.14772   0.43635   0.00000  Uiso   1.00
C128   C     0.84750   0.15588   0.01509   0.00000  Uiso   1.00
C129   C     0.88930   0.13075   0.49088   0.00000  Uiso   1.00
C130   C     0.89529   0.11259   0.44201   0.00000  Uiso   1.00
C131   C     0.86167   0.11976   0.41502   0.00000  Uiso   1.00
C132   C     0.84415   0.17510   0.06379   0.00000  Uiso   1.00
C133   C     0.91585   0.13636   0.06790   0.00000  Uiso   1.00
C134   C     0.79024   0.16206   0.40783   0.00000  Uiso   1.00
C135   C     0.87049   0.31173   0.26270   0.00000  Uiso   1.00
C136   C     0.80691   0.16466   0.35015   0.00000  Uiso   1.00
C137   C     0.87058   0.02101   0.26278   0.00000  Uiso   1.00
C138   C     0.83329   0.04275   0.25044   0.00000  Uiso   1.00
C139   C     0.79543   0.02157   0.23883   0.00000  Uiso   1.00
C140   C     0.79515   0.31227   0.23908   0.00000  Uiso   1.00
C141   C     0.83284   0.29056   0.25072   0.00000  Uiso   1.00
C142   C     0.96637   0.19488   0.27927   0.00000  Uiso   1.00
C143   C     0.68253   0.19471   0.27949   0.00000  Uiso   1.00
C144   C     0.70090   0.13885   0.22053   0.00000  Uiso   1.00
C145   C     0.98498   0.13811   0.22087   0.00000  Uiso   1.00
C146   C     0.83343   0.08739   0.25004   0.00000  Uiso   1.00
C147   C     0.85972   0.16700   0.14972   0.00000  Uiso   1.00
C148   C     0.92384   0.12235   0.01680   0.00000  Uiso   1.00
C149   C     0.87499   0.16134   0.09249   0.00000  Uiso   1.00
C150   C     0.74390   0.17882   0.43513   0.00000  Uiso   1.00
C151   C     0.72973   0.18374   0.48922   0.00000  Uiso   1.00
C152   C     0.76311   0.17564   0.01614   0.00000  Uiso   1.00
Cu153  Cu    0.78645   0.16666   0.25000   0.00000  Uiso   1.00
Cu154  Cu    0.88022   0.16667   0.25000   0.00000  Uiso   1.00
H155   H     0.94067   0.12632   0.08871   0.00000  Uiso   1.00
H156   H     0.89946   0.03681   0.27307   0.00000  Uiso   1.00
H157   H     0.76625   0.03787   0.22918   0.00000  Uiso   1.00
H158   H     0.76584   0.29639   0.22962   0.00000  Uiso   1.00
H159   H     0.94070   0.21743   0.30286   0.00000  Uiso   1.00
H160   H     0.69398   0.21713   0.30326   0.00000  Uiso   1.00
H161   H     0.72697   0.11634   0.19735   0.00000  Uiso   1.00
H162   H     0.92560   0.09125   0.42526   0.00000  Uiso   1.00
H163   H     0.95564   0.10287   0.49865   0.00000  Uiso   1.00
H164   H     0.71873   0.18875   0.41454   0.00000  Uiso   1.00
H165   H     0.74976   0.17914   0.05823   0.00000  Uiso   1.00
H166   H     0.69327   0.19529   0.01021   0.00000  Uiso   1.00
H167   H     0.89962   0.29543   0.27243   0.00000  Uiso   1.00
N168   N     0.71598   0.16666   0.24998   0.00000  Uiso   1.00
N169   N     0.95069   0.16669   0.24999   0.00000  Uiso   1.00
O170   O     0.79375   0.22678   0.25000   0.00000  Uiso   1.00
O171   O     0.87294   0.22679   0.25000   0.00000  Uiso   1.00
O172   O     0.77441   0.16665   0.32549   0.00000  Uiso   1.00
O173   O     0.85360   0.16666   0.32549   0.00000  Uiso   1.00
O174   O     0.79373   0.10654   0.24999   0.00000  Uiso   1.00
O175   O     0.87292   0.10655   0.24999   0.00000  Uiso   1.00
O176   O     0.81306   0.16667   0.17451   0.00000  Uiso   1.00
O177   O     0.89225   0.16668   0.17451   0.00000  Uiso   1.00
N178   N     0.97245   0.10528   0.19183   0.00000  Uiso   1.00
H179   H     0.95045   0.11580   0.17027   0.00000  Uiso   1.00
H180   H     0.95511   0.08236   0.21777   0.00000  Uiso   1.00
N181   N     0.81511   0.21207   0.08008   0.00000  Uiso   1.00
H182   H     0.78706   0.20726   0.11510   0.00000  Uiso   1.00
H183   H     0.83773   0.23531   0.08642   0.00000  Uiso   1.00
N184   N     0.86484   0.09239   0.37167   0.00000  Uiso   1.00
H185   H     0.89284   0.10215   0.33881   0.00000  Uiso   1.00
H186   H     0.83152   0.09025   0.36370   0.00000  Uiso   1.00
C187   C     0.16645   0.57927   0.25027   0.00000  Uiso   1.00
C188   C     0.14443   0.49424   0.48946   0.00000  Uiso   1.00
C189   C     0.15488   0.48105   0.43635   0.00000  Uiso   1.00
C190   C     0.18083   0.48921   0.01509   0.00000  Uiso   1.00
C191   C     0.22263   0.46409   0.49088   0.00000  Uiso   1.00
C192   C     0.22862   0.44592   0.44201   0.00000  Uiso   1.00
C193   C     0.19501   0.45309   0.41502   0.00000  Uiso   1.00
C194   C     0.17748   0.50843   0.06379   0.00000  Uiso   1.00
C195   C     0.24918   0.46970   0.06790   0.00000  Uiso   1.00
C196   C     0.12357   0.49540   0.40783   0.00000  Uiso   1.00
C197   C     0.20382   0.64506   0.26270   0.00000  Uiso   1.00
C198   C     0.14024   0.49800   0.35015   0.00000  Uiso   1.00
C199   C     0.20392   0.35435   0.26278   0.00000  Uiso   1.00
C200   C     0.16662   0.37609   0.25044   0.00000  Uiso   1.00
C201   C     0.12876   0.35490   0.23883   0.00000  Uiso   1.00
C202   C     0.12848   0.64561   0.23908   0.00000  Uiso   1.00
C203   C     0.16618   0.62389   0.25072   0.00000  Uiso   1.00
C204   C     0.29970   0.52821   0.27927   0.00000  Uiso   1.00
C205   C     0.01586   0.52804   0.27949   0.00000  Uiso   1.00
C206   C     0.03424   0.47218   0.22053   0.00000  Uiso   1.00
C207   C     0.31832   0.47144   0.22087   0.00000  Uiso   1.00
C208   C     0.16676   0.42072   0.25004   0.00000  Uiso   1.00
C209   C     0.19306   0.50034   0.14972   0.00000  Uiso   1.00
C210   C     0.25718   0.45568   0.01680   0.00000  Uiso   1.00
C211   C     0.20832   0.49468   0.09249   0.00000  Uiso   1.00
C212   C     0.07723   0.51215   0.43513   0.00000  Uiso   1.00
C213   C     0.06307   0.51708   0.48922   0.00000  Uiso   1.00
C214   C     0.09644   0.50897   0.01614   0.00000  Uiso   1.00
Cu215  Cu    0.11978   0.49999   0.25000   0.00000  Uiso   1.00
Cu216  Cu    0.21355   0.50001   0.25000   0.00000  Uiso   1.00
H217   H     0.27400   0.45966   0.08871   0.00000  Uiso   1.00
H218   H     0.23279   0.37014   0.27307   0.00000  Uiso   1.00
H219   H     0.09958   0.37120   0.22918   0.00000  Uiso   1.00
H220   H     0.09917   0.62972   0.22962   0.00000  Uiso   1.00
H221   H     0.27404   0.55076   0.30286   0.00000  Uiso   1.00
H222   H     0.02732   0.55047   0.30326   0.00000  Uiso   1.00
H223   H     0.06031   0.44967   0.19735   0.00000  Uiso   1.00
H224   H     0.25893   0.42458   0.42526   0.00000  Uiso   1.00
H225   H     0.28897   0.43620   0.49865   0.00000  Uiso   1.00
H226   H     0.05207   0.52208   0.41454   0.00000  Uiso   1.00
H227   H     0.08309   0.51247   0.05823   0.00000  Uiso   1.00
H228   H     0.02660   0.52863   0.01021   0.00000  Uiso   1.00
H229   H     0.23295   0.62876   0.27243   0.00000  Uiso   1.00
N230   N     0.04931   0.49999   0.24998   0.00000  Uiso   1.00
N231   N     0.28402   0.50002   0.24999   0.00000  Uiso   1.00
O232   O     0.12708   0.56011   0.25000   0.00000  Uiso   1.00
O233   O     0.20627   0.56012   0.25000   0.00000  Uiso   1.00
O234   O     0.10775   0.49998   0.32549   0.00000  Uiso   1.00
O235   O     0.18694   0.49999   0.32549   0.00000  Uiso   1.00
O236   O     0.12706   0.43988   0.24999   0.00000  Uiso   1.00
O237   O     0.20625   0.43989   0.24999   0.00000  Uiso   1.00
O238   O     0.14640   0.50001   0.17451   0.00000  Uiso   1.00
O239   O     0.22559   0.50002   0.17451   0.00000  Uiso   1.00
N240   N     0.30579   0.43861   0.19183   0.00000  Uiso   1.00
H241   H     0.28379   0.44913   0.17027   0.00000  Uiso   1.00
H242   H     0.28844   0.41570   0.21777   0.00000  Uiso   1.00
N243   N     0.14845   0.54540   0.08008   0.00000  Uiso   1.00
H244   H     0.12039   0.54060   0.11510   0.00000  Uiso   1.00
H245   H     0.17107   0.56865   0.08642   0.00000  Uiso   1.00
N246   N     0.19817   0.42573   0.37167   0.00000  Uiso   1.00
H247   H     0.22618   0.43548   0.33881   0.00000  Uiso   1.00
H248   H     0.16485   0.42358   0.36370   0.00000  Uiso   1.00
C249   C     0.49978   0.57927   0.25027   0.00000  Uiso   1.00
C250   C     0.47776   0.49424   0.48946   0.00000  Uiso   1.00
C251   C     0.48821   0.48105   0.43635   0.00000  Uiso   1.00
C252   C     0.51417   0.48921   0.01509   0.00000  Uiso   1.00
C253   C     0.55596   0.46409   0.49088   0.00000  Uiso   1.00
C254   C     0.56195   0.44592   0.44201   0.00000  Uiso   1.00
C255   C     0.52834   0.45309   0.41502   0.00000  Uiso   1.00
C256   C     0.51081   0.50843   0.06379   0.00000  Uiso   1.00
C257   C     0.58251   0.46970   0.06790   0.00000  Uiso   1.00
C258   C     0.45690   0.49540   0.40783   0.00000  Uiso   1.00
C259   C     0.53716   0.64506   0.26270   0.00000  Uiso   1.00
C260   C     0.47357   0.49800   0.35015   0.00000  Uiso   1.00
C261   C     0.53725   0.35435   0.26278   0.00000  Uiso   1.00
C262   C     0.49995   0.37609   0.25044   0.00000  Uiso   1.00
C263   C     0.46209   0.35490   0.23883   0.00000  Uiso   1.00
C264   C     0.46182   0.64561   0.23908   0.00000  Uiso   1.00
C265   C     0.49951   0.62389   0.25072   0.00000  Uiso   1.00
C266   C     0.63304   0.52821   0.27927   0.00000  Uiso   1.00
C267   C     0.34919   0.52804   0.27949   0.00000  Uiso   1.00
C268   C     0.36757   0.47218   0.22053   0.00000  Uiso   1.00
C269   C     0.65165   0.47144   0.22087   0.00000  Uiso   1.00
C270   C     0.50010   0.42072   0.25004   0.00000  Uiso   1.00
C271   C     0.52639   0.50034   0.14972   0.00000  Uiso   1.00
C272   C     0.59051   0.45568   0.01680   0.00000  Uiso   1.00
C273   C     0.54166   0.49468   0.09249   0.00000  Uiso   1.00
C274   C     0.41057   0.51215   0.43513   0.00000  Uiso   1.00
C275   C     0.39640   0.51708   0.48922   0.00000  Uiso   1.00
C276   C     0.42977   0.50897   0.01614   0.00000  Uiso   1.00
Cu277  Cu    0.45311   0.49999   0.25000   0.00000  Uiso   1.00
Cu278  Cu    0.54689   0.50001   0.25000   0.00000  Uiso   1.00
H279   H     0.60734   0.45966   0.08871   0.00000  Uiso   1.00
H280   H     0.56613   0.37014   0.27307   0.00000  Uiso   1.00
H281   H     0.43292   0.37120   0.22918   0.00000  Uiso   1.00
H282   H     0.43250   0.62972   0.22962   0.00000  Uiso   1.00
H283   H     0.60737   0.55076   0.30286   0.00000  Uiso   1.00
H284   H     0.36065   0.55047   0.30326   0.00000  Uiso   1.00
H285   H     0.39364   0.44967   0.19735   0.00000  Uiso   1.00
H286   H     0.59227   0.42458   0.42526   0.00000  Uiso   1.00
H287   H     0.62231   0.43620   0.49865   0.00000  Uiso   1.00
H288   H     0.38540   0.52208   0.41454   0.00000  Uiso   1.00
H289   H     0.41643   0.51247   0.05823   0.00000  Uiso   1.00
H290   H     0.35994   0.52863   0.01021   0.00000  Uiso   1.00
H291   H     0.56629   0.62876   0.27243   0.00000  Uiso   1.00
N292   N     0.38265   0.49999   0.24998   0.00000  Uiso   1.00
N293   N     0.61735   0.50002   0.24999   0.00000  Uiso   1.00
O294   O     0.46042   0.56011   0.25000   0.00000  Uiso   1.00
O295   O     0.53961   0.56012   0.25000   0.00000  Uiso   1.00
O296   O     0.44108   0.49998   0.32549   0.00000  Uiso   1.00
O297   O     0.52027   0.49999   0.32549   0.00000  Uiso   1.00
O298   O     0.46039   0.43988   0.24999   0.00000  Uiso   1.00
O299   O     0.53958   0.43989   0.24999   0.00000  Uiso   1.00
O300   O     0.47973   0.50001   0.17451   0.00000  Uiso   1.00
O301   O     0.55892   0.50002   0.17451   0.00000  Uiso   1.00
N302   N     0.63912   0.43861   0.19183   0.00000  Uiso   1.00
H303   H     0.61712   0.44913   0.17027   0.00000  Uiso   1.00
H304   H     0.62177   0.41570   0.21777   0.00000  Uiso   1.00
N305   N     0.48178   0.54540   0.08008   0.00000  Uiso   1.00
H306   H     0.45372   0.54060   0.11510   0.00000  Uiso   1.00
H307   H     0.50440   0.56865   0.08642   0.00000  Uiso   1.00
N308   N     0.53151   0.42573   0.37167   0.00000  Uiso   1.00
H309   H     0.55951   0.43548   0.33881   0.00000  Uiso   1.00
H310   H     0.49818   0.42358   0.36370   0.00000  Uiso   1.00
C311   C     0.83312   0.57927   0.25027   0.00000  Uiso   1.00
C312   C     0.81110   0.49424   0.48946   0.00000  Uiso   1.00
C313   C     0.82154   0.48105   0.43635   0.00000  Uiso   1.00
C314   C     0.84750   0.48921   0.01509   0.00000  Uiso   1.00
C315   C     0.88930   0.46409   0.49088   0.00000  Uiso   1.00
C316   C     0.89529   0.44592   0.44201   0.00000  Uiso   1.00
C317   C     0.86167   0.45309   0.41502   0.00000  Uiso   1.00
C318   C     0.84415   0.50843   0.06379   0.00000  Uiso   1.00
C319   C     0.91585   0.46970   0.06790   0.00000  Uiso   1.00
C320   C     0.79024   0.49540   0.40783   0.00000  Uiso   1.00
C321   C     0.87049   0.64506   0.26270   0.00000  Uiso   1.00
C322   C     0.80691   0.49800   0.35015   0.00000  Uiso   1.00
C323   C     0.87058   0.35435   0.26278   0.00000  Uiso   1.00
C324   C     0.83329   0.37609   0.25044   0.00000  Uiso   1.00
C325   C     0.79543   0.35490   0.23883   0.00000  Uiso   1.00
C326   C     0.79515   0.64561   0.23908   0.00000  Uiso   1.00
C327   C     0.83284   0.62389   0.25072   0.00000  Uiso   1.00
C328   C     0.96637   0.52821   0.27927   0.00000  Uiso   1.00
C329   C     0.68253   0.52804   0.27949   0.00000  Uiso   1.00
C330   C     0.70090   0.47218   0.22053   0.00000  Uiso   1.00
C331   C     0.98498   0.47144   0.22087   0.00000  Uiso   1.00
C332   C     0.83343   0.42072   0.25004   0.00000  Uiso   1.00
C333   C     0.85972   0.50034   0.14972   0.00000  Uiso   1.00
C334   C     0.92384   0.45568   0.01680   0.00000  Uiso   1.00
C335   C     0.87499   0.49468   0.09249   0.00000  Uiso   1.00
C336   C     0.74390   0.51215   0.43513   0.00000  Uiso   1.00
C337   C     0.72973   0.51708   0.48922   0.00000  Uiso   1.00
C338   C     0.76311   0.50897   0.01614   0.00000  Uiso   1.00
Cu339  Cu    0.78645   0.49999   0.25000   0.00000  Uiso   1.00
Cu340  Cu    0.88022   0.50001   0.25000   0.00000  Uiso   1.00
H341   H     0.94067   0.45966   0.08871   0.00000  Uiso   1.00
H342   H     0.89946   0.37014   0.27307   0.00000  Uiso   1.00
H343   H     0.76625   0.37120   0.22918   0.00000  Uiso   1.00
H344   H     0.76584   0.62972   0.22962   0.00000  Uiso   1.00
H345   H     0.94070   0.55076   0.30286   0.00000  Uiso   1.00
H346   H     0.69398   0.55047   0.30326   0.00000  Uiso   1.00
H347   H     0.72697   0.44967   0.19735   0.00000  Uiso   1.00
H348   H     0.92560   0.42458   0.42526   0.00000  Uiso   1.00
H349   H     0.95564   0.43620   0.49865   0.00000  Uiso   1.00
H350   H     0.71873   0.52208   0.41454   0.00000  Uiso   1.00
H351   H     0.74976   0.51247   0.05823   0.00000  Uiso   1.00
H352   H     0.69327   0.52863   0.01021   0.00000  Uiso   1.00
H353   H     0.89962   0.62876   0.27243   0.00000  Uiso   1.00
N354   N     0.71598   0.49999   0.24998   0.00000  Uiso   1.00
N355   N     0.95069   0.50002   0.24999   0.00000  Uiso   1.00
O356   O     0.79375   0.56011   0.25000   0.00000  Uiso   1.00
O357   O     0.87294   0.56012   0.25000   0.00000  Uiso   1.00
O358   O     0.77441   0.49998   0.32549   0.00000  Uiso   1.00
O359   O     0.85360   0.49999   0.32549   0.00000  Uiso   1.00
O360   O     0.79373   0.43988   0.24999   0.00000  Uiso   1.00
O361   O     0.87292   0.43989   0.24999   0.00000  Uiso   1.00
O362   O     0.81306   0.50001   0.17451   0.00000  Uiso   1.00
O363   O     0.89225   0.50002   0.17451   0.00000  Uiso   1.00
N364   N     0.97245   0.43861   0.19183   0.00000  Uiso   1.00
H365   H     0.95045   0.44913   0.17027   0.00000  Uiso   1.00
H366   H     0.95511   0.41570   0.21777   0.00000  Uiso   1.00
N367   N     0.81511   0.54540   0.08008   0.00000  Uiso   1.00
H368   H     0.78706   0.54060   0.11510   0.00000  Uiso   1.00
H369   H     0.83773   0.56865   0.08642   0.00000  Uiso   1.00
N370   N     0.86484   0.42573   0.37167   0.00000  Uiso   1.00
H371   H     0.89284   0.43548   0.33881   0.00000  Uiso   1.00
H372   H     0.83152   0.42358   0.36370   0.00000  Uiso   1.00
C373   C     0.16645   0.91260   0.25027   0.00000  Uiso   1.00
C374   C     0.14443   0.82758   0.48946   0.00000  Uiso   1.00
C375   C     0.15488   0.81438   0.43635   0.00000  Uiso   1.00
C376   C     0.18083   0.82255   0.01509   0.00000  Uiso   1.00
C377   C     0.22263   0.79742   0.49088   0.00000  Uiso   1.00
C378   C     0.22862   0.77926   0.44201   0.00000  Uiso   1.00
C379   C     0.19501   0.78642   0.41502   0.00000  Uiso   1.00
C380   C     0.17748   0.84177   0.06379   0.00000  Uiso   1.00
C381   C     0.24918   0.80303   0.06790   0.00000  Uiso   1.00
C382   C     0.12357   0.82873   0.40783   0.00000  Uiso   1.00
C383   C     0.20382   0.97840   0.26270   0.00000  Uiso   1.00
C384   C     0.14024   0.83133   0.35015   0.00000  Uiso   1.00
C385   C     0.20392   0.68768   0.26278   0.00000  Uiso   1.00
C386   C     0.16662   0.70942   0.25044   0.00000  Uiso   1.00
C387   C     0.12876   0.68824   0.23883   0.00000  Uiso   1.00
C388   C     0.12848   0.97894   0.23908   0.00000  Uiso   1.00
C389   C     0.16618   0.95722   0.25072   0.00000  Uiso   1.00
C390   C     0.29970   0.86154   0.27927   0.00000  Uiso   1.00
C391   C     0.01586   0.86138   0.27949   0.00000  Uiso   1.00
C392   C     0.03424   0.80552   0.22053   0.00000  Uiso   1.00
C393   C     0.31832   0.80478   0.22087   0.00000  Uiso   1.00
C394   C     0.16676   0.75405   0.25004   0.00000  Uiso   1.00
C395   C     0.19306   0.83367   0.14972   0.00000  Uiso   1.00
C396   C     0.25718   0.78901   0.01680   0.00000  Uiso   1.00
C397   C     0.20832   0.82801   0.09249   0.00000  Uiso   1.00
C398   C     0.07723   0.84549   0.43513   0.00000  Uiso   1.00
C399   C     0.06307   0.85041   0.48922   0.00000  Uiso   1.00
C400   C     0.09644   0.84231   0.01614   0.00000  Uiso   1.00
Cu401  Cu    0.11978   0.83333   0.25000   0.00000  Uiso   1.00
Cu402  Cu    0.21355   0.83334   0.25000   0.00000  Uiso   1.00
H403   H     0.27400   0.79299   0.08871   0.00000  Uiso   1.00
H404   H     0.23279   0.70347   0.27307   0.00000  Uiso   1.00
H405   H     0.09958   0.70453   0.22918   0.00000  Uiso   1.00
H406   H     0.09917   0.96305   0.22962   0.00000  Uiso   1.00
H407   H     0.27404   0.88410   0.30286   0.00000  Uiso   1.00
H408   H     0.02732   0.88380   0.30326   0.00000  Uiso   1.00
H409   H     0.06031   0.78301   0.19735   0.00000  Uiso   1.00
H410   H     0.25893   0.75791   0.42526   0.00000  Uiso   1.00
H411   H     0.28897   0.76953   0.49865   0.00000  Uiso   1.00
H412   H     0.05207   0.85542   0.41454   0.00000  Uiso   1.00
H413   H     0.08309   0.84581   0.05823   0.00000  Uiso   1.00
H414   H     0.02660   0.86196   0.01021   0.00000  Uiso   1.00
H415   H     0.23295   0.96209   0.27243   0.00000  Uiso   1.00
N416   N     0.04931   0.83332   0.24998   0.00000  Uiso   1.00
N417   N     0.28402   0.83335   0.24999   0.00000  Uiso   1.00
O418   O     0.12708   0.89345   0.25000   0.00000  Uiso   1.00
O419   O     0.20627   0.89346   0.25000   0.00000  Uiso   1.00
O420   O     0.10775   0.83332   0.32549   0.00000  Uiso   1.00
O421   O     0.18694   0.83333   0.32549   0.00000  Uiso   1.00
O422   O     0.12706   0.77321   0.24999   0.00000  Uiso   1.00
O423   O     0.20625   0.77322   0.24999   0.00000  Uiso   1.00
O424   O     0.14640   0.83334   0.17451   0.00000  Uiso   1.00
O425   O     0.22559   0.83335   0.17451   0.00000  Uiso   1.00
N426   N     0.30579   0.77194   0.19183   0.00000  Uiso   1.00
H427   H     0.28379   0.78246   0.17027   0.00000  Uiso   1.00
H428   H     0.28844   0.74903   0.21777   0.00000  Uiso   1.00
N429   N     0.14845   0.87874   0.08008   0.00000  Uiso   1.00
H430   H     0.12039   0.87393   0.11510   0.00000  Uiso   1.00
H431   H     0.17107   0.90198   0.08642   0.00000  Uiso   1.00
N432   N     0.19817   0.75906   0.37167   0.00000  Uiso   1.00
H433   H     0.22618   0.76882   0.33881   0.00000  Uiso   1.00
H434   H     0.16485   0.75692   0.36370   0.00000  Uiso   1.00
C435   C     0.49978   0.91260   0.25027   0.00000  Uiso   1.00
C436   C     0.47776   0.82758   0.48946   0.00000  Uiso   1.00
C437   C     0.48821   0.81438   0.43635   0.00000  Uiso   1.00
C438   C     0.51417   0.82255   0.01509   0.00000  Uiso   1.00
C439   C     0.55596   0.79742   0.49088   0.00000  Uiso   1.00
C440   C     0.56195   0.77926   0.44201   0.00000  Uiso   1.00
C441   C     0.52834   0.78642   0.41502   0.00000  Uiso   1.00
C442   C     0.51081   0.84177   0.06379   0.00000  Uiso   1.00
C443   C     0.58251   0.80303   0.06790   0.00000  Uiso   1.00
C444   C     0.45690   0.82873   0.40783   0.00000  Uiso   1.00
C445   C     0.53716   0.97840   0.26270   0.00000  Uiso   1.00
C446   C     0.47357   0.83133   0.35015   0.00000  Uiso   1.00
C447   C     0.53725   0.68768   0.26278   0.00000  Uiso   1.00
C448   C     0.49995   0.70942   0.25044   0.00000  Uiso   1.00
C449   C     0.46209   0.68824   0.23883   0.00000  Uiso   1.00
C450   C     0.46182   0.97894   0.23908   0.00000  Uiso   1.00
C451   C     0.49951   0.95722   0.25072   0.00000  Uiso   1.00
C452   C     0.63304   0.86154   0.27927   0.00000  Uiso   1.00
C453   C     0.34919   0.86138   0.27949   0.00000  Uiso   1.00
C454   C     0.36757   0.80552   0.22053   0.00000  Uiso   1.00
C455   C     0.65165   0.80478   0.22087   0.00000  Uiso   1.00
C456   C     0.50010   0.75405   0.25004   0.00000  Uiso   1.00
C457   C     0.52639   0.83367   0.14972   0.00000  Uiso   1.00
C458   C     0.59051   0.78901   0.01680   0.00000  Uiso   1.00
C459   C     0.54166   0.82801   0.09249   0.00000  Uiso   1.00
C460   C     0.41057   0.84549   0.43513   0.00000  Uiso   1.00
C461   C     0.39640   0.85041   0.48922   0.00000  Uiso   1.00
C462   C     0.42977   0.84231   0.01614   0.00000  Uiso   1.00
Cu463  Cu    0.45311   0.83333   0.25000   0.00000  Uiso   1.00
Cu464  Cu    0.54689   0.83334   0.25000   0.00000  Uiso   1.00
H465   H     0.60734   0.79299   0.08871   0.00000  Uiso   1.00
H466   H     0.56613   0.70347   0.27307   0.00000  Uiso   1.00
H467   H     0.43292   0.70453   0.22918   0.00000  Uiso   1.00
H468   H     0.43250   0.96305   0.22962   0.00000  Uiso   1.00
H469   H     0.60737   0.88410   0.30286   0.00000  Uiso   1.00
H470   H     0.36065   0.88380   0.30326   0.00000  Uiso   1.00
H471   H     0.39364   0.78301   0.19735   0.00000  Uiso   1.00
H472   H     0.59227   0.75791   0.42526   0.00000  Uiso   1.00
H473   H     0.62231   0.76953   0.49865   0.00000  Uiso   1.00
H474   H     0.38540   0.85542   0.41454   0.00000  Uiso   1.00
H475   H     0.41643   0.84581   0.05823   0.00000  Uiso   1.00
H476   H     0.35994   0.86196   0.01021   0.00000  Uiso   1.00
H477   H     0.56629   0.96209   0.27243   0.00000  Uiso   1.00
N478   N     0.38265   0.83332   0.24998   0.00000  Uiso   1.00
N479   N     0.61735   0.83335   0.24999   0.00000  Uiso   1.00
O480   O     0.46042   0.89345   0.25000   0.00000  Uiso   1.00
O481   O     0.53961   0.89346   0.25000   0.00000  Uiso   1.00
O482   O     0.44108   0.83332   0.32549   0.00000  Uiso   1.00
O483   O     0.52027   0.83333   0.32549   0.00000  Uiso   1.00
O484   O     0.46039   0.77321   0.24999   0.00000  Uiso   1.00
O485   O     0.53958   0.77322   0.24999   0.00000  Uiso   1.00
O486   O     0.47973   0.83334   0.17451   0.00000  Uiso   1.00
O487   O     0.55892   0.83335   0.17451   0.00000  Uiso   1.00
N488   N     0.63912   0.77194   0.19183   0.00000  Uiso   1.00
H489   H     0.61712   0.78246   0.17027   0.00000  Uiso   1.00
H490   H     0.62177   0.74903   0.21777   0.00000  Uiso   1.00
N491   N     0.48178   0.87874   0.08008   0.00000  Uiso   1.00
H492   H     0.45372   0.87393   0.11510   0.00000  Uiso   1.00
H493   H     0.50440   0.90198   0.08642   0.00000  Uiso   1.00
N494   N     0.53151   0.75906   0.37167   0.00000  Uiso   1.00
H495   H     0.55951   0.76882   0.33881   0.00000  Uiso   1.00
H496   H     0.49818   0.75692   0.36370   0.00000  Uiso   1.00
C497   C     0.83312   0.91260   0.25027   0.00000  Uiso   1.00
C498   C     0.81110   0.82758   0.48946   0.00000  Uiso   1.00
C499   C     0.82154   0.81438   0.43635   0.00000  Uiso   1.00
C500   C     0.84750   0.82255   0.01509   0.00000  Uiso   1.00
C501   C     0.88930   0.79742   0.49088   0.00000  Uiso   1.00
C502   C     0.89529   0.77926   0.44201   0.00000  Uiso   1.00
C503   C     0.86167   0.78642   0.41502   0.00000  Uiso   1.00
C504   C     0.84415   0.84177   0.06379   0.00000  Uiso   1.00
C505   C     0.91585   0.80303   0.06790   0.00000  Uiso   1.00
C506   C     0.79024   0.82873   0.40783   0.00000  Uiso   1.00
C507   C     0.87049   0.97840   0.26270   0.00000  Uiso   1.00
C508   C     0.80691   0.83133   0.35015   0.00000  Uiso   1.00
C509   C     0.87058   0.68768   0.26278   0.00000  Uiso   1.00
C510   C     0.83329   0.70942   0.25044   0.00000  Uiso   1.00
C511   C     0.79543   0.68824   0.23883   0.00000  Uiso   1.00
C512   C     0.79515   0.97894   0.23908   0.00000  Uiso   1.00
C513   C     0.83284   0.95722   0.25072   0.00000  Uiso   1.00
C514   C     0.96637   0.86154   0.27927   0.00000  Uiso   1.00
C515   C     0.68253   0.86138   0.27949   0.00000  Uiso   1.00
C516   C     0.70090   0.80552   0.22053   0.00000  Uiso   1.00
C517   C     0.98498   0.80478   0.22087   0.00000  Uiso   1.00
C518   C     0.83343   0.75405   0.25004   0.00000  Uiso   1.00
C519   C     0.85972   0.83367   0.14972   0.00000  Uiso   1.00
C520   C     0.92384   0.78901   0.01680   0.00000  Uiso   1.00
C521   C     0.87499   0.82801   0.09249   0.00000  Uiso   1.00
C522   C     0.74390   0.84549   0.43513   0.00000  Uiso   1.00
C523   C     0.72973   0.85041   0.48922   0.00000  Uiso   1.00
C524   C     0.76311   0.84231   0.01614   0.00000  Uiso   1.00
Cu525  Cu    0.78645   0.83333   0.25000   0.00000  Uiso   1.00
Cu526  Cu    0.88022   0.83334   0.25000   0.00000  Uiso   1.00
H527   H     0.94067   0.79299   0.08871   0.00000  Uiso   1.00
H528   H     0.89946   0.70347   0.27307   0.00000  Uiso   1.00
H529   H     0.76625   0.70453   0.22918   0.00000  Uiso   1.00
H530   H     0.76584   0.96305   0.22962   0.00000  Uiso   1.00
H531   H     0.94070   0.88410   0.30286   0.00000  Uiso   1.00
H532   H     0.69398   0.88380   0.30326   0.00000  Uiso   1.00
H533   H     0.72697   0.78301   0.19735   0.00000  Uiso   1.00
H534   H     0.92560   0.75791   0.42526   0.00000  Uiso   1.00
H535   H     0.95564   0.76953   0.49865   0.00000  Uiso   1.00
H536   H     0.71873   0.85542   0.41454   0.00000  Uiso   1.00
H537   H     0.74976   0.84581   0.05823   0.00000  Uiso   1.00
H538   H     0.69327   0.86196   0.01021   0.00000  Uiso   1.00
H539   H     0.89962   0.96209   0.27243   0.00000  Uiso   1.00
N540   N     0.71598   0.83332   0.24998   0.00000  Uiso   1.00
N541   N     0.95069   0.83335   0.24999   0.00000  Uiso   1.00
O542   O     0.79375   0.89345   0.25000   0.00000  Uiso   1.00
O543   O     0.87294   0.89346   0.25000   0.00000  Uiso   1.00
O544   O     0.77441   0.83332   0.32549   0.00000  Uiso   1.00
O545   O     0.85360   0.83333   0.32549   0.00000  Uiso   1.00
O546   O     0.79373   0.77321   0.24999   0.00000  Uiso   1.00
O547   O     0.87292   0.77322   0.24999   0.00000  Uiso   1.00
O548   O     0.81306   0.83334   0.17451   0.00000  Uiso   1.00
O549   O     0.89225   0.83335   0.17451   0.00000  Uiso   1.00
N550   N     0.97245   0.77194   0.19183   0.00000  Uiso   1.00
H551   H     0.95045   0.78246   0.17027   0.00000  Uiso   1.00
H552   H     0.95511   0.74903   0.21777   0.00000  Uiso   1.00
N553   N     0.81511   0.87874   0.08008   0.00000  Uiso   1.00
H554   H     0.78706   0.87393   0.11510   0.00000  Uiso   1.00
H555   H     0.83773   0.90198   0.08642   0.00000  Uiso   1.00
N556   N     0.86484   0.75906   0.37167   0.00000  Uiso   1.00
H557   H     0.89284   0.76882   0.33881   0.00000  Uiso   1.00
H558   H     0.83152   0.75692   0.36370   0.00000  Uiso   1.00
C559   C     0.16645   0.24594   0.75027   0.00000  Uiso   1.00
C560   C     0.14443   0.16091   0.98946   0.00000  Uiso   1.00
C561   C     0.15488   0.14772   0.93635   0.00000  Uiso   1.00
C562   C     0.18083   0.15588   0.51509   0.00000  Uiso   1.00
C563   C     0.22263   0.13075   0.99088   0.00000  Uiso   1.00
C564   C     0.22862   0.11259   0.94201   0.00000  Uiso   1.00
C565   C     0.19501   0.11976   0.91502   0.00000  Uiso   1.00
C566   C     0.17748   0.17510   0.56379   0.00000  Uiso   1.00
C567   C     0.24918   0.13636   0.56790   0.00000  Uiso   1.00
C568   C     0.12357   0.16206   0.90783   0.00000  Uiso   1.00
C569   C     0.20382   0.31173   0.76270   0.00000  Uiso   1.00
C570   C     0.14024   0.16466   0.85015   0.00000  Uiso   1.00
C571   C     0.20392   0.02101   0.76278   0.00000  Uiso   1.00
C572   C     0.16662   0.04275   0.75044   0.00000  Uiso   1.00
C573   C     0.12876   0.02157   0.73883   0.00000  Uiso   1.00
C574   C     0.12848   0.31227   0.73908   0.00000  Uiso   1.00
C575   C     0.16618   0.29056   0.75072   0.00000  Uiso   1.00
C576   C     0.29970   0.19488   0.77927   0.00000  Uiso   1.00
C577   C     0.01586   0.19471   0.77949   0.00000  Uiso   1.00
C578   C     0.03424   0.13885   0.72053   0.00000  Uiso   1.00
C579   C     0.31832   0.13811   0.72087   0.00000  Uiso   1.00
C580   C     0.16676   0.08739   0.75004   0.00000  Uiso   1.00
C581   C     0.19306   0.16700   0.64972   0.00000  Uiso   1.00
C582   C     0.25718   0.12235   0.51680   0.00000  Uiso   1.00
C583   C     0.20832   0.16134   0.59249   0.00000  Uiso   1.00
C584   C     0.07723   0.17882   0.93513   0.00000  Uiso   1.00
C585   C     0.06307   0.18374   0.98922   0.00000  Uiso   1.00
C586   C     0.09644   0.17564   0.51614   0.00000  Uiso   1.00
Cu587  Cu    0.11978   0.16666   0.75000   0.00000  Uiso   1.00
Cu588  Cu    0.21355   0.16667   0.75000   0.00000  Uiso   1.00
H589   H     0.27400   0.12632   0.58871   0.00000  Uiso   1.00
H590   H     0.23279   0.03681   0.77307   0.00000  Uiso   1.00
H591   H     0.09958   0.03787   0.72918   0.00000  Uiso   1.00
H592   H     0.09917   0.29639   0.72962   0.00000  Uiso   1.00
H593   H     0.27404   0.21743   0.80286   0.00000  Uiso   1.00
H594   H     0.02732   0.21713   0.80326   0.00000  Uiso   1.00
H595   H     0.06031   0.11634   0.69735   0.00000  Uiso   1.00
H596   H     0.25893   0.09125   0.92526   0.00000  Uiso   1.00
H597   H     0.28897   0.10287   0.99865   0.00000  Uiso   1.00
H598   H     0.05207   0.18875   0.91454   0.00000  Uiso   1.00
H599   H     0.08309   0.17914   0.55823   0.00000  Uiso   1.00
H600   H     0.02660   0.19529   0.51021   0.00000  Uiso   1.00
H601   H     0.23295   0.29543   0.77243   0.00000  Uiso   1.00
N602   N     0.04931   0.16666   0.74998   0.00000  Uiso   1.00
N603   N     0.28402   0.16669   0.74999   0.00000  Uiso   1.00
O604   O     0.12708   0.22678   0.75000   0.00000  Uiso   1.00
O605   O     0.20627   0.22679   0.75000   0.00000  Uiso   1.00
O606   O     0.10775   0.16665   0.82549   0.00000  Uiso   1.00
O607   O     0.18694   0.16666   0.82549   0.00000  Uiso   1.00
O608   O     0.12706   0.10654   0.74999   0.00000  Uiso   1.00
O609   O     0.20625   0.10655   0.74999   0.00000  Uiso   1.00
O610   O     0.14640   0.16667   0.67451   0.00000  Uiso   1.00
O611   O     0.22559   0.16668   0.67451   0.00000  Uiso   1.00
N612   N     0.30579   0.10528   0.69183   0.00000  Uiso   1.00
H613   H     0.28379   0.11580   0.67027   0.00000  Uiso   1.00
H614   H     0.28844   0.08236   0.71777   0.00000  Uiso   1.00
N615   N     0.14845   0.21207   0.58008   0.00000  Uiso   1.00
H616   H     0.12039   0.20726   0.61510   0.00000  Uiso   1.00
H617   H     0.17107   0.23531   0.58642   0.00000  Uiso   1.00
N618   N     0.19817   0.09239   0.87167   0.00000  Uiso   1.00
H619   H     0.22618   0.10215   0.83881   0.00000  Uiso   1.00
H620   H     0.16485   0.09025   0.86370   0.00000  Uiso   1.00
C621   C     0.49978   0.24594   0.75027   0.00000  Uiso   1.00
C622   C     0.47776   0.16091   0.98946   0.00000  Uiso   1.00
C623   C     0.48821   0.14772   0.93635   0.00000  Uiso   1.00
C624   C     0.51417   0.15588   0.51509   0.00000  Uiso   1.00
C625   C     0.55596   0.13075   0.99088   0.00000  Uiso   1.00
C626   C     0.56195   0.11259   0.94201   0.00000  Uiso   1.00
C627   C     0.52834   0.11976   0.91502   0.00000  Uiso   1.00
C628   C     0.51081   0.17510   0.56379   0.00000  Uiso   1.00
C629   C     0.58251   0.13636   0.56790   0.00000  Uiso   1.00
C630   C     0.45690   0.16206   0.90783   0.00000  Uiso   1.00
C631   C     0.53716   0.31173   0.76270   0.00000  Uiso   1.00
C632   C     0.47357   0.16466   0.85015   0.00000  Uiso   1.00
C633   C     0.53725   0.02101   0.76278   0.00000  Uiso   1.00
C634   C     0.49995   0.04275   0.75044   0.00000  Uiso   1.00
C635   C     0.46209   0.02157   0.73883   0.00000  Uiso   1.00
C636   C     0.46182   0.31227   0.73908   0.00000  Uiso   1.00
C637   C     0.49951   0.29056   0.75072   0.00000  Uiso   1.00
C638   C     0.63304   0.19488   0.77927   0.00000  Uiso   1.00
C639   C     0.34919   0.19471   0.77949   0.00000  Uiso   1.00
C640   C     0.36757   0.13885   0.72053   0.00000  Uiso   1.00
C641   C     0.65165   0.13811   0.72087   0.00000  Uiso   1.00
C642   C     0.50010   0.08739   0.75004   0.00000  Uiso   1.00
C643   C     0.52639   0.16700   0.64972   0.00000  Uiso   1.00
C644   C     0.59051   0.12235   0.51680   0.00000  Uiso   1.00
C645   C     0.54166   0.16134   0.59249   0.00000  Uiso   1.00
C646   C     0.41057   0.17882   0.93513   0.00000  Uiso   1.00
C647   C     0.39640   0.18374   0.98922   0.00000  Uiso   1.00
C648   C     0.42977   0.17564   0.51614   0.00000  Uiso   1.00
Cu649  Cu    0.45311   0.16666   0.75000   0.00000  Uiso   1.00
Cu650  Cu    0.54689   0.16667   0.75000   0.00000  Uiso   1.00
H651   H     0.60734   0.12632   0.58871   0.00000  Uiso   1.00
H652   H     0.56613   0.03681   0.77307   0.00000  Uiso   1.00
H653   H     0.43292   0.03787   0.72918   0.00000  Uiso   1.00
H654   H     0.43250   0.29639   0.72962   0.00000  Uiso   1.00
H655   H     0.60737   0.21743   0.80286   0.00000  Uiso   1.00
H656   H     0.36065   0.21713   0.80326   0.00000  Uiso   1.00
H657   H     0.39364   0.11634   0.69735   0.00000  Uiso   1.00
H658   H     0.59227   0.09125   0.92526   0.00000  Uiso   1.00
H659   H     0.62231   0.10287   0.99865   0.00000  Uiso   1.00
H660   H     0.38540   0.18875   0.91454   0.00000  Uiso   1.00
H661   H     0.41643   0.17914   0.55823   0.00000  Uiso   1.00
H662   H     0.35994   0.19529   0.51021   0.00000  Uiso   1.00
H663   H     0.56629   0.29543   0.77243   0.00000  Uiso   1.00
N664   N     0.38265   0.16666   0.74998   0.00000  Uiso   1.00
N665   N     0.61735   0.16669   0.74999   0.00000  Uiso   1.00
O666   O     0.46042   0.22678   0.75000   0.00000  Uiso   1.00
O667   O     0.53961   0.22679   0.75000   0.00000  Uiso   1.00
O668   O     0.44108   0.16665   0.82549   0.00000  Uiso   1.00
O669   O     0.52027   0.16666   0.82549   0.00000  Uiso   1.00
O670   O     0.46039   0.10654   0.74999   0.00000  Uiso   1.00
O671   O     0.53958   0.10655   0.74999   0.00000  Uiso   1.00
O672   O     0.47973   0.16667   0.67451   0.00000  Uiso   1.00
O673   O     0.55892   0.16668   0.67451   0.00000  Uiso   1.00
N674   N     0.63912   0.10528   0.69183   0.00000  Uiso   1.00
H675   H     0.61712   0.11580   0.67027   0.00000  Uiso   1.00
H676   H     0.62177   0.08236   0.71777   0.00000  Uiso   1.00
N677   N     0.48178   0.21207   0.58008   0.00000  Uiso   1.00
H678   H     0.45372   0.20726   0.61510   0.00000  Uiso   1.00
H679   H     0.50440   0.23531   0.58642   0.00000  Uiso   1.00
N680   N     0.53151   0.09239   0.87167   0.00000  Uiso   1.00
H681   H     0.55951   0.10215   0.83881   0.00000  Uiso   1.00
H682   H     0.49818   0.09025   0.86370   0.00000  Uiso   1.00
C683   C     0.83312   0.24594   0.75027   0.00000  Uiso   1.00
C684   C     0.81110   0.16091   0.98946   0.00000  Uiso   1.00
C685   C     0.82154   0.14772   0.93635   0.00000  Uiso   1.00
C686   C     0.84750   0.15588   0.51509   0.00000  Uiso   1.00
C687   C     0.88930   0.13075   0.99088   0.00000  Uiso   1.00
C688   C     0.89529   0.11259   0.94201   0.00000  Uiso   1.00
C689   C     0.86167   0.11976   0.91502   0.00000  Uiso   1.00
C690   C     0.84415   0.17510   0.56379   0.00000  Uiso   1.00
C691   C     0.91585   0.13636   0.56790   0.00000  Uiso   1.00
C692   C     0.79024   0.16206   0.90783   0.00000  Uiso   1.00
C693   C     0.87049   0.31173   0.76270   0.00000  Uiso   1.00
C694   C     0.80691   0.16466   0.85015   0.00000  Uiso   1.00
C695   C     0.87058   0.02101   0.76278   0.00000  Uiso   1.00
C696   C     0.83329   0.04275   0.75044   0.00000  Uiso   1.00
C697   C     0.79543   0.02157   0.73883   0.00000  Uiso   1.00
C698   C     0.79515   0.31227   0.73908   0.00000  Uiso   1.00
C699   C     0.83284   0.29056   0.75072   0.00000  Uiso   1.00
C700   C     0.96637   0.19488   0.77927   0.00000  Uiso   1.00
C701   C     0.68253   0.19471   0.77949   0.00000  Uiso   1.00
C702   C     0.70090   0.13885   0.72053   0.00000  Uiso   1.00
C703   C     0.98498   0.13811   0.72087   0.00000  Uiso   1.00
C704   C     0.83343   0.08739   0.75004   0.00000  Uiso   1.00
C705   C     0.85972   0.16700   0.64972   0.00000  Uiso   1.00
C706   C     0.92384   0.12235   0.51680   0.00000  Uiso   1.00
C707   C     0.87499   0.16134   0.59249   0.00000  Uiso   1.00
C708   C     0.74390   0.17882   0.93513   0.00000  Uiso   1.00
C709   C     0.72973   0.18374   0.98922   0.00000  Uiso   1.00
C710   C     0.76311   0.17564   0.51614   0.00000  Uiso   1.00
Cu711  Cu    0.78645   0.16666   0.75000   0.00000  Uiso   1.00
Cu712  Cu    0.88022   0.16667   0.75000   0.00000  Uiso   1.00
H713   H     0.94067   0.12632   0.58871   0.00000  Uiso   1.00
H714   H     0.89946   0.03681   0.77307   0.00000  Uiso   1.00
H715   H     0.76625   0.03787   0.72918   0.00000  Uiso   1.00
H716   H     0.76584   0.29639   0.72962   0.00000  Uiso   1.00
H717   H     0.94070   0.21743   0.80286   0.00000  Uiso   1.00
H718   H     0.69398   0.21713   0.80326   0.00000  Uiso   1.00
H719   H     0.72697   0.11634   0.69735   0.00000  Uiso   1.00
H720   H     0.92560   0.09125   0.92526   0.00000  Uiso   1.00
H721   H     0.95564   0.10287   0.99865   0.00000  Uiso   1.00
H722   H     0.71873   0.18875   0.91454   0.00000  Uiso   1.00
H723   H     0.74976   0.17914   0.55823   0.00000  Uiso   1.00
H724   H     0.69327   0.19529   0.51021   0.00000  Uiso   1.00
H725   H     0.89962   0.29543   0.77243   0.00000  Uiso   1.00
N726   N     0.71598   0.16666   0.74998   0.00000  Uiso   1.00
N727   N     0.95069   0.16669   0.74999   0.00000  Uiso   1.00
O728   O     0.79375   0.22678   0.75000   0.00000  Uiso   1.00
O729   O     0.87294   0.22679   0.75000   0.00000  Uiso   1.00
O730   O     0.77441   0.16665   0.82549   0.00000  Uiso   1.00
O731   O     0.85360   0.16666   0.82549   0.00000  Uiso   1.00
O732   O     0.79373   0.10654   0.74999   0.00000  Uiso   1.00
O733   O     0.87292   0.10655   0.74999   0.00000  Uiso   1.00
O734   O     0.81306   0.16667   0.67451   0.00000  Uiso   1.00
O735   O     0.89225   0.16668   0.67451   0.00000  Uiso   1.00
N736   N     0.97245   0.10528   0.69183   0.00000  Uiso   1.00
H737   H     0.95045   0.11580   0.67027   0.00000  Uiso   1.00
H738   H     0.95511   0.08236   0.71777   0.00000  Uiso   1.00
N739   N     0.81511   0.21207   0.58008   0.00000  Uiso   1.00
H740   H     0.78706   0.20726   0.61510   0.00000  Uiso   1.00
H741   H     0.83773   0.23531   0.58642   0.00000  Uiso   1.00
N742   N     0.86484   0.09239   0.87167   0.00000  Uiso   1.00
H743   H     0.89284   0.10215   0.83881   0.00000  Uiso   1.00
H744   H     0.83152   0.09025   0.86370   0.00000  Uiso   1.00
C745   C     0.16645   0.57927   0.75027   0.00000  Uiso   1.00
C746   C     0.14443   0.49424   0.98946   0.00000  Uiso   1.00
C747   C     0.15488   0.48105   0.93635   0.00000  Uiso   1.00
C748   C     0.18083   0.48921   0.51509   0.00000  Uiso   1.00
C749   C     0.22263   0.46409   0.99088   0.00000  Uiso   1.00
C750   C     0.22862   0.44592   0.94201   0.00000  Uiso   1.00
C751   C     0.19501   0.45309   0.91502   0.00000  Uiso   1.00
C752   C     0.17748   0.50843   0.56379   0.00000  Uiso   1.00
C753   C     0.24918   0.46970   0.56790   0.00000  Uiso   1.00
C754   C     0.12357   0.49540   0.90783   0.00000  Uiso   1.00
C755   C     0.20382   0.64506   0.76270   0.00000  Uiso   1.00
C756   C     0.14024   0.49800   0.85015   0.00000  Uiso   1.00
C757   C     0.20392   0.35435   0.76278   0.00000  Uiso   1.00
C758   C     0.16662   0.37609   0.75044   0.00000  Uiso   1.00
C759   C     0.12876   0.35490   0.73883   0.00000  Uiso   1.00
C760   C     0.12848   0.64561   0.73908   0.00000  Uiso   1.00
C761   C     0.16618   0.62389   0.75072   0.00000  Uiso   1.00
C762   C     0.29970   0.52821   0.77927   0.00000  Uiso   1.00
C763   C     0.01586   0.52804   0.77949   0.00000  Uiso   1.00
C764   C     0.03424   0.47218   0.72053   0.00000  Uiso   1.00
C765   C     0.31832   0.47144   0.72087   0.00000  Uiso   1.00
C766   C     0.16676   0.42072   0.75004   0.00000  Uiso   1.00
C767   C     0.19306   0.50034   0.64972   0.00000  Uiso   1.00
C768   C     0.25718   0.45568   0.51680   0.00000  Uiso   1.00
C769   C     0.20832   0.49468   0.59249   0.00000  Uiso   1.00
C770   C     0.07723   0.51215   0.93513   0.00000  Uiso   1.00
C771   C     0.06307   0.51708   0.98922   0.00000  Uiso   1.00
C772   C     0.09644   0.50897   0.51614   0.00000  Uiso   1.00
Cu773  Cu    0.11978   0.49999   0.75000   0.00000  Uiso   1.00
Cu774  Cu    0.21355   0.50001   0.75000   0.00000  Uiso   1.00
H775   H     0.27400   0.45966   0.58871   0.00000  Uiso   1.00
H776   H     0.23279   0.37014   0.77307   0.00000  Uiso   1.00
H777   H     0.09958   0.37120   0.72918   0.00000  Uiso   1.00
H778   H     0.09917   0.62972   0.72962   0.00000  Uiso   1.00
H779   H     0.27404   0.55076   0.80286   0.00000  Uiso   1.00
H780   H     0.02732   0.55047   0.80326   0.00000  Uiso   1.00
H781   H     0.06031   0.44967   0.69735   0.00000  Uiso   1.00
H782   H     0.25893   0.42458   0.92526   0.00000  Uiso   1.00
H783   H     0.28897   0.43620   0.99865   0.00000  Uiso   1.00
H784   H     0.05207   0.52208   0.91454   0.00000  Uiso   1.00
H785   H     0.08309   0.51247   0.55823   0.00000  Uiso   1.00
H786   H     0.02660   0.52863   0.51021   0.00000  Uiso   1.00
H787   H     0.23295   0.62876   0.77243   0.00000  Uiso   1.00
N788   N     0.04931   0.49999   0.74998   0.00000  Uiso   1.00
N789   N     0.28402   0.50002   0.74999   0.00000  Uiso   1.00
O790   O     0.12708   0.56011   0.75000   0.00000  Uiso   1.00
O791   O     0.20627   0.56012   0.75000   0.00000  Uiso   1.00
O792   O     0.10775   0.49998   0.82549   0.00000  Uiso   1.00
O793   O     0.18694   0.49999   0.82549   0.00000  Uiso   1.00
O794   O     0.12706   0.43988   0.74999   0.00000  Uiso   1.00
O795   O     0.20625   0.43989   0.74999   0.00000  Uiso   1.00
O796   O     0.14640   0.50001   0.67451   0.00000  Uiso   1.00
O797   O     0.22559   0.50002   0.67451   0.00000  Uiso   1.00
N798   N     0.30579   0.43861   0.69183   0.00000  Uiso   1.00
H799   H     0.28379   0.44913   0.67027   0.00000  Uiso   1.00
H800   H     0.28844   0.41570   0.71777   0.00000  Uiso   1.00
N801   N     0.14845   0.54540   0.58008   0.00000  Uiso   1.00
H802   H     0.12039   0.54060   0.61510   0.00000  Uiso   1.00
H803   H     0.17107   0.56865   0.58642   0.00000  Uiso   1.00
N804   N     0.19817   0.42573   0.87167   0.00000  Uiso   1.00
H805   H     0.22618   0.43548   0.83881   0.00000  Uiso   1.00
H806   H     0.16485   0.42358   0.86370   0.00000  Uiso   1.00
C807   C     0.49978   0.57927   0.75027   0.00000  Uiso   1.00
C808   C     0.47776   0.49424   0.98946   0.00000  Uiso   1.00
C809   C     0.48821   0.48105   0.93635   0.00000  Uiso   1.00
C810   C     0.51417   0.48921   0.51509   0.00000  Uiso   1.00
C811   C     0.55596   0.46409   0.99088   0.00000  Uiso   1.00
C812   C     0.56195   0.44592   0.94201   0.00000  Uiso   1.00
C813   C     0.52834   0.45309   0.91502   0.00000  Uiso   1.00
C814   C     0.51081   0.50843   0.56379   0.00000  Uiso   1.00
C815   C     0.58251   0.46970   0.56790   0.00000  Uiso   1.00
C816   C     0.45690   0.49540   0.90783   0.00000  Uiso   1.00
C817   C     0.53716   0.64506   0.76270   0.00000  Uiso   1.00
C818   C     0.47357   0.49800   0.85015   0.00000  Uiso   1.00
C819   C     0.53725   0.35435   0.76278   0.00000  Uiso   1.00
C820   C     0.49995   0.37609   0.75044   0.00000  Uiso   1.00
C821   C     0.46209   0.35490   0.73883   0.00000  Uiso   1.00
C822   C     0.46182   0.64561   0.73908   0.00000  Uiso   1.00
C823   C     0.49951   0.62389   0.75072   0.00000  Uiso   1.00
C824   C     0.63304   0.52821   0.77927   0.00000  Uiso   1.00
C825   C     0.34919   0.52804   0.77949   0.00000  Uiso   1.00
C826   C     0.36757   0.47218   0.72053   0.00000  Uiso   1.00
C827   C     0.65165   0.47144   0.72087   0.00000  Uiso   1.00
C828   C     0.50010   0.42072   0.75004   0.00000  Uiso   1.00
C829   C     0.52639   0.50034   0.64972   0.00000  Uiso   1.00
C830   C     0.59051   0.45568   0.51680   0.00000  Uiso   1.00
C831   C     0.54166   0.49468   0.59249   0.00000  Uiso   1.00
C832   C     0.41057   0.51215   0.93513   0.00000  Uiso   1.00
C833   C     0.39640   0.51708   0.98922   0.00000  Uiso   1.00
C834   C     0.42977   0.50897   0.51614   0.00000  Uiso   1.00
Cu835  Cu    0.45311   0.49999   0.75000   0.00000  Uiso   1.00
Cu836  Cu    0.54689   0.50001   0.75000   0.00000  Uiso   1.00
H837   H     0.60734   0.45966   0.58871   0.00000  Uiso   1.00
H838   H     0.56613   0.37014   0.77307   0.00000  Uiso   1.00
H839   H     0.43292   0.37120   0.72918   0.00000  Uiso   1.00
H840   H     0.43250   0.62972   0.72962   0.00000  Uiso   1.00
H841   H     0.60737   0.55076   0.80286   0.00000  Uiso   1.00
H842   H     0.36065   0.55047   0.80326   0.00000  Uiso   1.00
H843   H     0.39364   0.44967   0.69735   0.00000  Uiso   1.00
H844   H     0.59227   0.42458   0.92526   0.00000  Uiso   1.00
H845   H     0.62231   0.43620   0.99865   0.00000  Uiso   1.00
H846   H     0.38540   0.52208   0.91454   0.00000  Uiso   1.00
H847   H     0.41643   0.51247   0.55823   0.00000  Uiso   1.00
H848   H     0.35994   0.52863   0.51021   0.00000  Uiso   1.00
H849   H     0.56629   0.62876   0.77243   0.00000  Uiso   1.00
N850   N     0.38265   0.49999   0.74998   0.00000  Uiso   1.00
N851   N     0.61735   0.50002   0.74999   0.00000  Uiso   1.00
O852   O     0.46042   0.56011   0.75000   0.00000  Uiso   1.00
O853   O     0.53961   0.56012   0.75000   0.00000  Uiso   1.00
O854   O     0.44108   0.49998   0.82549   0.00000  Uiso   1.00
O855   O     0.52027   0.49999   0.82549   0.00000  Uiso   1.00
O856   O     0.46039   0.43988   0.74999   0.00000  Uiso   1.00
O857   O     0.53958   0.43989   0.74999   0.00000  Uiso   1.00
O858   O     0.47973   0.50001   0.67451   0.00000  Uiso   1.00
O859   O     0.55892   0.50002   0.67451   0.00000  Uiso   1.00
N860   N     0.63912   0.43861   0.69183   0.00000  Uiso   1.00
H861   H     0.61712   0.44913   0.67027   0.00000  Uiso   1.00
H862   H     0.62177   0.41570   0.71777   0.00000  Uiso   1.00
N863   N     0.48178   0.54540   0.58008   0.00000  Uiso   1.00
H864   H     0.45372   0.54060   0.61510   0.00000  Uiso   1.00
H865   H     0.50440   0.56865   0.58642   0.00000  Uiso   1.00
N866   N     0.53151   0.42573   0.87167   0.00000  Uiso   1.00
H867   H     0.55951   0.43548   0.83881   0.00000  Uiso   1.00
H868   H     0.49818   0.42358   0.86370   0.00000  Uiso   1.00
C869   C     0.83312   0.57927   0.75027   0.00000  Uiso   1.00
C870   C     0.81110   0.49424   0.98946   0.00000  Uiso   1.00
C871   C     0.82154   0.48105   0.93635   0.00000  Uiso   1.00
C872   C     0.84750   0.48921   0.51509   0.00000  Uiso   1.00
C873   C     0.88930   0.46409   0.99088   0.00000  Uiso   1.00
C874   C     0.89529   0.44592   0.94201   0.00000  Uiso   1.00
C875   C     0.86167   0.45309   0.91502   0.00000  Uiso   1.00
C876   C     0.84415   0.50843   0.56379   0.00000  Uiso   1.00
C877   C     0.91585   0.46970   0.56790   0.00000  Uiso   1.00
C878   C     0.79024   0.49540   0.90783   0.00000  Uiso   1.00
C879   C     0.87049   0.64506   0.76270   0.00000  Uiso   1.00
C880   C     0.80691   0.49800   0.85015   0.00000  Uiso   1.00
C881   C     0.87058   0.35435   0.76278   0.00000  Uiso   1.00
C882   C     0.83329   0.37609   0.75044   0.00000  Uiso   1.00
C883   C     0.79543   0.35490   0.73883   0.00000  Uiso   1.00
C884   C     0.79515   0.64561   0.73908   0.00000  Uiso   1.00
C885   C     0.83284   0.62389   0.75072   0.00000  Uiso   1.00
C886   C     0.96637   0.52821   0.77927   0.00000  Uiso   1.00
C887   C     0.68253   0.52804   0.77949   0.00000  Uiso   1.00
C888   C     0.70090   0.47218   0.72053   0.00000  Uiso   1.00
C889   C     0.98498   0.47144   0.72087   0.00000  Uiso   1.00
C890   C     0.83343   0.42072   0.75004   0.00000  Uiso   1.00
C891   C     0.85972   0.50034   0.64972   0.00000  Uiso   1.00
C892   C     0.92384   0.45568   0.51680   0.00000  Uiso   1.00
C893   C     0.87499   0.49468   0.59249   0.00000  Uiso   1.00
C894   C     0.74390   0.51215   0.93513   0.00000  Uiso   1.00
C895   C     0.72973   0.51708   0.98922   0.00000  Uiso   1.00
C896   C     0.76311   0.50897   0.51614   0.00000  Uiso   1.00
Cu897  Cu    0.78645   0.49999   0.75000   0.00000  Uiso   1.00
Cu898  Cu    0.88022   0.50001   0.75000   0.00000  Uiso   1.00
H899   H     0.94067   0.45966   0.58871   0.00000  Uiso   1.00
H900   H     0.89946   0.37014   0.77307   0.00000  Uiso   1.00
H901   H     0.76625   0.37120   0.72918   0.00000  Uiso   1.00
H902   H     0.76584   0.62972   0.72962   0.00000  Uiso   1.00
H903   H     0.94070   0.55076   0.80286   0.00000  Uiso   1.00
H904   H     0.69398   0.55047   0.80326   0.00000  Uiso   1.00
H905   H     0.72697   0.44967   0.69735   0.00000  Uiso   1.00
H906   H     0.92560   0.42458   0.92526   0.00000  Uiso   1.00
H907   H     0.95564   0.43620   0.99865   0.00000  Uiso   1.00
H908   H     0.71873   0.52208   0.91454   0.00000  Uiso   1.00
H909   H     0.74976   0.51247   0.55823   0.00000  Uiso   1.00
H910   H     0.69327   0.52863   0.51021   0.00000  Uiso   1.00
H911   H     0.89962   0.62876   0.77243   0.00000  Uiso   1.00
N912   N     0.71598   0.49999   0.74998   0.00000  Uiso   1.00
N913   N     0.95069   0.50002   0.74999   0.00000  Uiso   1.00
O914   O     0.79375   0.56011   0.75000   0.00000  Uiso   1.00
O915   O     0.87294   0.56012   0.75000   0.00000  Uiso   1.00
O916   O     0.77441   0.49998   0.82549   0.00000  Uiso   1.00
O917   O     0.85360   0.49999   0.82549   0.00000  Uiso   1.00
O918   O     0.79373   0.43988   0.74999   0.00000  Uiso   1.00
O919   O     0.87292   0.43989   0.74999   0.00000  Uiso   1.00
O920   O     0.81306   0.50001   0.67451   0.00000  Uiso   1.00
O921   O     0.89225   0.50002   0.67451   0.00000  Uiso   1.00
N922   N     0.97245   0.43861   0.69183   0.00000  Uiso   1.00
H923   H     0.95045   0.44913   0.67027   0.00000  Uiso   1.00
H924   H     0.95511   0.41570   0.71777   0.00000  Uiso   1.00
N925   N     0.81511   0.54540   0.58008   0.00000  Uiso   1.00
H926   H     0.78706   0.54060   0.61510   0.00000  Uiso   1.00
H927   H     0.83773   0.56865   0.58642   0.00000  Uiso   1.00
N928   N     0.86484   0.42573   0.87167   0.00000  Uiso   1.00
H929   H     0.89284   0.43548   0.83881   0.00000  Uiso   1.00
H930   H     0.83152   0.42358   0.86370   0.00000  Uiso   1.00
C931   C     0.16645   0.91260   0.75027   0.00000  Uiso   1.00
C932   C     0.14443   0.82758   0.98946   0.00000  Uiso   1.00
C933   C     0.15488   0.81438   0.93635   0.00000  Uiso   1.00
C934   C     0.18083   0.82255   0.51509   0.00000  Uiso   1.00
C935   C     0.22263   0.79742   0.99088   0.00000  Uiso   1.00
C936   C     0.22862   0.77926   0.94201   0.00000  Uiso   1.00
C937   C     0.19501   0.78642   0.91502   0.00000  Uiso   1.00
C938   C     0.17748   0.84177   0.56379   0.00000  Uiso   1.00
C939   C     0.24918   0.80303   0.56790   0.00000  Uiso   1.00
C940   C     0.12357   0.82873   0.90783   0.00000  Uiso   1.00
C941   C     0.20382   0.97840   0.76270   0.00000  Uiso   1.00
C942   C     0.14024   0.83133   0.85015   0.00000  Uiso   1.00
C943   C     0.20392   0.68768   0.76278   0.00000  Uiso   1.00
C944   C     0.16662   0.70942   0.75044   0.00000  Uiso   1.00
C945   C     0.12876   0.68824   0.73883   0.00000  Uiso   1.00
C946   C     0.12848   0.97894   0.73908   0.00000  Uiso   1.00
C947   C     0.16618   0.95722   0.75072   0.00000  Uiso   1.00
C948   C     0.29970   0.86154   0.77927   0.00000  Uiso   1.00
C949   C     0.01586   0.86138   0.77949   0.00000  Uiso   1.00
C950   C     0.03424   0.80552   0.72053   0.00000  Uiso   1.00
C951   C     0.31832   0.80478   0.72087   0.00000  Uiso   1.00
C952   C     0.16676   0.75405   0.75004   0.00000  Uiso   1.00
C953   C     0.19306   0.83367   0.64972   0.00000  Uiso   1.00
C954   C     0.25718   0.78901   0.51680   0.00000  Uiso   1.00
C955   C     0.20832   0.82801   0.59249   0.00000  Uiso   1.00
C956   C     0.07723   0.84549   0.93513   0.00000  Uiso   1.00
C957   C     0.06307   0.85041   0.98922   0.00000  Uiso   1.00
C958   C     0.09644   0.84231   0.51614   0.00000  Uiso   1.00
Cu959  Cu    0.11978   0.83333   0.75000   0.00000  Uiso   1.00
Cu960  Cu    0.21355   0.83334   0.75000   0.00000  Uiso   1.00
H961   H     0.27400   0.79299   0.58871   0.00000  Uiso   1.00
H962   H     0.23279   0.70347   0.77307   0.00000  Uiso   1.00
H963   H     0.09958   0.70453   0.72918   0.00000  Uiso   1.00
H964   H     0.09917   0.96305   0.72962   0.00000  Uiso   1.00
H965   H     0.27404   0.88410   0.80286   0.00000  Uiso   1.00
H966   H     0.02732   0.88380   0.80326   0.00000  Uiso   1.00
H967   H     0.06031   0.78301   0.69735   0.00000  Uiso   1.00
H968   H     0.25893   0.75791   0.92526   0.00000  Uiso   1.00
H969   H     0.28897   0.76953   0.99865   0.00000  Uiso   1.00
H970   H     0.05207   0.85542   0.91454   0.00000  Uiso   1.00
H971   H     0.08309   0.84581   0.55823   0.00000  Uiso   1.00
H972   H     0.02660   0.86196   0.51021   0.00000  Uiso   1.00
H973   H     0.23295   0.96209   0.77243   0.00000  Uiso   1.00
N974   N     0.04931   0.83332   0.74998   0.00000  Uiso   1.00
N975   N     0.28402   0.83335   0.74999   0.00000  Uiso   1.00
O976   O     0.12708   0.89345   0.75000   0.00000  Uiso   1.00
O977   O     0.20627   0.89346   0.75000   0.00000  Uiso   1.00
O978   O     0.10775   0.83332   0.82549   0.00000  Uiso   1.00
O979   O     0.18694   0.83333   0.82549   0.00000  Uiso   1.00
O980   O     0.12706   0.77321   0.74999   0.00000  Uiso   1.00
O981   O     0.20625   0.77322   0.74999   0.00000  Uiso   1.00
O982   O     0.14640   0.83334   0.67451   0.00000  Uiso   1.00
O983   O     0.22559   0.83335   0.67451   0.00000  Uiso   1.00
N984   N     0.30579   0.77194   0.69183   0.00000  Uiso   1.00
H985   H     0.28379   0.78246   0.67027   0.00000  Uiso   1.00
H986   H     0.28844   0.74903   0.71777   0.00000  Uiso   1.00
N987   N     0.14845   0.87874   0.58008   0.00000  Uiso   1.00
H988   H     0.12039   0.87393   0.61510   0.00000  Uiso   1.00
H989   H     0.17107   0.90198   0.58642   0.00000  Uiso   1.00
N990   N     0.19817   0.75906   0.87167   0.00000  Uiso   1.00
H991   H     0.22618   0.76882   0.83881   0.00000  Uiso   1.00
H992   H     0.16485   0.75692   0.86370   0.00000  Uiso   1.00
C993   C     0.49978   0.91260   0.75027   0.00000  Uiso   1.00
C994   C     0.47776   0.82758   0.98946   0.00000  Uiso   1.00
C995   C     0.48821   0.81438   0.93635   0.00000  Uiso   1.00
C996   C     0.51417   0.82255   0.51509   0.00000  Uiso   1.00
C997   C     0.55596   0.79742   0.99088   0.00000  Uiso   1.00
C998   C     0.56195   0.77926   0.94201   0.00000  Uiso   1.00
C999   C     0.52834   0.78642   0.91502   0.00000  Uiso   1.00
C1000  C     0.51081   0.84177   0.56379   0.00000  Uiso   1.00
C1001  C     0.58251   0.80303   0.56790   0.00000  Uiso   1.00
C1002  C     0.45690   0.82873   0.90783   0.00000  Uiso   1.00
C1003  C     0.53716   0.97840   0.76270   0.00000  Uiso   1.00
C1004  C     0.47357   0.83133   0.85015   0.00000  Uiso   1.00
C1005  C     0.53725   0.68768   0.76278   0.00000  Uiso   1.00
C1006  C     0.49995   0.70942   0.75044   0.00000  Uiso   1.00
C1007  C     0.46209   0.68824   0.73883   0.00000  Uiso   1.00
C1008  C     0.46182   0.97894   0.73908   0.00000  Uiso   1.00
C1009  C     0.49951   0.95722   0.75072   0.00000  Uiso   1.00
C1010  C     0.63304   0.86154   0.77927   0.00000  Uiso   1.00
C1011  C     0.34919   0.86138   0.77949   0.00000  Uiso   1.00
C1012  C     0.36757   0.80552   0.72053   0.00000  Uiso   1.00
C1013  C     0.65165   0.80478   0.72087   0.00000  Uiso   1.00
C1014  C     0.50010   0.75405   0.75004   0.00000  Uiso   1.00
C1015  C     0.52639   0.83367   0.64972   0.00000  Uiso   1.00
C1016  C     0.59051   0.78901   0.51680   0.00000  Uiso   1.00
C1017  C     0.54166   0.82801   0.59249   0.00000  Uiso   1.00
C1018  C     0.41057   0.84549   0.93513   0.00000  Uiso   1.00
C1019  C     0.39640   0.85041   0.98922   0.00000  Uiso   1.00
C1020  C     0.42977   0.84231   0.51614   0.00000  Uiso   1.00
Cu1021 Cu    0.45311   0.83333   0.75000   0.00000  Uiso   1.00
Cu1022 Cu    0.54689   0.83334   0.75000   0.00000  Uiso   1.00
H1023  H     0.60734   0.79299   0.58871   0.00000  Uiso   1.00
H1024  H     0.56613   0.70347   0.77307   0.00000  Uiso   1.00
H1025  H     0.43292   0.70453   0.72918   0.00000  Uiso   1.00
H1026  H     0.43250   0.96305   0.72962   0.00000  Uiso   1.00
H1027  H     0.60737   0.88410   0.80286   0.00000  Uiso   1.00
H1028  H     0.36065   0.88380   0.80326   0.00000  Uiso   1.00
H1029  H     0.39364   0.78301   0.69735   0.00000  Uiso   1.00
H1030  H     0.59227   0.75791   0.92526   0.00000  Uiso   1.00
H1031  H     0.62231   0.76953   0.99865   0.00000  Uiso   1.00
H1032  H     0.38540   0.85542   0.91454   0.00000  Uiso   1.00
H1033  H     0.41643   0.84581   0.55823   0.00000  Uiso   1.00
H1034  H     0.35994   0.86196   0.51021   0.00000  Uiso   1.00
H1035  H     0.56629   0.96209   0.77243   0.00000  Uiso   1.00
N1036  N     0.38265   0.83332   0.74998   0.00000  Uiso   1.00
N1037  N     0.61735   0.83335   0.74999   0.00000  Uiso   1.00
O1038  O     0.46042   0.89345   0.75000   0.00000  Uiso   1.00
O1039  O     0.53961   0.89346   0.75000   0.00000  Uiso   1.00
O1040  O     0.44108   0.83332   0.82549   0.00000  Uiso   1.00
O1041  O     0.52027   0.83333   0.82549   0.00000  Uiso   1.00
O1042  O     0.46039   0.77321   0.74999   0.00000  Uiso   1.00
O1043  O     0.53958   0.77322   0.74999   0.00000  Uiso   1.00
O1044  O     0.47973   0.83334   0.67451   0.00000  Uiso   1.00
O1045  O     0.55892   0.83335   0.67451   0.00000  Uiso   1.00
N1046  N     0.63912   0.77194   0.69183   0.00000  Uiso   1.00
H1047  H     0.61712   0.78246   0.67027   0.00000  Uiso   1.00
H1048  H     0.62177   0.74903   0.71777   0.00000  Uiso   1.00
N1049  N     0.48178   0.87874   0.58008   0.00000  Uiso   1.00
H1050  H     0.45372   0.87393   0.61510   0.00000  Uiso   1.00
H1051  H     0.50440   0.90198   0.58642   0.00000  Uiso   1.00
N1052  N     0.53151   0.75906   0.87167   0.00000  Uiso   1.00
H1053  H     0.55951   0.76882   0.83881   0.00000  Uiso   1.00
H1054  H     0.49818   0.75692   0.86370   0.00000  Uiso   1.00
C1055  C     0.83312   0.91260   0.75027   0.00000  Uiso   1.00
C1056  C     0.81110   0.82758   0.98946   0.00000  Uiso   1.00
C1057  C     0.82154   0.81438   0.93635   0.00000  Uiso   1.00
C1058  C     0.84750   0.82255   0.51509   0.00000  Uiso   1.00
C1059  C     0.88930   0.79742   0.99088   0.00000  Uiso   1.00
C1060  C     0.89529   0.77926   0.94201   0.00000  Uiso   1.00
C1061  C     0.86167   0.78642   0.91502   0.00000  Uiso   1.00
C1062  C     0.84415   0.84177   0.56379   0.00000  Uiso   1.00
C1063  C     0.91585   0.80303   0.56790   0.00000  Uiso   1.00
C1064  C     0.79024   0.82873   0.90783   0.00000  Uiso   1.00
C1065  C     0.87049   0.97840   0.76270   0.00000  Uiso   1.00
C1066  C     0.80691   0.83133   0.85015   0.00000  Uiso   1.00
C1067  C     0.87058   0.68768   0.76278   0.00000  Uiso   1.00
C1068  C     0.83329   0.70942   0.75044   0.00000  Uiso   1.00
C1069  C     0.79543   0.68824   0.73883   0.00000  Uiso   1.00
C1070  C     0.79515   0.97894   0.73908   0.00000  Uiso   1.00
C1071  C     0.83284   0.95722   0.75072   0.00000  Uiso   1.00
C1072  C     0.96637   0.86154   0.77927   0.00000  Uiso   1.00
C1073  C     0.68253   0.86138   0.77949   0.00000  Uiso   1.00
C1074  C     0.70090   0.80552   0.72053   0.00000  Uiso   1.00
C1075  C     0.98498   0.80478   0.72087   0.00000  Uiso   1.00
C1076  C     0.83343   0.75405   0.75004   0.00000  Uiso   1.00
C1077  C     0.85972   0.83367   0.64972   0.00000  Uiso   1.00
C1078  C     0.92384   0.78901   0.51680   0.00000  Uiso   1.00
C1079  C     0.87499   0.82801   0.59249   0.00000  Uiso   1.00
C1080  C     0.74390   0.84549   0.93513   0.00000  Uiso   1.00
C1081  C     0.72973   0.85041   0.98922   0.00000  Uiso   1.00
C1082  C     0.76311   0.84231   0.51614   0.00000  Uiso   1.00
Cu1083 Cu    0.78645   0.83333   0.75000   0.00000  Uiso   1.00
Cu1084 Cu    0.88022   0.83334   0.75000   0.00000  Uiso   1.00
H1085  H     0.94067   0.79299   0.58871   0.00000  Uiso   1.00
H1086  H     0.89946   0.70347   0.77307   0.00000  Uiso   1.00
H1087  H     0.76625   0.70453   0.72918   0.00000  Uiso   1.00
H1088  H     0.76584   0.96305   0.72962   0.00000  Uiso   1.00
H1089  H     0.94070   0.88410   0.80286   0.00000  Uiso   1.00
H1090  H     0.69398   0.88380   0.80326   0.00000  Uiso   1.00
H1091  H     0.72697   0.78301   0.69735   0.00000  Uiso   1.00
H1092  H     0.92560   0.75791   0.92526   0.00000  Uiso   1.00
H1093  H     0.95564   0.76953   0.99865   0.00000  Uiso   1.00
H1094  H     0.71873   0.85542   0.91454   0.00000  Uiso   1.00
H1095  H     0.74976   0.84581   0.55823   0.00000  Uiso   1.00
H1096  H     0.69327   0.86196   0.51021   0.00000  Uiso   1.00
H1097  H     0.89962   0.96209   0.77243   0.00000  Uiso   1.00
N1098  N     0.71598   0.83332   0.74998   0.00000  Uiso   1.00
N1099  N     0.95069   0.83335   0.74999   0.00000  Uiso   1.00
O1100  O     0.79375   0.89345   0.75000   0.00000  Uiso   1.00
O1101  O     0.87294   0.89346   0.75000   0.00000  Uiso   1.00
O1102  O     0.77441   0.83332   0.82549   0.00000  Uiso   1.00
O1103  O     0.85360   0.83333   0.82549   0.00000  Uiso   1.00
O1104  O     0.79373   0.77321   0.74999   0.00000  Uiso   1.00
O1105  O     0.87292   0.77322   0.74999   0.00000  Uiso   1.00
O1106  O     0.81306   0.83334   0.67451   0.00000  Uiso   1.00
O1107  O     0.89225   0.83335   0.67451   0.00000  Uiso   1.00
N1108  N     0.97245   0.77194   0.69183   0.00000  Uiso   1.00
H1109  H     0.95045   0.78246   0.67027   0.00000  Uiso   1.00
H1110  H     0.95511   0.74903   0.71777   0.00000  Uiso   1.00
N1111  N     0.81511   0.87874   0.58008   0.00000  Uiso   1.00
H1112  H     0.78706   0.87393   0.61510   0.00000  Uiso   1.00
H1113  H     0.83773   0.90198   0.58642   0.00000  Uiso   1.00
N1114  N     0.86484   0.75906   0.87167   0.00000  Uiso   1.00
H1115  H     0.89284   0.76882   0.83881   0.00000  Uiso   1.00
H1116  H     0.83152   0.75692   0.86370   0.00000  Uiso   1.00
loop_
_geom_bond_atom_site_label_1
_geom_bond_atom_site_label_2
_geom_bond_distance
_geom_bond_site_symmetry_2
_ccdc_geom_bond_type
C1     C17     1.448   .     S
C1     O47     1.292   .     A
C1     O46     1.295   .     A
C2     C3      1.422   .     A
C2     C562    1.425   .     S
C2     C586    1.415   .     S
C3     C10     1.425   .     A
C3     C7      1.427   .     A
C4     C8      1.418   .     A
C4     C560    1.425   1_554 S
C4     C563    1.418   1_554 S
C5     C6      1.392   .     A
C5     C562    1.418   .     S
C5     C582    1.401   .     S
C6     H38     1.085   .     S
C6     C7      1.391   .     A
C7     N60     1.436   .     S
C8     N57     1.439   .     S
C8     C25     1.412   .     A
C9     C24     1.389   .     A
C9     C25     1.399   .     A
C9     H31     1.081   .     S
C10    C26     1.404   .     A
C10    C12     1.473   .     S
C11    H43     1.083   .     S
C11    C17     1.401   .     A
C11    C199    1.383   .     S
C12    O48     1.300   .     A
C12    O49     1.298   .     A
C13    H32     1.082   .     S
C13    C14     1.399   .     A
C13    C383    1.383   1_545 S
C14    C22     1.449   .     S
C14    C15     1.402   .     A
C15    H33     1.083   .     S
C15    C388    1.384   1_545 S
C16    H34     1.083   .     S
C16    C17     1.400   .     A
C16    C201    1.384   .     S
C18    H35     1.082   .     S
C18    N45     1.367   .     A
C18    C81     1.420   .     S
C19    N44     1.369   .     A
C19    H36     1.082   .     S
C19    C142    1.420   1_455 S
C20    H37     1.083   .     S
C20    N44     1.353   .     A
C20    C145    1.409   1_455 S
C21    N45     1.389   .     A
C21    N54     1.428   .     S
C21    C82     1.409   .     S
C22    O50     1.292   .     A
C22    O51     1.296   .     A
C23    O52     1.295   .     A
C23    O53     1.302   .     A
C23    C25     1.468   .     S
C24    C563    1.401   1_554 S
C24    H597    1.084   1_554 S
C26    H40     1.083   .     S
C26    C27     1.386   .     A
C27    C586    1.389   .     S
C27    H600    1.083   .     S
C28    H41     1.078   .     S
C28    C585    1.389   1_554 S
C28    C560    1.415   1_554 S
Cu29   O46     1.965   .     S
Cu29   Cu30    2.686   .     S
Cu29   O50     1.961   .     S
Cu29   N44     2.019   .     S
Cu29   O48     1.944   .     S
Cu29   O52     1.928   .     S
Cu30   O51     1.965   .     S
Cu30   O47     1.961   .     S
Cu30   O49     1.928   .     S
Cu30   O53     1.944   .     S
Cu30   N45     2.019   .     S
H39    C582    1.084   .     S
H42    C585    1.083   1_554 S
N54    H56     1.042   .     S
N54    H55     1.036   .     S
N57    H58     1.043   .     S
N57    H59     1.046   .     S
N60    H62     1.044   .     S
N60    H61     1.044   .     S
C63    C79     1.448   .     S
C63    O109    1.292   .     A
C63    O108    1.295   .     A
C64    C65     1.422   .     A
C64    C624    1.425   .     S
C64    C648    1.415   .     S
C65    C72     1.425   .     A
C65    C69     1.427   .     A
C66    C70     1.418   .     A
C66    C622    1.425   1_554 S
C66    C625    1.418   1_554 S
C67    C68     1.392   .     A
C67    C624    1.418   .     S
C67    C644    1.401   .     S
C68    H100    1.085   .     S
C68    C69     1.391   .     A
C69    N122    1.436   .     S
C70    N119    1.439   .     S
C70    C87     1.412   .     A
C71    C86     1.389   .     A
C71    C87     1.399   .     A
C71    H93     1.081   .     S
C72    C88     1.404   .     A
C72    C74     1.473   .     S
C73    H105    1.083   .     S
C73    C79     1.401   .     A
C73    C261    1.383   .     S
C74    O110    1.300   .     A
C74    O111    1.298   .     A
C75    H94     1.082   .     S
C75    C76     1.399   .     A
C75    C445    1.383   1_545 S
C76    C84     1.449   .     S
C76    C77     1.402   .     A
C77    H95     1.083   .     S
C77    C450    1.384   1_545 S
C78    H96     1.083   .     S
C78    C79     1.400   .     A
C78    C263    1.384   .     S
C80    H97     1.082   .     S
C80    N107    1.367   .     A
C80    C143    1.420   .     S
C81    N106    1.369   .     A
C81    H98     1.082   .     S
C82    H99     1.083   .     S
C82    N106    1.353   .     A
C83    N107    1.389   .     A
C83    N116    1.428   .     S
C83    C144    1.409   .     S
C84    O112    1.292   .     A
C84    O113    1.296   .     A
C85    O114    1.295   .     A
C85    O115    1.302   .     A
C85    C87     1.468   .     S
C86    C625    1.401   1_554 S
C86    H659    1.084   1_554 S
C88    H102    1.083   .     S
C88    C89     1.386   .     A
C89    C648    1.389   .     S
C89    H662    1.083   .     S
C90    H103    1.078   .     S
C90    C647    1.389   1_554 S
C90    C622    1.415   1_554 S
Cu91   O108    1.965   .     S
Cu91   Cu92    2.686   .     S
Cu91   O112    1.961   .     S
Cu91   N106    2.019   .     S
Cu91   O110    1.944   .     S
Cu91   O114    1.928   .     S
Cu92   O113    1.965   .     S
Cu92   O109    1.961   .     S
Cu92   O111    1.928   .     S
Cu92   O115    1.944   .     S
Cu92   N107    2.019   .     S
H101   C644    1.084   .     S
H104   C647    1.083   1_554 S
N116   H118    1.042   .     S
N116   H117    1.036   .     S
N119   H120    1.043   .     S
N119   H121    1.046   .     S
N122   H124    1.044   .     S
N122   H123    1.044   .     S
C125   C141    1.448   .     S
C125   O171    1.292   .     A
C125   O170    1.295   .     A
C126   C127    1.422   .     A
C126   C686    1.425   .     S
C126   C710    1.415   .     S
C127   C134    1.425   .     A
C127   C131    1.427   .     A
C128   C132    1.418   .     A
C128   C684    1.425   1_554 S
C128   C687    1.418   1_554 S
C129   C130    1.392   .     A
C129   C686    1.418   .     S
C129   C706    1.401   .     S
C130   H162    1.085   .     S
C130   C131    1.391   .     A
C131   N184    1.436   .     S
C132   N181    1.439   .     S
C132   C149    1.412   .     A
C133   C148    1.389   .     A
C133   C149    1.399   .     A
C133   H155    1.081   .     S
C134   C150    1.404   .     A
C134   C136    1.473   .     S
C135   H167    1.083   .     S
C135   C141    1.401   .     A
C135   C323    1.383   .     S
C136   O172    1.300   .     A
C136   O173    1.298   .     A
C137   H156    1.082   .     S
C137   C138    1.399   .     A
C137   C507    1.383   1_545 S
C138   C146    1.449   .     S
C138   C139    1.402   .     A
C139   H157    1.083   .     S
C139   C512    1.384   1_545 S
C140   H158    1.083   .     S
C140   C141    1.400   .     A
C140   C325    1.384   .     S
C142   H159    1.082   .     S
C142   N169    1.367   .     A
C142   C19     1.420   1_655 S
C143   N168    1.369   .     A
C143   H160    1.082   .     S
C144   H161    1.083   .     S
C144   N168    1.353   .     A
C145   N169    1.389   .     A
C145   N178    1.428   .     S
C145   C20     1.409   1_655 S
C146   O174    1.292   .     A
C146   O175    1.296   .     A
C147   O176    1.295   .     A
C147   O177    1.302   .     A
C147   C149    1.468   .     S
C148   C687    1.401   1_554 S
C148   H721    1.084   1_554 S
C150   H164    1.083   .     S
C150   C151    1.386   .     A
C151   C710    1.389   .     S
C151   H724    1.083   .     S
C152   H165    1.078   .     S
C152   C709    1.389   1_554 S
C152   C684    1.415   1_554 S
Cu153  O170    1.965   .     S
Cu153  Cu154   2.686   .     S
Cu153  O174    1.961   .     S
Cu153  N168    2.019   .     S
Cu153  O172    1.944   .     S
Cu153  O176    1.928   .     S
Cu154  O175    1.965   .     S
Cu154  O171    1.961   .     S
Cu154  O173    1.928   .     S
Cu154  O177    1.944   .     S
Cu154  N169    2.019   .     S
H163   C706    1.084   .     S
H166   C709    1.083   1_554 S
N178   H180    1.042   .     S
N178   H179    1.036   .     S
N181   H182    1.043   .     S
N181   H183    1.046   .     S
N184   H186    1.044   .     S
N184   H185    1.044   .     S
C187   C203    1.448   .     S
C187   O233    1.292   .     A
C187   O232    1.295   .     A
C188   C189    1.422   .     A
C188   C748    1.425   .     S
C188   C772    1.415   .     S
C189   C196    1.425   .     A
C189   C193    1.427   .     A
C190   C194    1.418   .     A
C190   C746    1.425   1_554 S
C190   C749    1.418   1_554 S
C191   C192    1.392   .     A
C191   C748    1.418   .     S
C191   C768    1.401   .     S
C192   H224    1.085   .     S
C192   C193    1.391   .     A
C193   N246    1.436   .     S
C194   N243    1.439   .     S
C194   C211    1.412   .     A
C195   C210    1.389   .     A
C195   C211    1.399   .     A
C195   H217    1.081   .     S
C196   C212    1.404   .     A
C196   C198    1.473   .     S
C197   H229    1.083   .     S
C197   C203    1.401   .     A
C197   C385    1.383   .     S
C198   O234    1.300   .     A
C198   O235    1.298   .     A
C199   H218    1.082   .     S
C199   C200    1.399   .     A
C200   C208    1.449   .     S
C200   C201    1.402   .     A
C201   H219    1.083   .     S
C202   H220    1.083   .     S
C202   C203    1.400   .     A
C202   C387    1.384   .     S
C204   H221    1.082   .     S
C204   N231    1.367   .     A
C204   C267    1.420   .     S
C205   N230    1.369   .     A
C205   H222    1.082   .     S
C205   C328    1.420   1_455 S
C206   H223    1.083   .     S
C206   N230    1.353   .     A
C206   C331    1.409   1_455 S
C207   N231    1.389   .     A
C207   N240    1.428   .     S
C207   C268    1.409   .     S
C208   O236    1.292   .     A
C208   O237    1.296   .     A
C209   O238    1.295   .     A
C209   O239    1.302   .     A
C209   C211    1.468   .     S
C210   C749    1.401   1_554 S
C210   H783    1.084   1_554 S
C212   H226    1.083   .     S
C212   C213    1.386   .     A
C213   C772    1.389   .     S
C213   H786    1.083   .     S
C214   H227    1.078   .     S
C214   C771    1.389   1_554 S
C214   C746    1.415   1_554 S
Cu215  O232    1.965   .     S
Cu215  Cu216   2.686   .     S
Cu215  O236    1.961   .     S
Cu215  N230    2.019   .     S
Cu215  O234    1.944   .     S
Cu215  O238    1.928   .     S
Cu216  O237    1.965   .     S
Cu216  O233    1.961   .     S
Cu216  O235    1.928   .     S
Cu216  O239    1.944   .     S
Cu216  N231    2.019   .     S
H225   C768    1.084   .     S
H228   C771    1.083   1_554 S
N240   H242    1.042   .     S
N240   H241    1.036   .     S
N243   H244    1.043   .     S
N243   H245    1.046   .     S
N246   H248    1.044   .     S
N246   H247    1.044   .     S
C249   C265    1.448   .     S
C249   O295    1.292   .     A
C249   O294    1.295   .     A
C250   C251    1.422   .     A
C250   C810    1.425   .     S
C250   C834    1.415   .     S
C251   C258    1.425   .     A
C251   C255    1.427   .     A
C252   C256    1.418   .     A
C252   C808    1.425   1_554 S
C252   C811    1.418   1_554 S
C253   C254    1.392   .     A
C253   C810    1.418   .     S
C253   C830    1.401   .     S
C254   H286    1.085   .     S
C254   C255    1.391   .     A
C255   N308    1.436   .     S
C256   N305    1.439   .     S
C256   C273    1.412   .     A
C257   C272    1.389   .     A
C257   C273    1.399   .     A
C257   H279    1.081   .     S
C258   C274    1.404   .     A
C258   C260    1.473   .     S
C259   H291    1.083   .     S
C259   C265    1.401   .     A
C259   C447    1.383   .     S
C260   O296    1.300   .     A
C260   O297    1.298   .     A
C261   H280    1.082   .     S
C261   C262    1.399   .     A
C262   C270    1.449   .     S
C262   C263    1.402   .     A
C263   H281    1.083   .     S
C264   H282    1.083   .     S
C264   C265    1.400   .     A
C264   C449    1.384   .     S
C266   H283    1.082   .     S
C266   N293    1.367   .     A
C266   C329    1.420   .     S
C267   N292    1.369   .     A
C267   H284    1.082   .     S
C268   H285    1.083   .     S
C268   N292    1.353   .     A
C269   N293    1.389   .     A
C269   N302    1.428   .     S
C269   C330    1.409   .     S
C270   O298    1.292   .     A
C270   O299    1.296   .     A
C271   O300    1.295   .     A
C271   O301    1.302   .     A
C271   C273    1.468   .     S
C272   C811    1.401   1_554 S
C272   H845    1.084   1_554 S
C274   H288    1.083   .     S
C274   C275    1.386   .     A
C275   C834    1.389   .     S
C275   H848    1.083   .     S
C276   H289    1.078   .     S
C276   C833    1.389   1_554 S
C276   C808    1.415   1_554 S
Cu277  O294    1.965   .     S
Cu277  Cu278   2.686   .     S
Cu277  O298    1.961   .     S
Cu277  N292    2.019   .     S
Cu277  O296    1.944   .     S
Cu277  O300    1.928   .     S
Cu278  O299    1.965   .     S
Cu278  O295    1.961   .     S
Cu278  O297    1.928   .     S
Cu278  O301    1.944   .     S
Cu278  N293    2.019   .     S
H287   C830    1.084   .     S
H290   C833    1.083   1_554 S
N302   H304    1.042   .     S
N302   H303    1.036   .     S
N305   H306    1.043   .     S
N305   H307    1.046   .     S
N308   H310    1.044   .     S
N308   H309    1.044   .     S
C311   C327    1.448   .     S
C311   O357    1.292   .     A
C311   O356    1.295   .     A
C312   C313    1.422   .     A
C312   C872    1.425   .     S
C312   C896    1.415   .     S
C313   C320    1.425   .     A
C313   C317    1.427   .     A
C314   C318    1.418   .     A
C314   C870    1.425   1_554 S
C314   C873    1.418   1_554 S
C315   C316    1.392   .     A
C315   C872    1.418   .     S
C315   C892    1.401   .     S
C316   H348    1.085   .     S
C316   C317    1.391   .     A
C317   N370    1.436   .     S
C318   N367    1.439   .     S
C318   C335    1.412   .     A
C319   C334    1.389   .     A
C319   C335    1.399   .     A
C319   H341    1.081   .     S
C320   C336    1.404   .     A
C320   C322    1.473   .     S
C321   H353    1.083   .     S
C321   C327    1.401   .     A
C321   C509    1.383   .     S
C322   O358    1.300   .     A
C322   O359    1.298   .     A
C323   H342    1.082   .     S
C323   C324    1.399   .     A
C324   C332    1.449   .     S
C324   C325    1.402   .     A
C325   H343    1.083   .     S
C326   H344    1.083   .     S
C326   C327    1.400   .     A
C326   C511    1.384   .     S
C328   H345    1.082   .     S
C328   N355    1.367   .     A
C328   C205    1.420   1_655 S
C329   N354    1.369   .     A
C329   H346    1.082   .     S
C330   H347    1.083   .     S
C330   N354    1.353   .     A
C331   N355    1.389   .     A
C331   N364    1.428   .     S
C331   C206    1.409   1_655 S
C332   O360    1.292   .     A
C332   O361    1.296   .     A
C333   O362    1.295   .     A
C333   O363    1.302   .     A
C333   C335    1.468   .     S
C334   C873    1.401   1_554 S
C334   H907    1.084   1_554 S
C336   H350    1.083   .     S
C336   C337    1.386   .     A
C337   C896    1.389   .     S
C337   H910    1.083   .     S
C338   H351    1.078   .     S
C338   C895    1.389   1_554 S
C338   C870    1.415   1_554 S
Cu339  O356    1.965   .     S
Cu339  Cu340   2.686   .     S
Cu339  O360    1.961   .     S
Cu339  N354    2.019   .     S
Cu339  O358    1.944   .     S
Cu339  O362    1.928   .     S
Cu340  O361    1.965   .     S
Cu340  O357    1.961   .     S
Cu340  O359    1.928   .     S
Cu340  O363    1.944   .     S
Cu340  N355    2.019   .     S
H349   C892    1.084   .     S
H352   C895    1.083   1_554 S
N364   H366    1.042   .     S
N364   H365    1.036   .     S
N367   H368    1.043   .     S
N367   H369    1.046   .     S
N370   H372    1.044   .     S
N370   H371    1.044   .     S
C373   C389    1.448   .     S
C373   O419    1.292   .     A
C373   O418    1.295   .     A
C374   C375    1.422   .     A
C374   C934    1.425   .     S
C374   C958    1.415   .     S
C375   C382    1.425   .     A
C375   C379    1.427   .     A
C376   C380    1.418   .     A
C376   C932    1.425   1_554 S
C376   C935    1.418   1_554 S
C377   C378    1.392   .     A
C377   C934    1.418   .     S
C377   C954    1.401   .     S
C378   H410    1.085   .     S
C378   C379    1.391   .     A
C379   N432    1.436   .     S
C380   N429    1.439   .     S
C380   C397    1.412   .     A
C381   C396    1.389   .     A
C381   C397    1.399   .     A
C381   H403    1.081   .     S
C382   C398    1.404   .     A
C382   C384    1.473   .     S
C383   H415    1.083   .     S
C383   C389    1.401   .     A
C383   C13     1.383   1_565 S
C384   O420    1.300   .     A
C384   O421    1.298   .     A
C385   H404    1.082   .     S
C385   C386    1.399   .     A
C386   C394    1.449   .     S
C386   C387    1.402   .     A
C387   H405    1.083   .     S
C388   H406    1.083   .     S
C388   C389    1.400   .     A
C388   C15     1.384   1_565 S
C390   H407    1.082   .     S
C390   N417    1.367   .     A
C390   C453    1.420   .     S
C391   N416    1.369   .     A
C391   H408    1.082   .     S
C391   C514    1.420   1_455 S
C392   H409    1.083   .     S
C392   N416    1.353   .     A
C392   C517    1.409   1_455 S
C393   N417    1.389   .     A
C393   N426    1.428   .     S
C393   C454    1.409   .     S
C394   O422    1.292   .     A
C394   O423    1.296   .     A
C395   O424    1.295   .     A
C395   O425    1.302   .     A
C395   C397    1.468   .     S
C396   C935    1.401   1_554 S
C396   H969    1.084   1_554 S
C398   H412    1.083   .     S
C398   C399    1.386   .     A
C399   C958    1.389   .     S
C399   H972    1.083   .     S
C400   H413    1.078   .     S
C400   C957    1.389   1_554 S
C400   C932    1.415   1_554 S
Cu401  O418    1.965   .     S
Cu401  Cu402   2.686   .     S
Cu401  O422    1.961   .     S
Cu401  N416    2.019   .     S
Cu401  O420    1.944   .     S
Cu401  O424    1.928   .     S
Cu402  O423    1.965   .     S
Cu402  O419    1.961   .     S
Cu402  O421    1.928   .     S
Cu402  O425    1.944   .     S
Cu402  N417    2.019   .     S
H411   C954    1.084   .     S
H414   C957    1.083   1_554 S
N426   H428    1.042   .     S
N426   H427    1.036   .     S
N429   H430    1.043   .     S
N429   H431    1.046   .     S
N432   H434    1.044   .     S
N432   H433    1.044   .     S
C435   C451    1.448   .     S
C435   O481    1.292   .     A
C435   O480    1.295   .     A
C436   C437    1.422   .     A
C436   C996    1.425   .     S
C436   C1020   1.415   .     S
C437   C444    1.425   .     A
C437   C441    1.427   .     A
C438   C442    1.418   .     A
C438   C994    1.425   1_554 S
C438   C997    1.418   1_554 S
C439   C440    1.392   .     A
C439   C996    1.418   .     S
C439   C1016   1.401   .     S
C440   H472    1.085   .     S
C440   C441    1.391   .     A
C441   N494    1.436   .     S
C442   N491    1.439   .     S
C442   C459    1.412   .     A
C443   C458    1.389   .     A
C443   C459    1.399   .     A
C443   H465    1.081   .     S
C444   C460    1.404   .     A
C444   C446    1.473   .     S
C445   H477    1.083   .     S
C445   C451    1.401   .     A
C445   C75     1.383   1_565 S
C446   O482    1.300   .     A
C446   O483    1.298   .     A
C447   H466    1.082   .     S
C447   C448    1.399   .     A
C448   C456    1.449   .     S
C448   C449    1.402   .     A
C449   H467    1.083   .     S
C450   H468    1.083   .     S
C450   C451    1.400   .     A
C450   C77     1.384   1_565 S
C452   H469    1.082   .     S
C452   N479    1.367   .     A
C452   C515    1.420   .     S
C453   N478    1.369   .     A
C453   H470    1.082   .     S
C454   H471    1.083   .     S
C454   N478    1.353   .     A
C455   N479    1.389   .     A
C455   N488    1.428   .     S
C455   C516    1.409   .     S
C456   O484    1.292   .     A
C456   O485    1.296   .     A
C457   O486    1.295   .     A
C457   O487    1.302   .     A
C457   C459    1.468   .     S
C458   C997    1.401   1_554 S
C458   H1031   1.084   1_554 S
C460   H474    1.083   .     S
C460   C461    1.386   .     A
C461   C1020   1.389   .     S
C461   H1034   1.083   .     S
C462   H475    1.078   .     S
C462   C1019   1.389   1_554 S
C462   C994    1.415   1_554 S
Cu463  O480    1.965   .     S
Cu463  Cu464   2.686   .     S
Cu463  O484    1.961   .     S
Cu463  N478    2.019   .     S
Cu463  O482    1.944   .     S
Cu463  O486    1.928   .     S
Cu464  O485    1.965   .     S
Cu464  O481    1.961   .     S
Cu464  O483    1.928   .     S
Cu464  O487    1.944   .     S
Cu464  N479    2.019   .     S
H473   C1016   1.084   .     S
H476   C1019   1.083   1_554 S
N488   H490    1.042   .     S
N488   H489    1.036   .     S
N491   H492    1.043   .     S
N491   H493    1.046   .     S
N494   H496    1.044   .     S
N494   H495    1.044   .     S
C497   C513    1.448   .     S
C497   O543    1.292   .     A
C497   O542    1.295   .     A
C498   C499    1.422   .     A
C498   C1058   1.425   .     S
C498   C1082   1.415   .     S
C499   C506    1.425   .     A
C499   C503    1.427   .     A
C500   C504    1.418   .     A
C500   C1056   1.425   1_554 S
C500   C1059   1.418   1_554 S
C501   C502    1.392   .     A
C501   C1058   1.418   .     S
C501   C1078   1.401   .     S
C502   H534    1.085   .     S
C502   C503    1.391   .     A
C503   N556    1.436   .     S
C504   N553    1.439   .     S
C504   C521    1.412   .     A
C505   C520    1.389   .     A
C505   C521    1.399   .     A
C505   H527    1.081   .     S
C506   C522    1.404   .     A
C506   C508    1.473   .     S
C507   H539    1.083   .     S
C507   C513    1.401   .     A
C507   C137    1.383   1_565 S
C508   O544    1.300   .     A
C508   O545    1.298   .     A
C509   H528    1.082   .     S
C509   C510    1.399   .     A
C510   C518    1.449   .     S
C510   C511    1.402   .     A
C511   H529    1.083   .     S
C512   H530    1.083   .     S
C512   C513    1.400   .     A
C512   C139    1.384   1_565 S
C514   H531    1.082   .     S
C514   N541    1.367   .     A
C514   C391    1.420   1_655 S
C515   N540    1.369   .     A
C515   H532    1.082   .     S
C516   H533    1.083   .     S
C516   N540    1.353   .     A
C517   N541    1.389   .     A
C517   N550    1.428   .     S
C517   C392    1.409   1_655 S
C518   O546    1.292   .     A
C518   O547    1.296   .     A
C519   O548    1.295   .     A
C519   O549    1.302   .     A
C519   C521    1.468   .     S
C520   C1059   1.401   1_554 S
C520   H1093   1.084   1_554 S
C522   H536    1.083   .     S
C522   C523    1.386   .     A
C523   C1082   1.389   .     S
C523   H1096   1.083   .     S
C524   H537    1.078   .     S
C524   C1081   1.389   1_554 S
C524   C1056   1.415   1_554 S
Cu525  O542    1.965   .     S
Cu525  Cu526   2.686   .     S
Cu525  O546    1.961   .     S
Cu525  N540    2.019   .     S
Cu525  O544    1.944   .     S
Cu525  O548    1.928   .     S
Cu526  O547    1.965   .     S
Cu526  O543    1.961   .     S
Cu526  O545    1.928   .     S
Cu526  O549    1.944   .     S
Cu526  N541    2.019   .     S
H535   C1078   1.084   .     S
H538   C1081   1.083   1_554 S
N550   H552    1.042   .     S
N550   H551    1.036   .     S
N553   H554    1.043   .     S
N553   H555    1.046   .     S
N556   H558    1.044   .     S
N556   H557    1.044   .     S
C559   C575    1.448   .     S
C559   O605    1.292   .     A
C559   O604    1.295   .     A
C560   C561    1.422   .     A
C560   C4      1.425   1_556 S
C560   C28     1.415   1_556 S
C561   C568    1.425   .     A
C561   C565    1.427   .     A
C562   C566    1.418   .     A
C563   C564    1.392   .     A
C563   C4      1.418   1_556 S
C563   C24     1.401   1_556 S
C564   H596    1.085   .     S
C564   C565    1.391   .     A
C565   N618    1.436   .     S
C566   N615    1.439   .     S
C566   C583    1.412   .     A
C567   C582    1.389   .     A
C567   C583    1.399   .     A
C567   H589    1.081   .     S
C568   C584    1.404   .     A
C568   C570    1.473   .     S
C569   H601    1.083   .     S
C569   C575    1.401   .     A
C569   C757    1.383   .     S
C570   O606    1.300   .     A
C570   O607    1.298   .     A
C571   H590    1.082   .     S
C571   C572    1.399   .     A
C571   C941    1.383   1_545 S
C572   C580    1.449   .     S
C572   C573    1.402   .     A
C573   H591    1.083   .     S
C573   C946    1.384   1_545 S
C574   H592    1.083   .     S
C574   C575    1.400   .     A
C574   C759    1.384   .     S
C576   H593    1.082   .     S
C576   N603    1.367   .     A
C576   C639    1.420   .     S
C577   N602    1.369   .     A
C577   H594    1.082   .     S
C577   C700    1.420   1_455 S
C578   H595    1.083   .     S
C578   N602    1.353   .     A
C578   C703    1.409   1_455 S
C579   N603    1.389   .     A
C579   N612    1.428   .     S
C579   C640    1.409   .     S
C580   O608    1.292   .     A
C580   O609    1.296   .     A
C581   O610    1.295   .     A
C581   O611    1.302   .     A
C581   C583    1.468   .     S
C584   H598    1.083   .     S
C584   C585    1.386   .     A
C585   C28     1.389   1_556 S
C585   H42     1.083   1_556 S
C586   H599    1.078   .     S
Cu587  O604    1.965   .     S
Cu587  Cu588   2.686   .     S
Cu587  O608    1.961   .     S
Cu587  N602    2.019   .     S
Cu587  O606    1.944   .     S
Cu587  O610    1.928   .     S
Cu588  O609    1.965   .     S
Cu588  O605    1.961   .     S
Cu588  O607    1.928   .     S
Cu588  O611    1.944   .     S
Cu588  N603    2.019   .     S
H597   C24     1.084   1_556 S
N612   H614    1.042   .     S
N612   H613    1.036   .     S
N615   H616    1.043   .     S
N615   H617    1.046   .     S
N618   H620    1.044   .     S
N618   H619    1.044   .     S
C621   C637    1.448   .     S
C621   O667    1.292   .     A
C621   O666    1.295   .     A
C622   C623    1.422   .     A
C622   C66     1.425   1_556 S
C622   C90     1.415   1_556 S
C623   C630    1.425   .     A
C623   C627    1.427   .     A
C624   C628    1.418   .     A
C625   C626    1.392   .     A
C625   C66     1.418   1_556 S
C625   C86     1.401   1_556 S
C626   H658    1.085   .     S
C626   C627    1.391   .     A
C627   N680    1.436   .     S
C628   N677    1.439   .     S
C628   C645    1.412   .     A
C629   C644    1.389   .     A
C629   C645    1.399   .     A
C629   H651    1.081   .     S
C630   C646    1.404   .     A
C630   C632    1.473   .     S
C631   H663    1.083   .     S
C631   C637    1.401   .     A
C631   C819    1.383   .     S
C632   O668    1.300   .     A
C632   O669    1.298   .     A
C633   H652    1.082   .     S
C633   C634    1.399   .     A
C633   C1003   1.383   1_545 S
C634   C642    1.449   .     S
C634   C635    1.402   .     A
C635   H653    1.083   .     S
C635   C1008   1.384   1_545 S
C636   H654    1.083   .     S
C636   C637    1.400   .     A
C636   C821    1.384   .     S
C638   H655    1.082   .     S
C638   N665    1.367   .     A
C638   C701    1.420   .     S
C639   N664    1.369   .     A
C639   H656    1.082   .     S
C640   H657    1.083   .     S
C640   N664    1.353   .     A
C641   N665    1.389   .     A
C641   N674    1.428   .     S
C641   C702    1.409   .     S
C642   O670    1.292   .     A
C642   O671    1.296   .     A
C643   O672    1.295   .     A
C643   O673    1.302   .     A
C643   C645    1.468   .     S
C646   H660    1.083   .     S
C646   C647    1.386   .     A
C647   C90     1.389   1_556 S
C647   H104    1.083   1_556 S
C648   H661    1.078   .     S
Cu649  O666    1.965   .     S
Cu649  Cu650   2.686   .     S
Cu649  O670    1.961   .     S
Cu649  N664    2.019   .     S
Cu649  O668    1.944   .     S
Cu649  O672    1.928   .     S
Cu650  O671    1.965   .     S
Cu650  O667    1.961   .     S
Cu650  O669    1.928   .     S
Cu650  O673    1.944   .     S
Cu650  N665    2.019   .     S
H659   C86     1.084   1_556 S
N674   H676    1.042   .     S
N674   H675    1.036   .     S
N677   H678    1.043   .     S
N677   H679    1.046   .     S
N680   H682    1.044   .     S
N680   H681    1.044   .     S
C683   C699    1.448   .     S
C683   O729    1.292   .     A
C683   O728    1.295   .     A
C684   C685    1.422   .     A
C684   C128    1.425   1_556 S
C684   C152    1.415   1_556 S
C685   C692    1.425   .     A
C685   C689    1.427   .     A
C686   C690    1.418   .     A
C687   C688    1.392   .     A
C687   C128    1.418   1_556 S
C687   C148    1.401   1_556 S
C688   H720    1.085   .     S
C688   C689    1.391   .     A
C689   N742    1.436   .     S
C690   N739    1.439   .     S
C690   C707    1.412   .     A
C691   C706    1.389   .     A
C691   C707    1.399   .     A
C691   H713    1.081   .     S
C692   C708    1.404   .     A
C692   C694    1.473   .     S
C693   H725    1.083   .     S
C693   C699    1.401   .     A
C693   C881    1.383   .     S
C694   O730    1.300   .     A
C694   O731    1.298   .     A
C695   H714    1.082   .     S
C695   C696    1.399   .     A
C695   C1065   1.383   1_545 S
C696   C704    1.449   .     S
C696   C697    1.402   .     A
C697   H715    1.083   .     S
C697   C1070   1.384   1_545 S
C698   H716    1.083   .     S
C698   C699    1.400   .     A
C698   C883    1.384   .     S
C700   H717    1.082   .     S
C700   N727    1.367   .     A
C700   C577    1.420   1_655 S
C701   N726    1.369   .     A
C701   H718    1.082   .     S
C702   H719    1.083   .     S
C702   N726    1.353   .     A
C703   N727    1.389   .     A
C703   N736    1.428   .     S
C703   C578    1.409   1_655 S
C704   O732    1.292   .     A
C704   O733    1.296   .     A
C705   O734    1.295   .     A
C705   O735    1.302   .     A
C705   C707    1.468   .     S
C708   H722    1.083   .     S
C708   C709    1.386   .     A
C709   C152    1.389   1_556 S
C709   H166    1.083   1_556 S
C710   H723    1.078   .     S
Cu711  O728    1.965   .     S
Cu711  Cu712   2.686   .     S
Cu711  O732    1.961   .     S
Cu711  N726    2.019   .     S
Cu711  O730    1.944   .     S
Cu711  O734    1.928   .     S
Cu712  O733    1.965   .     S
Cu712  O729    1.961   .     S
Cu712  O731    1.928   .     S
Cu712  O735    1.944   .     S
Cu712  N727    2.019   .     S
H721   C148    1.084   1_556 S
N736   H738    1.042   .     S
N736   H737    1.036   .     S
N739   H740    1.043   .     S
N739   H741    1.046   .     S
N742   H744    1.044   .     S
N742   H743    1.044   .     S
C745   C761    1.448   .     S
C745   O791    1.292   .     A
C745   O790    1.295   .     A
C746   C747    1.422   .     A
C746   C190    1.425   1_556 S
C746   C214    1.415   1_556 S
C747   C754    1.425   .     A
C747   C751    1.427   .     A
C748   C752    1.418   .     A
C749   C750    1.392   .     A
C749   C190    1.418   1_556 S
C749   C210    1.401   1_556 S
C750   H782    1.085   .     S
C750   C751    1.391   .     A
C751   N804    1.436   .     S
C752   N801    1.439   .     S
C752   C769    1.412   .     A
C753   C768    1.389   .     A
C753   C769    1.399   .     A
C753   H775    1.081   .     S
C754   C770    1.404   .     A
C754   C756    1.473   .     S
C755   H787    1.083   .     S
C755   C761    1.401   .     A
C755   C943    1.383   .     S
C756   O792    1.300   .     A
C756   O793    1.298   .     A
C757   H776    1.082   .     S
C757   C758    1.399   .     A
C758   C766    1.449   .     S
C758   C759    1.402   .     A
C759   H777    1.083   .     S
C760   H778    1.083   .     S
C760   C761    1.400   .     A
C760   C945    1.384   .     S
C762   H779    1.082   .     S
C762   N789    1.367   .     A
C762   C825    1.420   .     S
C763   N788    1.369   .     A
C763   H780    1.082   .     S
C763   C886    1.420   1_455 S
C764   H781    1.083   .     S
C764   N788    1.353   .     A
C764   C889    1.409   1_455 S
C765   N789    1.389   .     A
C765   N798    1.428   .     S
C765   C826    1.409   .     S
C766   O794    1.292   .     A
C766   O795    1.296   .     A
C767   O796    1.295   .     A
C767   O797    1.302   .     A
C767   C769    1.468   .     S
C770   H784    1.083   .     S
C770   C771    1.386   .     A
C771   C214    1.389   1_556 S
C771   H228    1.083   1_556 S
C772   H785    1.078   .     S
Cu773  O790    1.965   .     S
Cu773  Cu774   2.686   .     S
Cu773  O794    1.961   .     S
Cu773  N788    2.019   .     S
Cu773  O792    1.944   .     S
Cu773  O796    1.928   .     S
Cu774  O795    1.965   .     S
Cu774  O791    1.961   .     S
Cu774  O793    1.928   .     S
Cu774  O797    1.944   .     S
Cu774  N789    2.019   .     S
H783   C210    1.084   1_556 S
N798   H800    1.042   .     S
N798   H799    1.036   .     S
N801   H802    1.043   .     S
N801   H803    1.046   .     S
N804   H806    1.044   .     S
N804   H805    1.044   .     S
C807   C823    1.448   .     S
C807   O853    1.292   .     A
C807   O852    1.295   .     A
C808   C809    1.422   .     A
C808   C252    1.425   1_556 S
C808   C276    1.415   1_556 S
C809   C816    1.425   .     A
C809   C813    1.427   .     A
C810   C814    1.418   .     A
C811   C812    1.392   .     A
C811   C252    1.418   1_556 S
C811   C272    1.401   1_556 S
C812   H844    1.085   .     S
C812   C813    1.391   .     A
C813   N866    1.436   .     S
C814   N863    1.439   .     S
C814   C831    1.412   .     A
C815   C830    1.389   .     A
C815   C831    1.399   .     A
C815   H837    1.081   .     S
C816   C832    1.404   .     A
C816   C818    1.473   .     S
C817   H849    1.083   .     S
C817   C823    1.401   .     A
C817   C1005   1.383   .     S
C818   O854    1.300   .     A
C818   O855    1.298   .     A
C819   H838    1.082   .     S
C819   C820    1.399   .     A
C820   C828    1.449   .     S
C820   C821    1.402   .     A
C821   H839    1.083   .     S
C822   H840    1.083   .     S
C822   C823    1.400   .     A
C822   C1007   1.384   .     S
C824   H841    1.082   .     S
C824   N851    1.367   .     A
C824   C887    1.420   .     S
C825   N850    1.369   .     A
C825   H842    1.082   .     S
C826   H843    1.083   .     S
C826   N850    1.353   .     A
C827   N851    1.389   .     A
C827   N860    1.428   .     S
C827   C888    1.409   .     S
C828   O856    1.292   .     A
C828   O857    1.296   .     A
C829   O858    1.295   .     A
C829   O859    1.302   .     A
C829   C831    1.468   .     S
C832   H846    1.083   .     S
C832   C833    1.386   .     A
C833   C276    1.389   1_556 S
C833   H290    1.083   1_556 S
C834   H847    1.078   .     S
Cu835  O852    1.965   .     S
Cu835  Cu836   2.686   .     S
Cu835  O856    1.961   .     S
Cu835  N850    2.019   .     S
Cu835  O854    1.944   .     S
Cu835  O858    1.928   .     S
Cu836  O857    1.965   .     S
Cu836  O853    1.961   .     S
Cu836  O855    1.928   .     S
Cu836  O859    1.944   .     S
Cu836  N851    2.019   .     S
H845   C272    1.084   1_556 S
N860   H862    1.042   .     S
N860   H861    1.036   .     S
N863   H864    1.043   .     S
N863   H865    1.046   .     S
N866   H868    1.044   .     S
N866   H867    1.044   .     S
C869   C885    1.448   .     S
C869   O915    1.292   .     A
C869   O914    1.295   .     A
C870   C871    1.422   .     A
C870   C314    1.425   1_556 S
C870   C338    1.415   1_556 S
C871   C878    1.425   .     A
C871   C875    1.427   .     A
C872   C876    1.418   .     A
C873   C874    1.392   .     A
C873   C314    1.418   1_556 S
C873   C334    1.401   1_556 S
C874   H906    1.085   .     S
C874   C875    1.391   .     A
C875   N928    1.436   .     S
C876   N925    1.439   .     S
C876   C893    1.412   .     A
C877   C892    1.389   .     A
C877   C893    1.399   .     A
C877   H899    1.081   .     S
C878   C894    1.404   .     A
C878   C880    1.473   .     S
C879   H911    1.083   .     S
C879   C885    1.401   .     A
C879   C1067   1.383   .     S
C880   O916    1.300   .     A
C880   O917    1.298   .     A
C881   H900    1.082   .     S
C881   C882    1.399   .     A
C882   C890    1.449   .     S
C882   C883    1.402   .     A
C883   H901    1.083   .     S
C884   H902    1.083   .     S
C884   C885    1.400   .     A
C884   C1069   1.384   .     S
C886   H903    1.082   .     S
C886   N913    1.367   .     A
C886   C763    1.420   1_655 S
C887   N912    1.369   .     A
C887   H904    1.082   .     S
C888   H905    1.083   .     S
C888   N912    1.353   .     A
C889   N913    1.389   .     A
C889   N922    1.428   .     S
C889   C764    1.409   1_655 S
C890   O918    1.292   .     A
C890   O919    1.296   .     A
C891   O920    1.295   .     A
C891   O921    1.302   .     A
C891   C893    1.468   .     S
C894   H908    1.083   .     S
C894   C895    1.386   .     A
C895   C338    1.389   1_556 S
C895   H352    1.083   1_556 S
C896   H909    1.078   .     S
Cu897  O914    1.965   .     S
Cu897  Cu898   2.686   .     S
Cu897  O918    1.961   .     S
Cu897  N912    2.019   .     S
Cu897  O916    1.944   .     S
Cu897  O920    1.928   .     S
Cu898  O919    1.965   .     S
Cu898  O915    1.961   .     S
Cu898  O917    1.928   .     S
Cu898  O921    1.944   .     S
Cu898  N913    2.019   .     S
H907   C334    1.084   1_556 S
N922   H924    1.042   .     S
N922   H923    1.036   .     S
N925   H926    1.043   .     S
N925   H927    1.046   .     S
N928   H930    1.044   .     S
N928   H929    1.044   .     S
C931   C947    1.448   .     S
C931   O977    1.292   .     A
C931   O976    1.295   .     A
C932   C933    1.422   .     A
C932   C376    1.425   1_556 S
C932   C400    1.415   1_556 S
C933   C940    1.425   .     A
C933   C937    1.427   .     A
C934   C938    1.418   .     A
C935   C936    1.392   .     A
C935   C376    1.418   1_556 S
C935   C396    1.401   1_556 S
C936   H968    1.085   .     S
C936   C937    1.391   .     A
C937   N990    1.436   .     S
C938   N987    1.439   .     S
C938   C955    1.412   .     A
C939   C954    1.389   .     A
C939   C955    1.399   .     A
C939   H961    1.081   .     S
C940   C956    1.404   .     A
C940   C942    1.473   .     S
C941   H973    1.083   .     S
C941   C947    1.401   .     A
C941   C571    1.383   1_565 S
C942   O978    1.300   .     A
C942   O979    1.298   .     A
C943   H962    1.082   .     S
C943   C944    1.399   .     A
C944   C952    1.449   .     S
C944   C945    1.402   .     A
C945   H963    1.083   .     S
C946   H964    1.083   .     S
C946   C947    1.400   .     A
C946   C573    1.384   1_565 S
C948   H965    1.082   .     S
C948   N975    1.367   .     A
C948   C1011   1.420   .     S
C949   N974    1.369   .     A
C949   H966    1.082   .     S
C949   C1072   1.420   1_455 S
C950   H967    1.083   .     S
C950   N974    1.353   .     A
C950   C1075   1.409   1_455 S
C951   N975    1.389   .     A
C951   N984    1.428   .     S
C951   C1012   1.409   .     S
C952   O980    1.292   .     A
C952   O981    1.296   .     A
C953   O982    1.295   .     A
C953   O983    1.302   .     A
C953   C955    1.468   .     S
C956   H970    1.083   .     S
C956   C957    1.386   .     A
C957   C400    1.389   1_556 S
C957   H414    1.083   1_556 S
C958   H971    1.078   .     S
Cu959  O976    1.965   .     S
Cu959  Cu960   2.686   .     S
Cu959  O980    1.961   .     S
Cu959  N974    2.019   .     S
Cu959  O978    1.944   .     S
Cu959  O982    1.928   .     S
Cu960  O981    1.965   .     S
Cu960  O977    1.961   .     S
Cu960  O979    1.928   .     S
Cu960  O983    1.944   .     S
Cu960  N975    2.019   .     S
H969   C396    1.084   1_556 S
N984   H986    1.042   .     S
N984   H985    1.036   .     S
N987   H988    1.043   .     S
N987   H989    1.046   .     S
N990   H992    1.044   .     S
N990   H991    1.044   .     S
C993   C1009   1.448   .     S
C993   O1039   1.292   .     A
C993   O1038   1.295   .     A
C994   C995    1.422   .     A
C994   C438    1.425   1_556 S
C994   C462    1.415   1_556 S
C995   C1002   1.425   .     A
C995   C999    1.427   .     A
C996   C1000   1.418   .     A
C997   C998    1.392   .     A
C997   C438    1.418   1_556 S
C997   C458    1.401   1_556 S
C998   H1030   1.085   .     S
C998   C999    1.391   .     A
C999   N1052   1.436   .     S
C1000  N1049   1.439   .     S
C1000  C1017   1.412   .     A
C1001  C1016   1.389   .     A
C1001  C1017   1.399   .     A
C1001  H1023   1.081   .     S
C1002  C1018   1.404   .     A
C1002  C1004   1.473   .     S
C1003  H1035   1.083   .     S
C1003  C1009   1.401   .     A
C1003  C633    1.383   1_565 S
C1004  O1040   1.300   .     A
C1004  O1041   1.298   .     A
C1005  H1024   1.082   .     S
C1005  C1006   1.399   .     A
C1006  C1014   1.449   .     S
C1006  C1007   1.402   .     A
C1007  H1025   1.083   .     S
C1008  H1026   1.083   .     S
C1008  C1009   1.400   .     A
C1008  C635    1.384   1_565 S
C1010  H1027   1.082   .     S
C1010  N1037   1.367   .     A
C1010  C1073   1.420   .     S
C1011  N1036   1.369   .     A
C1011  H1028   1.082   .     S
C1012  H1029   1.083   .     S
C1012  N1036   1.353   .     A
C1013  N1037   1.389   .     A
C1013  N1046   1.428   .     S
C1013  C1074   1.409   .     S
C1014  O1042   1.292   .     A
C1014  O1043   1.296   .     A
C1015  O1044   1.295   .     A
C1015  O1045   1.302   .     A
C1015  C1017   1.468   .     S
C1018  H1032   1.083   .     S
C1018  C1019   1.386   .     A
C1019  C462    1.389   1_556 S
C1019  H476    1.083   1_556 S
C1020  H1033   1.078   .     S
Cu1021 O1038   1.965   .     S
Cu1021 Cu1022  2.686   .     S
Cu1021 O1042   1.961   .     S
Cu1021 N1036   2.019   .     S
Cu1021 O1040   1.944   .     S
Cu1021 O1044   1.928   .     S
Cu1022 O1043   1.965   .     S
Cu1022 O1039   1.961   .     S
Cu1022 O1041   1.928   .     S
Cu1022 O1045   1.944   .     S
Cu1022 N1037   2.019   .     S
H1031  C458    1.084   1_556 S
N1046  H1048   1.042   .     S
N1046  H1047   1.036   .     S
N1049  H1050   1.043   .     S
N1049  H1051   1.046   .     S
N1052  H1054   1.044   .     S
N1052  H1053   1.044   .     S
C1055  C1071   1.448   .     S
C1055  O1101   1.292   .     A
C1055  O1100   1.295   .     A
C1056  C1057   1.422   .     A
C1056  C500    1.425   1_556 S
C1056  C524    1.415   1_556 S
C1057  C1064   1.425   .     A
C1057  C1061   1.427   .     A
C1058  C1062   1.418   .     A
C1059  C1060   1.392   .     A
C1059  C500    1.418   1_556 S
C1059  C520    1.401   1_556 S
C1060  H1092   1.085   .     S
C1060  C1061   1.391   .     A
C1061  N1114   1.436   .     S
C1062  N1111   1.439   .     S
C1062  C1079   1.412   .     A
C1063  C1078   1.389   .     A
C1063  C1079   1.399   .     A
C1063  H1085   1.081   .     S
C1064  C1080   1.404   .     A
C1064  C1066   1.473   .     S
C1065  H1097   1.083   .     S
C1065  C1071   1.401   .     A
C1065  C695    1.383   1_565 S
C1066  O1102   1.300   .     A
C1066  O1103   1.298   .     A
C1067  H1086   1.082   .     S
C1067  C1068   1.399   .     A
C1068  C1076   1.449   .     S
C1068  C1069   1.402   .     A
C1069  H1087   1.083   .     S
C1070  H1088   1.083   .     S
C1070  C1071   1.400   .     A
C1070  C697    1.384   1_565 S
C1072  H1089   1.082   .     S
C1072  N1099   1.367   .     A
C1072  C949    1.420   1_655 S
C1073  N1098   1.369   .     A
C1073  H1090   1.082   .     S
C1074  H1091   1.083   .     S
C1074  N1098   1.353   .     A
C1075  N1099   1.389   .     A
C1075  N1108   1.428   .     S
C1075  C950    1.409   1_655 S
C1076  O1104   1.292   .     A
C1076  O1105   1.296   .     A
C1077  O1106   1.295   .     A
C1077  O1107   1.302   .     A
C1077  C1079   1.468   .     S
C1080  H1094   1.083   .     S
C1080  C1081   1.386   .     A
C1081  C524    1.389   1_556 S
C1081  H538    1.083   1_556 S
C1082  H1095   1.078   .     S
Cu1083 O1100   1.965   .     S
Cu1083 Cu1084  2.686   .     S
Cu1083 O1104   1.961   .     S
Cu1083 N1098   2.019   .     S
Cu1083 O1102   1.944   .     S
Cu1083 O1106   1.928   .     S
Cu1084 O1105   1.965   .     S
Cu1084 O1101   1.961   .     S
Cu1084 O1103   1.928   .     S
Cu1084 O1107   1.944   .     S
Cu1084 N1099   2.019   .     S
H1093  C520    1.084   1_556 S
N1108  H1110   1.042   .     S
N1108  H1109   1.036   .     S
N1111  H1112   1.043   .     S
N1111  H1113   1.046   .     S
N1114  H1116   1.044   .     S
N1114  H1115   1.044   .     S
