data_str_m2_o1_o5_pcu_sym.62
_audit_creation_date              2020-01-03
_audit_creation_method            'Materials Studio'
_symmetry_space_group_name_H-M    'P1'
_symmetry_Int_Tables_number       1
_symmetry_cell_setting            triclinic
loop_
_symmetry_equiv_pos_as_xyz
  x,y,z
_cell_length_a                    32.8517
_cell_length_b                    28.9029
_cell_length_c                    27.3373
_cell_angle_alpha                 90.0025
_cell_angle_beta                  94.0068
_cell_angle_gamma                 90.0082
loop_
_atom_site_label
_atom_site_type_symbol
_atom_site_fract_x
_atom_site_fract_y
_atom_site_fract_z
_atom_site_U_iso_or_equiv
_atom_site_adp_type
_atom_site_occupancy
O1     O     0.10655   0.20625   0.16666   0.00000  Uiso   1.00
O2     O     0.22679   0.12709   0.16667   0.00000  Uiso   1.00
O3     O     0.22679   0.20625   0.16667   0.00000  Uiso   1.00
O4     O     0.10655   0.12709   0.16666   0.00000  Uiso   1.00
C5     C     0.08746   0.16660   0.16732   0.00000  Uiso   1.00
C6     C     0.24587   0.16661   0.16594   0.00000  Uiso   1.00
O7     O     0.16667   0.20625   0.09613   0.00000  Uiso   1.00
O8     O     0.16667   0.12708   0.23720   0.00000  Uiso   1.00
O9     O     0.16667   0.20625   0.23720   0.00000  Uiso   1.00
O10    O     0.16667   0.12708   0.09613   0.00000  Uiso   1.00
C11    C     0.16657   0.16662   0.07362   0.00000  Uiso   1.00
C12    C     0.16676   0.16662   0.25971   0.00000  Uiso   1.00
Cu13   Cu    0.16667   0.21355   0.16667   0.00000  Uiso   1.00
Cu14   Cu    0.16667   0.11978   0.16667   0.00000  Uiso   1.00
C15    C     0.16665   0.16642   0.02184   0.00000  Uiso   1.00
C16    C     0.16668   0.16642   0.31149   0.00000  Uiso   1.00
C17    C     0.02141   0.12403   0.17086   0.00000  Uiso   1.00
C18    C     0.31254   0.20817   0.16983   0.00000  Uiso   1.00
C19    C     0.31189   0.12403   0.16238   0.00000  Uiso   1.00
C20    C     0.02079   0.20812   0.16284   0.00000  Uiso   1.00
C21    C     0.29062   0.16633   0.16572   0.00000  Uiso   1.00
C22    C     0.04270   0.16631   0.16737   0.00000  Uiso   1.00
C23    C     0.15093   0.02464   0.12647   0.00000  Uiso   1.00
C24    C     0.18477   0.30837   0.20537   0.00000  Uiso   1.00
C25    C     0.18240   0.02465   0.20687   0.00000  Uiso   1.00
C26    C     0.14856   0.30836   0.12797   0.00000  Uiso   1.00
N27    N     0.16667   0.28402   0.16667   0.00000  Uiso   1.00
N28    N     0.16667   0.04931   0.16667   0.00000  Uiso   1.00
O29    O     0.04056   0.08750   0.19619   0.00000  Uiso   1.00
C30    C     0.04621   0.04902   0.16574   0.00000  Uiso   1.00
H31    H     0.07924   0.04233   0.16515   0.00000  Uiso   1.00
H32    H     0.03248   0.05257   0.12750   0.00000  Uiso   1.00
H33    H     0.03351   0.01784   0.18273   0.00000  Uiso   1.00
O34    O     0.29313   0.25000   0.17592   0.00000  Uiso   1.00
C35    C     0.30148   0.26433   0.22493   0.00000  Uiso   1.00
H36    H     0.28841   0.23962   0.25090   0.00000  Uiso   1.00
H37    H     0.28700   0.29835   0.22965   0.00000  Uiso   1.00
H38    H     0.00141   0.26909   0.23431   0.00000  Uiso   1.00
O39    O     0.29274   0.08749   0.13706   0.00000  Uiso   1.00
C40    C     0.28704   0.04904   0.16754   0.00000  Uiso   1.00
H41    H     0.25401   0.04240   0.16816   0.00000  Uiso   1.00
H42    H     0.30080   0.05260   0.20577   0.00000  Uiso   1.00
H43    H     0.29969   0.01785   0.15053   0.00000  Uiso   1.00
O44    O     0.04015   0.24988   0.15614   0.00000  Uiso   1.00
C45    C     0.03206   0.26337   0.10682   0.00000  Uiso   1.00
H46    H     0.04627   0.23886   0.08161   0.00000  Uiso   1.00
H47    H     0.04557   0.29788   0.10187   0.00000  Uiso   1.00
H48    H     0.33213   0.26672   0.09662   0.00000  Uiso   1.00
O49    O     0.14431   0.04679   0.08179   0.00000  Uiso   1.00
C50    C     0.10247   0.05515   0.07035   0.00000  Uiso   1.00
H51    H     0.08321   0.02450   0.07620   0.00000  Uiso   1.00
H52    H     0.09816   0.06396   0.03084   0.00000  Uiso   1.00
H53    H     0.09203   0.08546   0.09061   0.00000  Uiso   1.00
O54    O     0.20837   0.28439   0.24079   0.00000  Uiso   1.00
C55    C     0.19091   0.28652   0.28634   0.00000  Uiso   1.00
H56    H     0.20083   0.25551   0.30779   0.00000  Uiso   1.00
H57    H     0.15690   0.28676   0.28253   0.00000  Uiso   1.00
H58    H     0.20270   0.31630   0.30838   0.00000  Uiso   1.00
O59    O     0.18899   0.04679   0.25156   0.00000  Uiso   1.00
C60    C     0.23081   0.05521   0.26302   0.00000  Uiso   1.00
H61    H     0.25010   0.02456   0.25732   0.00000  Uiso   1.00
H62    H     0.23508   0.06415   0.30251   0.00000  Uiso   1.00
H63    H     0.24127   0.08547   0.24268   0.00000  Uiso   1.00
O64    O     0.12495   0.28437   0.09257   0.00000  Uiso   1.00
C65    C     0.14240   0.28650   0.04700   0.00000  Uiso   1.00
H66    H     0.13246   0.25548   0.02556   0.00000  Uiso   1.00
H67    H     0.17640   0.28675   0.05080   0.00000  Uiso   1.00
H68    H     0.13060   0.31628   0.02496   0.00000  Uiso   1.00
O69    O     0.43988   0.20625   0.16666   0.00000  Uiso   1.00
O70    O     0.56012   0.12709   0.16667   0.00000  Uiso   1.00
O71    O     0.56012   0.20625   0.16667   0.00000  Uiso   1.00
O72    O     0.43988   0.12709   0.16666   0.00000  Uiso   1.00
C73    C     0.42080   0.16660   0.16732   0.00000  Uiso   1.00
C74    C     0.57920   0.16661   0.16594   0.00000  Uiso   1.00
O75    O     0.50000   0.20625   0.09613   0.00000  Uiso   1.00
O76    O     0.50000   0.12708   0.23720   0.00000  Uiso   1.00
O77    O     0.50000   0.20625   0.23720   0.00000  Uiso   1.00
O78    O     0.50000   0.12708   0.09613   0.00000  Uiso   1.00
C79    C     0.49991   0.16662   0.07362   0.00000  Uiso   1.00
C80    C     0.50009   0.16662   0.25971   0.00000  Uiso   1.00
Cu81   Cu    0.50000   0.21355   0.16667   0.00000  Uiso   1.00
Cu82   Cu    0.50000   0.11978   0.16667   0.00000  Uiso   1.00
C83    C     0.49999   0.16642   0.02184   0.00000  Uiso   1.00
C84    C     0.50001   0.16642   0.31149   0.00000  Uiso   1.00
C85    C     0.35474   0.12403   0.17086   0.00000  Uiso   1.00
C86    C     0.64587   0.20817   0.16983   0.00000  Uiso   1.00
C87    C     0.64523   0.12403   0.16238   0.00000  Uiso   1.00
C88    C     0.35412   0.20812   0.16284   0.00000  Uiso   1.00
C89    C     0.62396   0.16633   0.16572   0.00000  Uiso   1.00
C90    C     0.37603   0.16631   0.16737   0.00000  Uiso   1.00
C91    C     0.48426   0.02464   0.12647   0.00000  Uiso   1.00
C92    C     0.51810   0.30837   0.20537   0.00000  Uiso   1.00
C93    C     0.51573   0.02465   0.20687   0.00000  Uiso   1.00
C94    C     0.48189   0.30836   0.12797   0.00000  Uiso   1.00
N95    N     0.50000   0.28402   0.16667   0.00000  Uiso   1.00
N96    N     0.50000   0.04931   0.16667   0.00000  Uiso   1.00
O97    O     0.37389   0.08750   0.19619   0.00000  Uiso   1.00
C98    C     0.37955   0.04902   0.16574   0.00000  Uiso   1.00
H99    H     0.41258   0.04233   0.16515   0.00000  Uiso   1.00
H100   H     0.36582   0.05257   0.12750   0.00000  Uiso   1.00
H101   H     0.36684   0.01784   0.18273   0.00000  Uiso   1.00
O102   O     0.62646   0.25000   0.17592   0.00000  Uiso   1.00
C103   C     0.63481   0.26433   0.22493   0.00000  Uiso   1.00
H104   H     0.62175   0.23962   0.25090   0.00000  Uiso   1.00
H105   H     0.62033   0.29835   0.22965   0.00000  Uiso   1.00
H106   H     0.33475   0.26909   0.23431   0.00000  Uiso   1.00
O107   O     0.62607   0.08749   0.13706   0.00000  Uiso   1.00
C108   C     0.62038   0.04904   0.16754   0.00000  Uiso   1.00
H109   H     0.58734   0.04240   0.16816   0.00000  Uiso   1.00
H110   H     0.63413   0.05260   0.20577   0.00000  Uiso   1.00
H111   H     0.63302   0.01785   0.15053   0.00000  Uiso   1.00
O112   O     0.37349   0.24988   0.15614   0.00000  Uiso   1.00
C113   C     0.36540   0.26337   0.10682   0.00000  Uiso   1.00
H114   H     0.37960   0.23886   0.08161   0.00000  Uiso   1.00
H115   H     0.37890   0.29788   0.10187   0.00000  Uiso   1.00
H116   H     0.66547   0.26672   0.09662   0.00000  Uiso   1.00
O117   O     0.47764   0.04679   0.08179   0.00000  Uiso   1.00
C118   C     0.43581   0.05515   0.07035   0.00000  Uiso   1.00
H119   H     0.41654   0.02450   0.07620   0.00000  Uiso   1.00
H120   H     0.43149   0.06396   0.03084   0.00000  Uiso   1.00
H121   H     0.42536   0.08546   0.09061   0.00000  Uiso   1.00
O122   O     0.54170   0.28439   0.24079   0.00000  Uiso   1.00
C123   C     0.52424   0.28652   0.28634   0.00000  Uiso   1.00
H124   H     0.53416   0.25551   0.30779   0.00000  Uiso   1.00
H125   H     0.49023   0.28676   0.28253   0.00000  Uiso   1.00
H126   H     0.53603   0.31630   0.30838   0.00000  Uiso   1.00
O127   O     0.52232   0.04679   0.25156   0.00000  Uiso   1.00
C128   C     0.56414   0.05521   0.26302   0.00000  Uiso   1.00
H129   H     0.58343   0.02456   0.25732   0.00000  Uiso   1.00
H130   H     0.56841   0.06415   0.30251   0.00000  Uiso   1.00
H131   H     0.57460   0.08547   0.24268   0.00000  Uiso   1.00
O132   O     0.45828   0.28437   0.09257   0.00000  Uiso   1.00
C133   C     0.47573   0.28650   0.04700   0.00000  Uiso   1.00
H134   H     0.46580   0.25548   0.02556   0.00000  Uiso   1.00
H135   H     0.50974   0.28675   0.05080   0.00000  Uiso   1.00
H136   H     0.46393   0.31628   0.02496   0.00000  Uiso   1.00
O137   O     0.77321   0.20625   0.16666   0.00000  Uiso   1.00
O138   O     0.89345   0.12709   0.16667   0.00000  Uiso   1.00
O139   O     0.89345   0.20625   0.16667   0.00000  Uiso   1.00
O140   O     0.77321   0.12709   0.16666   0.00000  Uiso   1.00
C141   C     0.75413   0.16660   0.16732   0.00000  Uiso   1.00
C142   C     0.91253   0.16661   0.16594   0.00000  Uiso   1.00
O143   O     0.83333   0.20625   0.09613   0.00000  Uiso   1.00
O144   O     0.83333   0.12708   0.23720   0.00000  Uiso   1.00
O145   O     0.83333   0.20625   0.23720   0.00000  Uiso   1.00
O146   O     0.83333   0.12708   0.09613   0.00000  Uiso   1.00
C147   C     0.83324   0.16662   0.07362   0.00000  Uiso   1.00
C148   C     0.83342   0.16662   0.25971   0.00000  Uiso   1.00
Cu149  Cu    0.83333   0.21355   0.16667   0.00000  Uiso   1.00
Cu150  Cu    0.83333   0.11978   0.16667   0.00000  Uiso   1.00
C151   C     0.83332   0.16642   0.02184   0.00000  Uiso   1.00
C152   C     0.83334   0.16642   0.31149   0.00000  Uiso   1.00
C153   C     0.68807   0.12403   0.17086   0.00000  Uiso   1.00
C154   C     0.97920   0.20817   0.16983   0.00000  Uiso   1.00
C155   C     0.97856   0.12403   0.16238   0.00000  Uiso   1.00
C156   C     0.68746   0.20812   0.16284   0.00000  Uiso   1.00
C157   C     0.95729   0.16633   0.16572   0.00000  Uiso   1.00
C158   C     0.70937   0.16631   0.16737   0.00000  Uiso   1.00
C159   C     0.81759   0.02464   0.12647   0.00000  Uiso   1.00
C160   C     0.85144   0.30837   0.20537   0.00000  Uiso   1.00
C161   C     0.84907   0.02465   0.20687   0.00000  Uiso   1.00
C162   C     0.81522   0.30836   0.12797   0.00000  Uiso   1.00
N163   N     0.83333   0.28402   0.16667   0.00000  Uiso   1.00
N164   N     0.83333   0.04931   0.16667   0.00000  Uiso   1.00
O165   O     0.70723   0.08750   0.19619   0.00000  Uiso   1.00
C166   C     0.71288   0.04902   0.16574   0.00000  Uiso   1.00
H167   H     0.74591   0.04233   0.16515   0.00000  Uiso   1.00
H168   H     0.69915   0.05257   0.12750   0.00000  Uiso   1.00
H169   H     0.70018   0.01784   0.18273   0.00000  Uiso   1.00
O170   O     0.95980   0.25000   0.17592   0.00000  Uiso   1.00
C171   C     0.96815   0.26433   0.22493   0.00000  Uiso   1.00
H172   H     0.95508   0.23962   0.25090   0.00000  Uiso   1.00
H173   H     0.95367   0.29835   0.22965   0.00000  Uiso   1.00
H174   H     0.66808   0.26909   0.23431   0.00000  Uiso   1.00
O175   O     0.95941   0.08749   0.13706   0.00000  Uiso   1.00
C176   C     0.95371   0.04904   0.16754   0.00000  Uiso   1.00
H177   H     0.92067   0.04240   0.16816   0.00000  Uiso   1.00
H178   H     0.96746   0.05260   0.20577   0.00000  Uiso   1.00
H179   H     0.96636   0.01785   0.15053   0.00000  Uiso   1.00
O180   O     0.70682   0.24988   0.15614   0.00000  Uiso   1.00
C181   C     0.69873   0.26337   0.10682   0.00000  Uiso   1.00
H182   H     0.71293   0.23886   0.08161   0.00000  Uiso   1.00
H183   H     0.71224   0.29788   0.10187   0.00000  Uiso   1.00
H184   H     0.99880   0.26672   0.09662   0.00000  Uiso   1.00
O185   O     0.81097   0.04679   0.08179   0.00000  Uiso   1.00
C186   C     0.76914   0.05515   0.07035   0.00000  Uiso   1.00
H187   H     0.74987   0.02450   0.07620   0.00000  Uiso   1.00
H188   H     0.76483   0.06396   0.03084   0.00000  Uiso   1.00
H189   H     0.75870   0.08546   0.09061   0.00000  Uiso   1.00
O190   O     0.87503   0.28439   0.24079   0.00000  Uiso   1.00
C191   C     0.85757   0.28652   0.28634   0.00000  Uiso   1.00
H192   H     0.86749   0.25551   0.30779   0.00000  Uiso   1.00
H193   H     0.82357   0.28676   0.28253   0.00000  Uiso   1.00
H194   H     0.86937   0.31630   0.30838   0.00000  Uiso   1.00
O195   O     0.85566   0.04679   0.25156   0.00000  Uiso   1.00
C196   C     0.89748   0.05521   0.26302   0.00000  Uiso   1.00
H197   H     0.91676   0.02456   0.25732   0.00000  Uiso   1.00
H198   H     0.90175   0.06415   0.30251   0.00000  Uiso   1.00
H199   H     0.90794   0.08547   0.24268   0.00000  Uiso   1.00
O200   O     0.79162   0.28437   0.09257   0.00000  Uiso   1.00
C201   C     0.80906   0.28650   0.04700   0.00000  Uiso   1.00
H202   H     0.79913   0.25548   0.02556   0.00000  Uiso   1.00
H203   H     0.84307   0.28675   0.05080   0.00000  Uiso   1.00
H204   H     0.79727   0.31628   0.02496   0.00000  Uiso   1.00
O205   O     0.10655   0.53958   0.16666   0.00000  Uiso   1.00
O206   O     0.22679   0.46042   0.16667   0.00000  Uiso   1.00
O207   O     0.22679   0.53958   0.16667   0.00000  Uiso   1.00
O208   O     0.10655   0.46042   0.16666   0.00000  Uiso   1.00
C209   C     0.08746   0.49993   0.16732   0.00000  Uiso   1.00
C210   C     0.24587   0.49994   0.16594   0.00000  Uiso   1.00
O211   O     0.16667   0.53959   0.09613   0.00000  Uiso   1.00
O212   O     0.16667   0.46041   0.23720   0.00000  Uiso   1.00
O213   O     0.16667   0.53959   0.23720   0.00000  Uiso   1.00
O214   O     0.16667   0.46041   0.09613   0.00000  Uiso   1.00
C215   C     0.16657   0.49995   0.07362   0.00000  Uiso   1.00
C216   C     0.16676   0.49995   0.25971   0.00000  Uiso   1.00
Cu217  Cu    0.16667   0.54689   0.16667   0.00000  Uiso   1.00
Cu218  Cu    0.16667   0.45311   0.16667   0.00000  Uiso   1.00
C219   C     0.16665   0.49975   0.02184   0.00000  Uiso   1.00
C220   C     0.16668   0.49975   0.31149   0.00000  Uiso   1.00
C221   C     0.02141   0.45736   0.17086   0.00000  Uiso   1.00
C222   C     0.31254   0.54150   0.16983   0.00000  Uiso   1.00
C223   C     0.31189   0.45736   0.16238   0.00000  Uiso   1.00
C224   C     0.02079   0.54145   0.16284   0.00000  Uiso   1.00
C225   C     0.29062   0.49966   0.16572   0.00000  Uiso   1.00
C226   C     0.04270   0.49964   0.16737   0.00000  Uiso   1.00
C227   C     0.15093   0.35797   0.12647   0.00000  Uiso   1.00
C228   C     0.18477   0.64170   0.20537   0.00000  Uiso   1.00
C229   C     0.18240   0.35798   0.20687   0.00000  Uiso   1.00
C230   C     0.14856   0.64169   0.12797   0.00000  Uiso   1.00
N231   N     0.16667   0.61736   0.16667   0.00000  Uiso   1.00
N232   N     0.16667   0.38264   0.16667   0.00000  Uiso   1.00
O233   O     0.04056   0.42083   0.19619   0.00000  Uiso   1.00
C234   C     0.04621   0.38235   0.16574   0.00000  Uiso   1.00
H235   H     0.07924   0.37566   0.16515   0.00000  Uiso   1.00
H236   H     0.03248   0.38591   0.12750   0.00000  Uiso   1.00
H237   H     0.03351   0.35118   0.18273   0.00000  Uiso   1.00
O238   O     0.29313   0.58334   0.17592   0.00000  Uiso   1.00
C239   C     0.30148   0.59767   0.22493   0.00000  Uiso   1.00
H240   H     0.28841   0.57295   0.25090   0.00000  Uiso   1.00
H241   H     0.28700   0.63169   0.22965   0.00000  Uiso   1.00
H242   H     0.00141   0.60243   0.23431   0.00000  Uiso   1.00
O243   O     0.29274   0.42082   0.13706   0.00000  Uiso   1.00
C244   C     0.28704   0.38238   0.16754   0.00000  Uiso   1.00
H245   H     0.25401   0.37574   0.16816   0.00000  Uiso   1.00
H246   H     0.30080   0.38593   0.20577   0.00000  Uiso   1.00
H247   H     0.29969   0.35118   0.15053   0.00000  Uiso   1.00
O248   O     0.04015   0.58322   0.15614   0.00000  Uiso   1.00
C249   C     0.03206   0.59670   0.10682   0.00000  Uiso   1.00
H250   H     0.04627   0.57220   0.08161   0.00000  Uiso   1.00
H251   H     0.04557   0.63121   0.10187   0.00000  Uiso   1.00
H252   H     0.33213   0.60005   0.09662   0.00000  Uiso   1.00
O253   O     0.14431   0.38012   0.08179   0.00000  Uiso   1.00
C254   C     0.10247   0.38848   0.07035   0.00000  Uiso   1.00
H255   H     0.08321   0.35784   0.07620   0.00000  Uiso   1.00
H256   H     0.09816   0.39730   0.03084   0.00000  Uiso   1.00
H257   H     0.09203   0.41879   0.09061   0.00000  Uiso   1.00
O258   O     0.20837   0.61772   0.24079   0.00000  Uiso   1.00
C259   C     0.19091   0.61985   0.28634   0.00000  Uiso   1.00
H260   H     0.20083   0.58884   0.30779   0.00000  Uiso   1.00
H261   H     0.15690   0.62010   0.28253   0.00000  Uiso   1.00
H262   H     0.20270   0.64964   0.30838   0.00000  Uiso   1.00
O263   O     0.18899   0.38012   0.25156   0.00000  Uiso   1.00
C264   C     0.23081   0.38855   0.26302   0.00000  Uiso   1.00
H265   H     0.25010   0.35789   0.25732   0.00000  Uiso   1.00
H266   H     0.23508   0.39748   0.30251   0.00000  Uiso   1.00
H267   H     0.24127   0.41880   0.24268   0.00000  Uiso   1.00
O268   O     0.12495   0.61771   0.09257   0.00000  Uiso   1.00
C269   C     0.14240   0.61984   0.04700   0.00000  Uiso   1.00
H270   H     0.13246   0.58882   0.02556   0.00000  Uiso   1.00
H271   H     0.17640   0.62009   0.05080   0.00000  Uiso   1.00
H272   H     0.13060   0.64961   0.02496   0.00000  Uiso   1.00
O273   O     0.43988   0.53958   0.16666   0.00000  Uiso   1.00
O274   O     0.56012   0.46042   0.16667   0.00000  Uiso   1.00
O275   O     0.56012   0.53958   0.16667   0.00000  Uiso   1.00
O276   O     0.43988   0.46042   0.16666   0.00000  Uiso   1.00
C277   C     0.42080   0.49993   0.16732   0.00000  Uiso   1.00
C278   C     0.57920   0.49994   0.16594   0.00000  Uiso   1.00
O279   O     0.50000   0.53959   0.09613   0.00000  Uiso   1.00
O280   O     0.50000   0.46041   0.23720   0.00000  Uiso   1.00
O281   O     0.50000   0.53959   0.23720   0.00000  Uiso   1.00
O282   O     0.50000   0.46041   0.09613   0.00000  Uiso   1.00
C283   C     0.49991   0.49995   0.07362   0.00000  Uiso   1.00
C284   C     0.50009   0.49995   0.25971   0.00000  Uiso   1.00
Cu285  Cu    0.50000   0.54689   0.16667   0.00000  Uiso   1.00
Cu286  Cu    0.50000   0.45311   0.16667   0.00000  Uiso   1.00
C287   C     0.49999   0.49975   0.02184   0.00000  Uiso   1.00
C288   C     0.50001   0.49975   0.31149   0.00000  Uiso   1.00
C289   C     0.35474   0.45736   0.17086   0.00000  Uiso   1.00
C290   C     0.64587   0.54150   0.16983   0.00000  Uiso   1.00
C291   C     0.64523   0.45736   0.16238   0.00000  Uiso   1.00
C292   C     0.35412   0.54145   0.16284   0.00000  Uiso   1.00
C293   C     0.62396   0.49966   0.16572   0.00000  Uiso   1.00
C294   C     0.37603   0.49964   0.16737   0.00000  Uiso   1.00
C295   C     0.48426   0.35797   0.12647   0.00000  Uiso   1.00
C296   C     0.51810   0.64170   0.20537   0.00000  Uiso   1.00
C297   C     0.51573   0.35798   0.20687   0.00000  Uiso   1.00
C298   C     0.48189   0.64169   0.12797   0.00000  Uiso   1.00
N299   N     0.50000   0.61736   0.16667   0.00000  Uiso   1.00
N300   N     0.50000   0.38264   0.16667   0.00000  Uiso   1.00
O301   O     0.37389   0.42083   0.19619   0.00000  Uiso   1.00
C302   C     0.37955   0.38235   0.16574   0.00000  Uiso   1.00
H303   H     0.41258   0.37566   0.16515   0.00000  Uiso   1.00
H304   H     0.36582   0.38591   0.12750   0.00000  Uiso   1.00
H305   H     0.36684   0.35118   0.18273   0.00000  Uiso   1.00
O306   O     0.62646   0.58334   0.17592   0.00000  Uiso   1.00
C307   C     0.63481   0.59767   0.22493   0.00000  Uiso   1.00
H308   H     0.62175   0.57295   0.25090   0.00000  Uiso   1.00
H309   H     0.62033   0.63169   0.22965   0.00000  Uiso   1.00
H310   H     0.33475   0.60243   0.23431   0.00000  Uiso   1.00
O311   O     0.62607   0.42082   0.13706   0.00000  Uiso   1.00
C312   C     0.62038   0.38238   0.16754   0.00000  Uiso   1.00
H313   H     0.58734   0.37574   0.16816   0.00000  Uiso   1.00
H314   H     0.63413   0.38593   0.20577   0.00000  Uiso   1.00
H315   H     0.63302   0.35118   0.15053   0.00000  Uiso   1.00
O316   O     0.37349   0.58322   0.15614   0.00000  Uiso   1.00
C317   C     0.36540   0.59670   0.10682   0.00000  Uiso   1.00
H318   H     0.37960   0.57220   0.08161   0.00000  Uiso   1.00
H319   H     0.37890   0.63121   0.10187   0.00000  Uiso   1.00
H320   H     0.66547   0.60005   0.09662   0.00000  Uiso   1.00
O321   O     0.47764   0.38012   0.08179   0.00000  Uiso   1.00
C322   C     0.43581   0.38848   0.07035   0.00000  Uiso   1.00
H323   H     0.41654   0.35784   0.07620   0.00000  Uiso   1.00
H324   H     0.43149   0.39730   0.03084   0.00000  Uiso   1.00
H325   H     0.42536   0.41879   0.09061   0.00000  Uiso   1.00
O326   O     0.54170   0.61772   0.24079   0.00000  Uiso   1.00
C327   C     0.52424   0.61985   0.28634   0.00000  Uiso   1.00
H328   H     0.53416   0.58884   0.30779   0.00000  Uiso   1.00
H329   H     0.49023   0.62010   0.28253   0.00000  Uiso   1.00
H330   H     0.53603   0.64964   0.30838   0.00000  Uiso   1.00
O331   O     0.52232   0.38012   0.25156   0.00000  Uiso   1.00
C332   C     0.56414   0.38855   0.26302   0.00000  Uiso   1.00
H333   H     0.58343   0.35789   0.25732   0.00000  Uiso   1.00
H334   H     0.56841   0.39748   0.30251   0.00000  Uiso   1.00
H335   H     0.57460   0.41880   0.24268   0.00000  Uiso   1.00
O336   O     0.45828   0.61771   0.09257   0.00000  Uiso   1.00
C337   C     0.47573   0.61984   0.04700   0.00000  Uiso   1.00
H338   H     0.46580   0.58882   0.02556   0.00000  Uiso   1.00
H339   H     0.50974   0.62009   0.05080   0.00000  Uiso   1.00
H340   H     0.46393   0.64961   0.02496   0.00000  Uiso   1.00
O341   O     0.77321   0.53958   0.16666   0.00000  Uiso   1.00
O342   O     0.89345   0.46042   0.16667   0.00000  Uiso   1.00
O343   O     0.89345   0.53958   0.16667   0.00000  Uiso   1.00
O344   O     0.77321   0.46042   0.16666   0.00000  Uiso   1.00
C345   C     0.75413   0.49993   0.16732   0.00000  Uiso   1.00
C346   C     0.91253   0.49994   0.16594   0.00000  Uiso   1.00
O347   O     0.83333   0.53959   0.09613   0.00000  Uiso   1.00
O348   O     0.83333   0.46041   0.23720   0.00000  Uiso   1.00
O349   O     0.83333   0.53959   0.23720   0.00000  Uiso   1.00
O350   O     0.83333   0.46041   0.09613   0.00000  Uiso   1.00
C351   C     0.83324   0.49995   0.07362   0.00000  Uiso   1.00
C352   C     0.83342   0.49995   0.25971   0.00000  Uiso   1.00
Cu353  Cu    0.83333   0.54689   0.16667   0.00000  Uiso   1.00
Cu354  Cu    0.83333   0.45311   0.16667   0.00000  Uiso   1.00
C355   C     0.83332   0.49975   0.02184   0.00000  Uiso   1.00
C356   C     0.83334   0.49975   0.31149   0.00000  Uiso   1.00
C357   C     0.68807   0.45736   0.17086   0.00000  Uiso   1.00
C358   C     0.97920   0.54150   0.16983   0.00000  Uiso   1.00
C359   C     0.97856   0.45736   0.16238   0.00000  Uiso   1.00
C360   C     0.68746   0.54145   0.16284   0.00000  Uiso   1.00
C361   C     0.95729   0.49966   0.16572   0.00000  Uiso   1.00
C362   C     0.70937   0.49964   0.16737   0.00000  Uiso   1.00
C363   C     0.81759   0.35797   0.12647   0.00000  Uiso   1.00
C364   C     0.85144   0.64170   0.20537   0.00000  Uiso   1.00
C365   C     0.84907   0.35798   0.20687   0.00000  Uiso   1.00
C366   C     0.81522   0.64169   0.12797   0.00000  Uiso   1.00
N367   N     0.83333   0.61736   0.16667   0.00000  Uiso   1.00
N368   N     0.83333   0.38264   0.16667   0.00000  Uiso   1.00
O369   O     0.70723   0.42083   0.19619   0.00000  Uiso   1.00
C370   C     0.71288   0.38235   0.16574   0.00000  Uiso   1.00
H371   H     0.74591   0.37566   0.16515   0.00000  Uiso   1.00
H372   H     0.69915   0.38591   0.12750   0.00000  Uiso   1.00
H373   H     0.70018   0.35118   0.18273   0.00000  Uiso   1.00
O374   O     0.95980   0.58334   0.17592   0.00000  Uiso   1.00
C375   C     0.96815   0.59767   0.22493   0.00000  Uiso   1.00
H376   H     0.95508   0.57295   0.25090   0.00000  Uiso   1.00
H377   H     0.95367   0.63169   0.22965   0.00000  Uiso   1.00
H378   H     0.66808   0.60243   0.23431   0.00000  Uiso   1.00
O379   O     0.95941   0.42082   0.13706   0.00000  Uiso   1.00
C380   C     0.95371   0.38238   0.16754   0.00000  Uiso   1.00
H381   H     0.92067   0.37574   0.16816   0.00000  Uiso   1.00
H382   H     0.96746   0.38593   0.20577   0.00000  Uiso   1.00
H383   H     0.96636   0.35118   0.15053   0.00000  Uiso   1.00
O384   O     0.70682   0.58322   0.15614   0.00000  Uiso   1.00
C385   C     0.69873   0.59670   0.10682   0.00000  Uiso   1.00
H386   H     0.71293   0.57220   0.08161   0.00000  Uiso   1.00
H387   H     0.71224   0.63121   0.10187   0.00000  Uiso   1.00
H388   H     0.99880   0.60005   0.09662   0.00000  Uiso   1.00
O389   O     0.81097   0.38012   0.08179   0.00000  Uiso   1.00
C390   C     0.76914   0.38848   0.07035   0.00000  Uiso   1.00
H391   H     0.74987   0.35784   0.07620   0.00000  Uiso   1.00
H392   H     0.76483   0.39730   0.03084   0.00000  Uiso   1.00
H393   H     0.75870   0.41879   0.09061   0.00000  Uiso   1.00
O394   O     0.87503   0.61772   0.24079   0.00000  Uiso   1.00
C395   C     0.85757   0.61985   0.28634   0.00000  Uiso   1.00
H396   H     0.86749   0.58884   0.30779   0.00000  Uiso   1.00
H397   H     0.82357   0.62010   0.28253   0.00000  Uiso   1.00
H398   H     0.86937   0.64964   0.30838   0.00000  Uiso   1.00
O399   O     0.85566   0.38012   0.25156   0.00000  Uiso   1.00
C400   C     0.89748   0.38855   0.26302   0.00000  Uiso   1.00
H401   H     0.91676   0.35789   0.25732   0.00000  Uiso   1.00
H402   H     0.90175   0.39748   0.30251   0.00000  Uiso   1.00
H403   H     0.90794   0.41880   0.24268   0.00000  Uiso   1.00
O404   O     0.79162   0.61771   0.09257   0.00000  Uiso   1.00
C405   C     0.80906   0.61984   0.04700   0.00000  Uiso   1.00
H406   H     0.79913   0.58882   0.02556   0.00000  Uiso   1.00
H407   H     0.84307   0.62009   0.05080   0.00000  Uiso   1.00
H408   H     0.79727   0.64961   0.02496   0.00000  Uiso   1.00
O409   O     0.10655   0.87291   0.16666   0.00000  Uiso   1.00
O410   O     0.22679   0.79375   0.16667   0.00000  Uiso   1.00
O411   O     0.22679   0.87291   0.16667   0.00000  Uiso   1.00
O412   O     0.10655   0.79375   0.16666   0.00000  Uiso   1.00
C413   C     0.08746   0.83327   0.16732   0.00000  Uiso   1.00
C414   C     0.24587   0.83327   0.16594   0.00000  Uiso   1.00
O415   O     0.16667   0.87292   0.09613   0.00000  Uiso   1.00
O416   O     0.16667   0.79375   0.23720   0.00000  Uiso   1.00
O417   O     0.16667   0.87292   0.23720   0.00000  Uiso   1.00
O418   O     0.16667   0.79375   0.09613   0.00000  Uiso   1.00
C419   C     0.16657   0.83329   0.07362   0.00000  Uiso   1.00
C420   C     0.16676   0.83329   0.25971   0.00000  Uiso   1.00
Cu421  Cu    0.16667   0.88022   0.16667   0.00000  Uiso   1.00
Cu422  Cu    0.16667   0.78645   0.16667   0.00000  Uiso   1.00
C423   C     0.16665   0.83308   0.02184   0.00000  Uiso   1.00
C424   C     0.16668   0.83308   0.31149   0.00000  Uiso   1.00
C425   C     0.02141   0.79069   0.17086   0.00000  Uiso   1.00
C426   C     0.31254   0.87483   0.16983   0.00000  Uiso   1.00
C427   C     0.31189   0.79069   0.16238   0.00000  Uiso   1.00
C428   C     0.02079   0.87479   0.16284   0.00000  Uiso   1.00
C429   C     0.29062   0.83299   0.16572   0.00000  Uiso   1.00
C430   C     0.04270   0.83297   0.16737   0.00000  Uiso   1.00
C431   C     0.15093   0.69131   0.12647   0.00000  Uiso   1.00
C432   C     0.18477   0.97503   0.20537   0.00000  Uiso   1.00
C433   C     0.18240   0.69131   0.20687   0.00000  Uiso   1.00
C434   C     0.14856   0.97503   0.12797   0.00000  Uiso   1.00
N435   N     0.16667   0.95069   0.16667   0.00000  Uiso   1.00
N436   N     0.16667   0.71598   0.16667   0.00000  Uiso   1.00
O437   O     0.04056   0.75416   0.19619   0.00000  Uiso   1.00
C438   C     0.04621   0.71568   0.16574   0.00000  Uiso   1.00
H439   H     0.07924   0.70899   0.16515   0.00000  Uiso   1.00
H440   H     0.03248   0.71924   0.12750   0.00000  Uiso   1.00
H441   H     0.03351   0.68451   0.18273   0.00000  Uiso   1.00
O442   O     0.29313   0.91667   0.17592   0.00000  Uiso   1.00
C443   C     0.30148   0.93100   0.22493   0.00000  Uiso   1.00
H444   H     0.28841   0.90629   0.25090   0.00000  Uiso   1.00
H445   H     0.28700   0.96502   0.22965   0.00000  Uiso   1.00
H446   H     0.00141   0.93576   0.23431   0.00000  Uiso   1.00
O447   O     0.29274   0.75415   0.13706   0.00000  Uiso   1.00
C448   C     0.28704   0.71571   0.16754   0.00000  Uiso   1.00
H449   H     0.25401   0.70907   0.16816   0.00000  Uiso   1.00
H450   H     0.30080   0.71926   0.20577   0.00000  Uiso   1.00
H451   H     0.29969   0.68451   0.15053   0.00000  Uiso   1.00
O452   O     0.04015   0.91655   0.15614   0.00000  Uiso   1.00
C453   C     0.03206   0.93003   0.10682   0.00000  Uiso   1.00
H454   H     0.04627   0.90553   0.08161   0.00000  Uiso   1.00
H455   H     0.04557   0.96454   0.10187   0.00000  Uiso   1.00
H456   H     0.33213   0.93338   0.09662   0.00000  Uiso   1.00
O457   O     0.14431   0.71345   0.08179   0.00000  Uiso   1.00
C458   C     0.10247   0.72181   0.07035   0.00000  Uiso   1.00
H459   H     0.08321   0.69117   0.07620   0.00000  Uiso   1.00
H460   H     0.09816   0.73063   0.03084   0.00000  Uiso   1.00
H461   H     0.09203   0.75212   0.09061   0.00000  Uiso   1.00
O462   O     0.20837   0.95105   0.24079   0.00000  Uiso   1.00
C463   C     0.19091   0.95319   0.28634   0.00000  Uiso   1.00
H464   H     0.20083   0.92217   0.30779   0.00000  Uiso   1.00
H465   H     0.15690   0.95343   0.28253   0.00000  Uiso   1.00
H466   H     0.20270   0.98297   0.30838   0.00000  Uiso   1.00
O467   O     0.18899   0.71346   0.25156   0.00000  Uiso   1.00
C468   C     0.23081   0.72188   0.26302   0.00000  Uiso   1.00
H469   H     0.25010   0.69123   0.25732   0.00000  Uiso   1.00
H470   H     0.23508   0.73082   0.30251   0.00000  Uiso   1.00
H471   H     0.24127   0.75213   0.24268   0.00000  Uiso   1.00
O472   O     0.12495   0.95104   0.09257   0.00000  Uiso   1.00
C473   C     0.14240   0.95317   0.04700   0.00000  Uiso   1.00
H474   H     0.13246   0.92215   0.02556   0.00000  Uiso   1.00
H475   H     0.17640   0.95342   0.05080   0.00000  Uiso   1.00
H476   H     0.13060   0.98295   0.02496   0.00000  Uiso   1.00
O477   O     0.43988   0.87291   0.16666   0.00000  Uiso   1.00
O478   O     0.56012   0.79375   0.16667   0.00000  Uiso   1.00
O479   O     0.56012   0.87291   0.16667   0.00000  Uiso   1.00
O480   O     0.43988   0.79375   0.16666   0.00000  Uiso   1.00
C481   C     0.42080   0.83327   0.16732   0.00000  Uiso   1.00
C482   C     0.57920   0.83327   0.16594   0.00000  Uiso   1.00
O483   O     0.50000   0.87292   0.09613   0.00000  Uiso   1.00
O484   O     0.50000   0.79375   0.23720   0.00000  Uiso   1.00
O485   O     0.50000   0.87292   0.23720   0.00000  Uiso   1.00
O486   O     0.50000   0.79375   0.09613   0.00000  Uiso   1.00
C487   C     0.49991   0.83329   0.07362   0.00000  Uiso   1.00
C488   C     0.50009   0.83329   0.25971   0.00000  Uiso   1.00
Cu489  Cu    0.50000   0.88022   0.16667   0.00000  Uiso   1.00
Cu490  Cu    0.50000   0.78645   0.16667   0.00000  Uiso   1.00
C491   C     0.49999   0.83308   0.02184   0.00000  Uiso   1.00
C492   C     0.50001   0.83308   0.31149   0.00000  Uiso   1.00
C493   C     0.35474   0.79069   0.17086   0.00000  Uiso   1.00
C494   C     0.64587   0.87483   0.16983   0.00000  Uiso   1.00
C495   C     0.64523   0.79069   0.16238   0.00000  Uiso   1.00
C496   C     0.35412   0.87479   0.16284   0.00000  Uiso   1.00
C497   C     0.62396   0.83299   0.16572   0.00000  Uiso   1.00
C498   C     0.37603   0.83297   0.16737   0.00000  Uiso   1.00
C499   C     0.48426   0.69131   0.12647   0.00000  Uiso   1.00
C500   C     0.51810   0.97503   0.20537   0.00000  Uiso   1.00
C501   C     0.51573   0.69131   0.20687   0.00000  Uiso   1.00
C502   C     0.48189   0.97503   0.12797   0.00000  Uiso   1.00
N503   N     0.50000   0.95069   0.16667   0.00000  Uiso   1.00
N504   N     0.50000   0.71598   0.16667   0.00000  Uiso   1.00
O505   O     0.37389   0.75416   0.19619   0.00000  Uiso   1.00
C506   C     0.37955   0.71568   0.16574   0.00000  Uiso   1.00
H507   H     0.41258   0.70899   0.16515   0.00000  Uiso   1.00
H508   H     0.36582   0.71924   0.12750   0.00000  Uiso   1.00
H509   H     0.36684   0.68451   0.18273   0.00000  Uiso   1.00
O510   O     0.62646   0.91667   0.17592   0.00000  Uiso   1.00
C511   C     0.63481   0.93100   0.22493   0.00000  Uiso   1.00
H512   H     0.62175   0.90629   0.25090   0.00000  Uiso   1.00
H513   H     0.62033   0.96502   0.22965   0.00000  Uiso   1.00
H514   H     0.33475   0.93576   0.23431   0.00000  Uiso   1.00
O515   O     0.62607   0.75415   0.13706   0.00000  Uiso   1.00
C516   C     0.62038   0.71571   0.16754   0.00000  Uiso   1.00
H517   H     0.58734   0.70907   0.16816   0.00000  Uiso   1.00
H518   H     0.63413   0.71926   0.20577   0.00000  Uiso   1.00
H519   H     0.63302   0.68451   0.15053   0.00000  Uiso   1.00
O520   O     0.37349   0.91655   0.15614   0.00000  Uiso   1.00
C521   C     0.36540   0.93003   0.10682   0.00000  Uiso   1.00
H522   H     0.37960   0.90553   0.08161   0.00000  Uiso   1.00
H523   H     0.37890   0.96454   0.10187   0.00000  Uiso   1.00
H524   H     0.66547   0.93338   0.09662   0.00000  Uiso   1.00
O525   O     0.47764   0.71345   0.08179   0.00000  Uiso   1.00
C526   C     0.43581   0.72181   0.07035   0.00000  Uiso   1.00
H527   H     0.41654   0.69117   0.07620   0.00000  Uiso   1.00
H528   H     0.43149   0.73063   0.03084   0.00000  Uiso   1.00
H529   H     0.42536   0.75212   0.09061   0.00000  Uiso   1.00
O530   O     0.54170   0.95105   0.24079   0.00000  Uiso   1.00
C531   C     0.52424   0.95319   0.28634   0.00000  Uiso   1.00
H532   H     0.53416   0.92217   0.30779   0.00000  Uiso   1.00
H533   H     0.49023   0.95343   0.28253   0.00000  Uiso   1.00
H534   H     0.53603   0.98297   0.30838   0.00000  Uiso   1.00
O535   O     0.52232   0.71346   0.25156   0.00000  Uiso   1.00
C536   C     0.56414   0.72188   0.26302   0.00000  Uiso   1.00
H537   H     0.58343   0.69123   0.25732   0.00000  Uiso   1.00
H538   H     0.56841   0.73082   0.30251   0.00000  Uiso   1.00
H539   H     0.57460   0.75213   0.24268   0.00000  Uiso   1.00
O540   O     0.45828   0.95104   0.09257   0.00000  Uiso   1.00
C541   C     0.47573   0.95317   0.04700   0.00000  Uiso   1.00
H542   H     0.46580   0.92215   0.02556   0.00000  Uiso   1.00
H543   H     0.50974   0.95342   0.05080   0.00000  Uiso   1.00
H544   H     0.46393   0.98295   0.02496   0.00000  Uiso   1.00
O545   O     0.77321   0.87291   0.16666   0.00000  Uiso   1.00
O546   O     0.89345   0.79375   0.16667   0.00000  Uiso   1.00
O547   O     0.89345   0.87291   0.16667   0.00000  Uiso   1.00
O548   O     0.77321   0.79375   0.16666   0.00000  Uiso   1.00
C549   C     0.75413   0.83327   0.16732   0.00000  Uiso   1.00
C550   C     0.91253   0.83327   0.16594   0.00000  Uiso   1.00
O551   O     0.83333   0.87292   0.09613   0.00000  Uiso   1.00
O552   O     0.83333   0.79375   0.23720   0.00000  Uiso   1.00
O553   O     0.83333   0.87292   0.23720   0.00000  Uiso   1.00
O554   O     0.83333   0.79375   0.09613   0.00000  Uiso   1.00
C555   C     0.83324   0.83329   0.07362   0.00000  Uiso   1.00
C556   C     0.83342   0.83329   0.25971   0.00000  Uiso   1.00
Cu557  Cu    0.83333   0.88022   0.16667   0.00000  Uiso   1.00
Cu558  Cu    0.83333   0.78645   0.16667   0.00000  Uiso   1.00
C559   C     0.83332   0.83308   0.02184   0.00000  Uiso   1.00
C560   C     0.83334   0.83308   0.31149   0.00000  Uiso   1.00
C561   C     0.68807   0.79069   0.17086   0.00000  Uiso   1.00
C562   C     0.97920   0.87483   0.16983   0.00000  Uiso   1.00
C563   C     0.97856   0.79069   0.16238   0.00000  Uiso   1.00
C564   C     0.68746   0.87479   0.16284   0.00000  Uiso   1.00
C565   C     0.95729   0.83299   0.16572   0.00000  Uiso   1.00
C566   C     0.70937   0.83297   0.16737   0.00000  Uiso   1.00
C567   C     0.81759   0.69131   0.12647   0.00000  Uiso   1.00
C568   C     0.85144   0.97503   0.20537   0.00000  Uiso   1.00
C569   C     0.84907   0.69131   0.20687   0.00000  Uiso   1.00
C570   C     0.81522   0.97503   0.12797   0.00000  Uiso   1.00
N571   N     0.83333   0.95069   0.16667   0.00000  Uiso   1.00
N572   N     0.83333   0.71598   0.16667   0.00000  Uiso   1.00
O573   O     0.70723   0.75416   0.19619   0.00000  Uiso   1.00
C574   C     0.71288   0.71568   0.16574   0.00000  Uiso   1.00
H575   H     0.74591   0.70899   0.16515   0.00000  Uiso   1.00
H576   H     0.69915   0.71924   0.12750   0.00000  Uiso   1.00
H577   H     0.70018   0.68451   0.18273   0.00000  Uiso   1.00
O578   O     0.95980   0.91667   0.17592   0.00000  Uiso   1.00
C579   C     0.96815   0.93100   0.22493   0.00000  Uiso   1.00
H580   H     0.95508   0.90629   0.25090   0.00000  Uiso   1.00
H581   H     0.95367   0.96502   0.22965   0.00000  Uiso   1.00
H582   H     0.66808   0.93576   0.23431   0.00000  Uiso   1.00
O583   O     0.95941   0.75415   0.13706   0.00000  Uiso   1.00
C584   C     0.95371   0.71571   0.16754   0.00000  Uiso   1.00
H585   H     0.92067   0.70907   0.16816   0.00000  Uiso   1.00
H586   H     0.96746   0.71926   0.20577   0.00000  Uiso   1.00
H587   H     0.96636   0.68451   0.15053   0.00000  Uiso   1.00
O588   O     0.70682   0.91655   0.15614   0.00000  Uiso   1.00
C589   C     0.69873   0.93003   0.10682   0.00000  Uiso   1.00
H590   H     0.71293   0.90553   0.08161   0.00000  Uiso   1.00
H591   H     0.71224   0.96454   0.10187   0.00000  Uiso   1.00
H592   H     0.99880   0.93338   0.09662   0.00000  Uiso   1.00
O593   O     0.81097   0.71345   0.08179   0.00000  Uiso   1.00
C594   C     0.76914   0.72181   0.07035   0.00000  Uiso   1.00
H595   H     0.74987   0.69117   0.07620   0.00000  Uiso   1.00
H596   H     0.76483   0.73063   0.03084   0.00000  Uiso   1.00
H597   H     0.75870   0.75212   0.09061   0.00000  Uiso   1.00
O598   O     0.87503   0.95105   0.24079   0.00000  Uiso   1.00
C599   C     0.85757   0.95319   0.28634   0.00000  Uiso   1.00
H600   H     0.86749   0.92217   0.30779   0.00000  Uiso   1.00
H601   H     0.82357   0.95343   0.28253   0.00000  Uiso   1.00
H602   H     0.86937   0.98297   0.30838   0.00000  Uiso   1.00
O603   O     0.85566   0.71346   0.25156   0.00000  Uiso   1.00
C604   C     0.89748   0.72188   0.26302   0.00000  Uiso   1.00
H605   H     0.91676   0.69123   0.25732   0.00000  Uiso   1.00
H606   H     0.90175   0.73082   0.30251   0.00000  Uiso   1.00
H607   H     0.90794   0.75213   0.24268   0.00000  Uiso   1.00
O608   O     0.79162   0.95104   0.09257   0.00000  Uiso   1.00
C609   C     0.80906   0.95317   0.04700   0.00000  Uiso   1.00
H610   H     0.79913   0.92215   0.02556   0.00000  Uiso   1.00
H611   H     0.84307   0.95342   0.05080   0.00000  Uiso   1.00
H612   H     0.79727   0.98295   0.02496   0.00000  Uiso   1.00
O613   O     0.10655   0.20625   0.50000   0.00000  Uiso   1.00
O614   O     0.22679   0.12709   0.50000   0.00000  Uiso   1.00
O615   O     0.22679   0.20625   0.50000   0.00000  Uiso   1.00
O616   O     0.10655   0.12709   0.50000   0.00000  Uiso   1.00
C617   C     0.08746   0.16660   0.50065   0.00000  Uiso   1.00
C618   C     0.24587   0.16661   0.49927   0.00000  Uiso   1.00
O619   O     0.16667   0.20625   0.42946   0.00000  Uiso   1.00
O620   O     0.16667   0.12708   0.57054   0.00000  Uiso   1.00
O621   O     0.16667   0.20625   0.57054   0.00000  Uiso   1.00
O622   O     0.16667   0.12708   0.42946   0.00000  Uiso   1.00
C623   C     0.16657   0.16662   0.40696   0.00000  Uiso   1.00
C624   C     0.16676   0.16662   0.59304   0.00000  Uiso   1.00
Cu625  Cu    0.16667   0.21355   0.50000   0.00000  Uiso   1.00
Cu626  Cu    0.16667   0.11978   0.50000   0.00000  Uiso   1.00
C627   C     0.16665   0.16642   0.35518   0.00000  Uiso   1.00
C628   C     0.16668   0.16642   0.64482   0.00000  Uiso   1.00
C629   C     0.02141   0.12403   0.50419   0.00000  Uiso   1.00
C630   C     0.31254   0.20817   0.50317   0.00000  Uiso   1.00
C631   C     0.31189   0.12403   0.49572   0.00000  Uiso   1.00
C632   C     0.02079   0.20812   0.49618   0.00000  Uiso   1.00
C633   C     0.29062   0.16633   0.49905   0.00000  Uiso   1.00
C634   C     0.04270   0.16631   0.50070   0.00000  Uiso   1.00
C635   C     0.15093   0.02464   0.45980   0.00000  Uiso   1.00
C636   C     0.18477   0.30837   0.53870   0.00000  Uiso   1.00
C637   C     0.18240   0.02465   0.54020   0.00000  Uiso   1.00
C638   C     0.14856   0.30836   0.46130   0.00000  Uiso   1.00
N639   N     0.16667   0.28402   0.50000   0.00000  Uiso   1.00
N640   N     0.16667   0.04931   0.50000   0.00000  Uiso   1.00
O641   O     0.04056   0.08750   0.52952   0.00000  Uiso   1.00
C642   C     0.04621   0.04902   0.49907   0.00000  Uiso   1.00
H643   H     0.07924   0.04233   0.49848   0.00000  Uiso   1.00
H644   H     0.03248   0.05257   0.46083   0.00000  Uiso   1.00
H645   H     0.03351   0.01784   0.51607   0.00000  Uiso   1.00
O646   O     0.29313   0.25000   0.50926   0.00000  Uiso   1.00
C647   C     0.30148   0.26433   0.55827   0.00000  Uiso   1.00
H648   H     0.28841   0.23962   0.58424   0.00000  Uiso   1.00
H649   H     0.28700   0.29835   0.56298   0.00000  Uiso   1.00
H650   H     0.00141   0.26909   0.56765   0.00000  Uiso   1.00
O651   O     0.29274   0.08749   0.47040   0.00000  Uiso   1.00
C652   C     0.28704   0.04904   0.50087   0.00000  Uiso   1.00
H653   H     0.25401   0.04240   0.50149   0.00000  Uiso   1.00
H654   H     0.30080   0.05260   0.53910   0.00000  Uiso   1.00
H655   H     0.29969   0.01785   0.48387   0.00000  Uiso   1.00
O656   O     0.04015   0.24988   0.48948   0.00000  Uiso   1.00
C657   C     0.03206   0.26337   0.44016   0.00000  Uiso   1.00
H658   H     0.04627   0.23886   0.41495   0.00000  Uiso   1.00
H659   H     0.04557   0.29788   0.43521   0.00000  Uiso   1.00
H660   H     0.33213   0.26672   0.42996   0.00000  Uiso   1.00
O661   O     0.14431   0.04679   0.41513   0.00000  Uiso   1.00
C662   C     0.10247   0.05515   0.40369   0.00000  Uiso   1.00
H663   H     0.08321   0.02450   0.40953   0.00000  Uiso   1.00
H664   H     0.09816   0.06396   0.36417   0.00000  Uiso   1.00
H665   H     0.09203   0.08546   0.42395   0.00000  Uiso   1.00
O666   O     0.20837   0.28439   0.57412   0.00000  Uiso   1.00
C667   C     0.19091   0.28652   0.61967   0.00000  Uiso   1.00
H668   H     0.20083   0.25551   0.64112   0.00000  Uiso   1.00
H669   H     0.15690   0.28676   0.61586   0.00000  Uiso   1.00
H670   H     0.20270   0.31630   0.64171   0.00000  Uiso   1.00
O671   O     0.18899   0.04679   0.58489   0.00000  Uiso   1.00
C672   C     0.23081   0.05521   0.59636   0.00000  Uiso   1.00
H673   H     0.25010   0.02456   0.59065   0.00000  Uiso   1.00
H674   H     0.23508   0.06415   0.63585   0.00000  Uiso   1.00
H675   H     0.24127   0.08547   0.57602   0.00000  Uiso   1.00
O676   O     0.12495   0.28437   0.42590   0.00000  Uiso   1.00
C677   C     0.14240   0.28650   0.38033   0.00000  Uiso   1.00
H678   H     0.13246   0.25548   0.35889   0.00000  Uiso   1.00
H679   H     0.17640   0.28675   0.38413   0.00000  Uiso   1.00
H680   H     0.13060   0.31628   0.35830   0.00000  Uiso   1.00
O681   O     0.43988   0.20625   0.50000   0.00000  Uiso   1.00
O682   O     0.56012   0.12709   0.50000   0.00000  Uiso   1.00
O683   O     0.56012   0.20625   0.50000   0.00000  Uiso   1.00
O684   O     0.43988   0.12709   0.50000   0.00000  Uiso   1.00
C685   C     0.42080   0.16660   0.50065   0.00000  Uiso   1.00
C686   C     0.57920   0.16661   0.49927   0.00000  Uiso   1.00
O687   O     0.50000   0.20625   0.42946   0.00000  Uiso   1.00
O688   O     0.50000   0.12708   0.57054   0.00000  Uiso   1.00
O689   O     0.50000   0.20625   0.57054   0.00000  Uiso   1.00
O690   O     0.50000   0.12708   0.42946   0.00000  Uiso   1.00
C691   C     0.49991   0.16662   0.40696   0.00000  Uiso   1.00
C692   C     0.50009   0.16662   0.59304   0.00000  Uiso   1.00
Cu693  Cu    0.50000   0.21355   0.50000   0.00000  Uiso   1.00
Cu694  Cu    0.50000   0.11978   0.50000   0.00000  Uiso   1.00
C695   C     0.49999   0.16642   0.35518   0.00000  Uiso   1.00
C696   C     0.50001   0.16642   0.64482   0.00000  Uiso   1.00
C697   C     0.35474   0.12403   0.50419   0.00000  Uiso   1.00
C698   C     0.64587   0.20817   0.50317   0.00000  Uiso   1.00
C699   C     0.64523   0.12403   0.49572   0.00000  Uiso   1.00
C700   C     0.35412   0.20812   0.49618   0.00000  Uiso   1.00
C701   C     0.62396   0.16633   0.49905   0.00000  Uiso   1.00
C702   C     0.37603   0.16631   0.50070   0.00000  Uiso   1.00
C703   C     0.48426   0.02464   0.45980   0.00000  Uiso   1.00
C704   C     0.51810   0.30837   0.53870   0.00000  Uiso   1.00
C705   C     0.51573   0.02465   0.54020   0.00000  Uiso   1.00
C706   C     0.48189   0.30836   0.46130   0.00000  Uiso   1.00
N707   N     0.50000   0.28402   0.50000   0.00000  Uiso   1.00
N708   N     0.50000   0.04931   0.50000   0.00000  Uiso   1.00
O709   O     0.37389   0.08750   0.52952   0.00000  Uiso   1.00
C710   C     0.37955   0.04902   0.49907   0.00000  Uiso   1.00
H711   H     0.41258   0.04233   0.49848   0.00000  Uiso   1.00
H712   H     0.36582   0.05257   0.46083   0.00000  Uiso   1.00
H713   H     0.36684   0.01784   0.51607   0.00000  Uiso   1.00
O714   O     0.62646   0.25000   0.50926   0.00000  Uiso   1.00
C715   C     0.63481   0.26433   0.55827   0.00000  Uiso   1.00
H716   H     0.62175   0.23962   0.58424   0.00000  Uiso   1.00
H717   H     0.62033   0.29835   0.56298   0.00000  Uiso   1.00
H718   H     0.33475   0.26909   0.56765   0.00000  Uiso   1.00
O719   O     0.62607   0.08749   0.47040   0.00000  Uiso   1.00
C720   C     0.62038   0.04904   0.50087   0.00000  Uiso   1.00
H721   H     0.58734   0.04240   0.50149   0.00000  Uiso   1.00
H722   H     0.63413   0.05260   0.53910   0.00000  Uiso   1.00
H723   H     0.63302   0.01785   0.48387   0.00000  Uiso   1.00
O724   O     0.37349   0.24988   0.48948   0.00000  Uiso   1.00
C725   C     0.36540   0.26337   0.44016   0.00000  Uiso   1.00
H726   H     0.37960   0.23886   0.41495   0.00000  Uiso   1.00
H727   H     0.37890   0.29788   0.43521   0.00000  Uiso   1.00
H728   H     0.66547   0.26672   0.42996   0.00000  Uiso   1.00
O729   O     0.47764   0.04679   0.41513   0.00000  Uiso   1.00
C730   C     0.43581   0.05515   0.40369   0.00000  Uiso   1.00
H731   H     0.41654   0.02450   0.40953   0.00000  Uiso   1.00
H732   H     0.43149   0.06396   0.36417   0.00000  Uiso   1.00
H733   H     0.42536   0.08546   0.42395   0.00000  Uiso   1.00
O734   O     0.54170   0.28439   0.57412   0.00000  Uiso   1.00
C735   C     0.52424   0.28652   0.61967   0.00000  Uiso   1.00
H736   H     0.53416   0.25551   0.64112   0.00000  Uiso   1.00
H737   H     0.49023   0.28676   0.61586   0.00000  Uiso   1.00
H738   H     0.53603   0.31630   0.64171   0.00000  Uiso   1.00
O739   O     0.52232   0.04679   0.58489   0.00000  Uiso   1.00
C740   C     0.56414   0.05521   0.59636   0.00000  Uiso   1.00
H741   H     0.58343   0.02456   0.59065   0.00000  Uiso   1.00
H742   H     0.56841   0.06415   0.63585   0.00000  Uiso   1.00
H743   H     0.57460   0.08547   0.57602   0.00000  Uiso   1.00
O744   O     0.45828   0.28437   0.42590   0.00000  Uiso   1.00
C745   C     0.47573   0.28650   0.38033   0.00000  Uiso   1.00
H746   H     0.46580   0.25548   0.35889   0.00000  Uiso   1.00
H747   H     0.50974   0.28675   0.38413   0.00000  Uiso   1.00
H748   H     0.46393   0.31628   0.35830   0.00000  Uiso   1.00
O749   O     0.77321   0.20625   0.50000   0.00000  Uiso   1.00
O750   O     0.89345   0.12709   0.50000   0.00000  Uiso   1.00
O751   O     0.89345   0.20625   0.50000   0.00000  Uiso   1.00
O752   O     0.77321   0.12709   0.50000   0.00000  Uiso   1.00
C753   C     0.75413   0.16660   0.50065   0.00000  Uiso   1.00
C754   C     0.91253   0.16661   0.49927   0.00000  Uiso   1.00
O755   O     0.83333   0.20625   0.42946   0.00000  Uiso   1.00
O756   O     0.83333   0.12708   0.57054   0.00000  Uiso   1.00
O757   O     0.83333   0.20625   0.57054   0.00000  Uiso   1.00
O758   O     0.83333   0.12708   0.42946   0.00000  Uiso   1.00
C759   C     0.83324   0.16662   0.40696   0.00000  Uiso   1.00
C760   C     0.83342   0.16662   0.59304   0.00000  Uiso   1.00
Cu761  Cu    0.83333   0.21355   0.50000   0.00000  Uiso   1.00
Cu762  Cu    0.83333   0.11978   0.50000   0.00000  Uiso   1.00
C763   C     0.83332   0.16642   0.35518   0.00000  Uiso   1.00
C764   C     0.83334   0.16642   0.64482   0.00000  Uiso   1.00
C765   C     0.68807   0.12403   0.50419   0.00000  Uiso   1.00
C766   C     0.97920   0.20817   0.50317   0.00000  Uiso   1.00
C767   C     0.97856   0.12403   0.49572   0.00000  Uiso   1.00
C768   C     0.68746   0.20812   0.49618   0.00000  Uiso   1.00
C769   C     0.95729   0.16633   0.49905   0.00000  Uiso   1.00
C770   C     0.70937   0.16631   0.50070   0.00000  Uiso   1.00
C771   C     0.81759   0.02464   0.45980   0.00000  Uiso   1.00
C772   C     0.85144   0.30837   0.53870   0.00000  Uiso   1.00
C773   C     0.84907   0.02465   0.54020   0.00000  Uiso   1.00
C774   C     0.81522   0.30836   0.46130   0.00000  Uiso   1.00
N775   N     0.83333   0.28402   0.50000   0.00000  Uiso   1.00
N776   N     0.83333   0.04931   0.50000   0.00000  Uiso   1.00
O777   O     0.70723   0.08750   0.52952   0.00000  Uiso   1.00
C778   C     0.71288   0.04902   0.49907   0.00000  Uiso   1.00
H779   H     0.74591   0.04233   0.49848   0.00000  Uiso   1.00
H780   H     0.69915   0.05257   0.46083   0.00000  Uiso   1.00
H781   H     0.70018   0.01784   0.51607   0.00000  Uiso   1.00
O782   O     0.95980   0.25000   0.50926   0.00000  Uiso   1.00
C783   C     0.96815   0.26433   0.55827   0.00000  Uiso   1.00
H784   H     0.95508   0.23962   0.58424   0.00000  Uiso   1.00
H785   H     0.95367   0.29835   0.56298   0.00000  Uiso   1.00
H786   H     0.66808   0.26909   0.56765   0.00000  Uiso   1.00
O787   O     0.95941   0.08749   0.47040   0.00000  Uiso   1.00
C788   C     0.95371   0.04904   0.50087   0.00000  Uiso   1.00
H789   H     0.92067   0.04240   0.50149   0.00000  Uiso   1.00
H790   H     0.96746   0.05260   0.53910   0.00000  Uiso   1.00
H791   H     0.96636   0.01785   0.48387   0.00000  Uiso   1.00
O792   O     0.70682   0.24988   0.48948   0.00000  Uiso   1.00
C793   C     0.69873   0.26337   0.44016   0.00000  Uiso   1.00
H794   H     0.71293   0.23886   0.41495   0.00000  Uiso   1.00
H795   H     0.71224   0.29788   0.43521   0.00000  Uiso   1.00
H796   H     0.99880   0.26672   0.42996   0.00000  Uiso   1.00
O797   O     0.81097   0.04679   0.41513   0.00000  Uiso   1.00
C798   C     0.76914   0.05515   0.40369   0.00000  Uiso   1.00
H799   H     0.74987   0.02450   0.40953   0.00000  Uiso   1.00
H800   H     0.76483   0.06396   0.36417   0.00000  Uiso   1.00
H801   H     0.75870   0.08546   0.42395   0.00000  Uiso   1.00
O802   O     0.87503   0.28439   0.57412   0.00000  Uiso   1.00
C803   C     0.85757   0.28652   0.61967   0.00000  Uiso   1.00
H804   H     0.86749   0.25551   0.64112   0.00000  Uiso   1.00
H805   H     0.82357   0.28676   0.61586   0.00000  Uiso   1.00
H806   H     0.86937   0.31630   0.64171   0.00000  Uiso   1.00
O807   O     0.85566   0.04679   0.58489   0.00000  Uiso   1.00
C808   C     0.89748   0.05521   0.59636   0.00000  Uiso   1.00
H809   H     0.91676   0.02456   0.59065   0.00000  Uiso   1.00
H810   H     0.90175   0.06415   0.63585   0.00000  Uiso   1.00
H811   H     0.90794   0.08547   0.57602   0.00000  Uiso   1.00
O812   O     0.79162   0.28437   0.42590   0.00000  Uiso   1.00
C813   C     0.80906   0.28650   0.38033   0.00000  Uiso   1.00
H814   H     0.79913   0.25548   0.35889   0.00000  Uiso   1.00
H815   H     0.84307   0.28675   0.38413   0.00000  Uiso   1.00
H816   H     0.79727   0.31628   0.35830   0.00000  Uiso   1.00
O817   O     0.10655   0.53958   0.50000   0.00000  Uiso   1.00
O818   O     0.22679   0.46042   0.50000   0.00000  Uiso   1.00
O819   O     0.22679   0.53958   0.50000   0.00000  Uiso   1.00
O820   O     0.10655   0.46042   0.50000   0.00000  Uiso   1.00
C821   C     0.08746   0.49993   0.50065   0.00000  Uiso   1.00
C822   C     0.24587   0.49994   0.49927   0.00000  Uiso   1.00
O823   O     0.16667   0.53959   0.42946   0.00000  Uiso   1.00
O824   O     0.16667   0.46041   0.57054   0.00000  Uiso   1.00
O825   O     0.16667   0.53959   0.57054   0.00000  Uiso   1.00
O826   O     0.16667   0.46041   0.42946   0.00000  Uiso   1.00
C827   C     0.16657   0.49995   0.40696   0.00000  Uiso   1.00
C828   C     0.16676   0.49995   0.59304   0.00000  Uiso   1.00
Cu829  Cu    0.16667   0.54689   0.50000   0.00000  Uiso   1.00
Cu830  Cu    0.16667   0.45311   0.50000   0.00000  Uiso   1.00
C831   C     0.16665   0.49975   0.35518   0.00000  Uiso   1.00
C832   C     0.16668   0.49975   0.64482   0.00000  Uiso   1.00
C833   C     0.02141   0.45736   0.50419   0.00000  Uiso   1.00
C834   C     0.31254   0.54150   0.50317   0.00000  Uiso   1.00
C835   C     0.31189   0.45736   0.49572   0.00000  Uiso   1.00
C836   C     0.02079   0.54145   0.49618   0.00000  Uiso   1.00
C837   C     0.29062   0.49966   0.49905   0.00000  Uiso   1.00
C838   C     0.04270   0.49964   0.50070   0.00000  Uiso   1.00
C839   C     0.15093   0.35797   0.45980   0.00000  Uiso   1.00
C840   C     0.18477   0.64170   0.53870   0.00000  Uiso   1.00
C841   C     0.18240   0.35798   0.54020   0.00000  Uiso   1.00
C842   C     0.14856   0.64169   0.46130   0.00000  Uiso   1.00
N843   N     0.16667   0.61736   0.50000   0.00000  Uiso   1.00
N844   N     0.16667   0.38264   0.50000   0.00000  Uiso   1.00
O845   O     0.04056   0.42083   0.52952   0.00000  Uiso   1.00
C846   C     0.04621   0.38235   0.49907   0.00000  Uiso   1.00
H847   H     0.07924   0.37566   0.49848   0.00000  Uiso   1.00
H848   H     0.03248   0.38591   0.46083   0.00000  Uiso   1.00
H849   H     0.03351   0.35118   0.51607   0.00000  Uiso   1.00
O850   O     0.29313   0.58334   0.50926   0.00000  Uiso   1.00
C851   C     0.30148   0.59767   0.55827   0.00000  Uiso   1.00
H852   H     0.28841   0.57295   0.58424   0.00000  Uiso   1.00
H853   H     0.28700   0.63169   0.56298   0.00000  Uiso   1.00
H854   H     0.00141   0.60243   0.56765   0.00000  Uiso   1.00
O855   O     0.29274   0.42082   0.47040   0.00000  Uiso   1.00
C856   C     0.28704   0.38238   0.50087   0.00000  Uiso   1.00
H857   H     0.25401   0.37574   0.50149   0.00000  Uiso   1.00
H858   H     0.30080   0.38593   0.53910   0.00000  Uiso   1.00
H859   H     0.29969   0.35118   0.48387   0.00000  Uiso   1.00
O860   O     0.04015   0.58322   0.48948   0.00000  Uiso   1.00
C861   C     0.03206   0.59670   0.44016   0.00000  Uiso   1.00
H862   H     0.04627   0.57220   0.41495   0.00000  Uiso   1.00
H863   H     0.04557   0.63121   0.43521   0.00000  Uiso   1.00
H864   H     0.33213   0.60005   0.42996   0.00000  Uiso   1.00
O865   O     0.14431   0.38012   0.41513   0.00000  Uiso   1.00
C866   C     0.10247   0.38848   0.40369   0.00000  Uiso   1.00
H867   H     0.08321   0.35784   0.40953   0.00000  Uiso   1.00
H868   H     0.09816   0.39730   0.36417   0.00000  Uiso   1.00
H869   H     0.09203   0.41879   0.42395   0.00000  Uiso   1.00
O870   O     0.20837   0.61772   0.57412   0.00000  Uiso   1.00
C871   C     0.19091   0.61985   0.61967   0.00000  Uiso   1.00
H872   H     0.20083   0.58884   0.64112   0.00000  Uiso   1.00
H873   H     0.15690   0.62010   0.61586   0.00000  Uiso   1.00
H874   H     0.20270   0.64964   0.64171   0.00000  Uiso   1.00
O875   O     0.18899   0.38012   0.58489   0.00000  Uiso   1.00
C876   C     0.23081   0.38855   0.59636   0.00000  Uiso   1.00
H877   H     0.25010   0.35789   0.59065   0.00000  Uiso   1.00
H878   H     0.23508   0.39748   0.63585   0.00000  Uiso   1.00
H879   H     0.24127   0.41880   0.57602   0.00000  Uiso   1.00
O880   O     0.12495   0.61771   0.42590   0.00000  Uiso   1.00
C881   C     0.14240   0.61984   0.38033   0.00000  Uiso   1.00
H882   H     0.13246   0.58882   0.35889   0.00000  Uiso   1.00
H883   H     0.17640   0.62009   0.38413   0.00000  Uiso   1.00
H884   H     0.13060   0.64961   0.35830   0.00000  Uiso   1.00
O885   O     0.43988   0.53958   0.50000   0.00000  Uiso   1.00
O886   O     0.56012   0.46042   0.50000   0.00000  Uiso   1.00
O887   O     0.56012   0.53958   0.50000   0.00000  Uiso   1.00
O888   O     0.43988   0.46042   0.50000   0.00000  Uiso   1.00
C889   C     0.42080   0.49993   0.50065   0.00000  Uiso   1.00
C890   C     0.57920   0.49994   0.49927   0.00000  Uiso   1.00
O891   O     0.50000   0.53959   0.42946   0.00000  Uiso   1.00
O892   O     0.50000   0.46041   0.57054   0.00000  Uiso   1.00
O893   O     0.50000   0.53959   0.57054   0.00000  Uiso   1.00
O894   O     0.50000   0.46041   0.42946   0.00000  Uiso   1.00
C895   C     0.49991   0.49995   0.40696   0.00000  Uiso   1.00
C896   C     0.50009   0.49995   0.59304   0.00000  Uiso   1.00
Cu897  Cu    0.50000   0.54689   0.50000   0.00000  Uiso   1.00
Cu898  Cu    0.50000   0.45311   0.50000   0.00000  Uiso   1.00
C899   C     0.49999   0.49975   0.35518   0.00000  Uiso   1.00
C900   C     0.50001   0.49975   0.64482   0.00000  Uiso   1.00
C901   C     0.35474   0.45736   0.50419   0.00000  Uiso   1.00
C902   C     0.64587   0.54150   0.50317   0.00000  Uiso   1.00
C903   C     0.64523   0.45736   0.49572   0.00000  Uiso   1.00
C904   C     0.35412   0.54145   0.49618   0.00000  Uiso   1.00
C905   C     0.62396   0.49966   0.49905   0.00000  Uiso   1.00
C906   C     0.37603   0.49964   0.50070   0.00000  Uiso   1.00
C907   C     0.48426   0.35797   0.45980   0.00000  Uiso   1.00
C908   C     0.51810   0.64170   0.53870   0.00000  Uiso   1.00
C909   C     0.51573   0.35798   0.54020   0.00000  Uiso   1.00
C910   C     0.48189   0.64169   0.46130   0.00000  Uiso   1.00
N911   N     0.50000   0.61736   0.50000   0.00000  Uiso   1.00
N912   N     0.50000   0.38264   0.50000   0.00000  Uiso   1.00
O913   O     0.37389   0.42083   0.52952   0.00000  Uiso   1.00
C914   C     0.37955   0.38235   0.49907   0.00000  Uiso   1.00
H915   H     0.41258   0.37566   0.49848   0.00000  Uiso   1.00
H916   H     0.36582   0.38591   0.46083   0.00000  Uiso   1.00
H917   H     0.36684   0.35118   0.51607   0.00000  Uiso   1.00
O918   O     0.62646   0.58334   0.50926   0.00000  Uiso   1.00
C919   C     0.63481   0.59767   0.55827   0.00000  Uiso   1.00
H920   H     0.62175   0.57295   0.58424   0.00000  Uiso   1.00
H921   H     0.62033   0.63169   0.56298   0.00000  Uiso   1.00
H922   H     0.33475   0.60243   0.56765   0.00000  Uiso   1.00
O923   O     0.62607   0.42082   0.47040   0.00000  Uiso   1.00
C924   C     0.62038   0.38238   0.50087   0.00000  Uiso   1.00
H925   H     0.58734   0.37574   0.50149   0.00000  Uiso   1.00
H926   H     0.63413   0.38593   0.53910   0.00000  Uiso   1.00
H927   H     0.63302   0.35118   0.48387   0.00000  Uiso   1.00
O928   O     0.37349   0.58322   0.48948   0.00000  Uiso   1.00
C929   C     0.36540   0.59670   0.44016   0.00000  Uiso   1.00
H930   H     0.37960   0.57220   0.41495   0.00000  Uiso   1.00
H931   H     0.37890   0.63121   0.43521   0.00000  Uiso   1.00
H932   H     0.66547   0.60005   0.42996   0.00000  Uiso   1.00
O933   O     0.47764   0.38012   0.41513   0.00000  Uiso   1.00
C934   C     0.43581   0.38848   0.40369   0.00000  Uiso   1.00
H935   H     0.41654   0.35784   0.40953   0.00000  Uiso   1.00
H936   H     0.43149   0.39730   0.36417   0.00000  Uiso   1.00
H937   H     0.42536   0.41879   0.42395   0.00000  Uiso   1.00
O938   O     0.54170   0.61772   0.57412   0.00000  Uiso   1.00
C939   C     0.52424   0.61985   0.61967   0.00000  Uiso   1.00
H940   H     0.53416   0.58884   0.64112   0.00000  Uiso   1.00
H941   H     0.49023   0.62010   0.61586   0.00000  Uiso   1.00
H942   H     0.53603   0.64964   0.64171   0.00000  Uiso   1.00
O943   O     0.52232   0.38012   0.58489   0.00000  Uiso   1.00
C944   C     0.56414   0.38855   0.59636   0.00000  Uiso   1.00
H945   H     0.58343   0.35789   0.59065   0.00000  Uiso   1.00
H946   H     0.56841   0.39748   0.63585   0.00000  Uiso   1.00
H947   H     0.57460   0.41880   0.57602   0.00000  Uiso   1.00
O948   O     0.45828   0.61771   0.42590   0.00000  Uiso   1.00
C949   C     0.47573   0.61984   0.38033   0.00000  Uiso   1.00
H950   H     0.46580   0.58882   0.35889   0.00000  Uiso   1.00
H951   H     0.50974   0.62009   0.38413   0.00000  Uiso   1.00
H952   H     0.46393   0.64961   0.35830   0.00000  Uiso   1.00
O953   O     0.77321   0.53958   0.50000   0.00000  Uiso   1.00
O954   O     0.89345   0.46042   0.50000   0.00000  Uiso   1.00
O955   O     0.89345   0.53958   0.50000   0.00000  Uiso   1.00
O956   O     0.77321   0.46042   0.50000   0.00000  Uiso   1.00
C957   C     0.75413   0.49993   0.50065   0.00000  Uiso   1.00
C958   C     0.91253   0.49994   0.49927   0.00000  Uiso   1.00
O959   O     0.83333   0.53959   0.42946   0.00000  Uiso   1.00
O960   O     0.83333   0.46041   0.57054   0.00000  Uiso   1.00
O961   O     0.83333   0.53959   0.57054   0.00000  Uiso   1.00
O962   O     0.83333   0.46041   0.42946   0.00000  Uiso   1.00
C963   C     0.83324   0.49995   0.40696   0.00000  Uiso   1.00
C964   C     0.83342   0.49995   0.59304   0.00000  Uiso   1.00
Cu965  Cu    0.83333   0.54689   0.50000   0.00000  Uiso   1.00
Cu966  Cu    0.83333   0.45311   0.50000   0.00000  Uiso   1.00
C967   C     0.83332   0.49975   0.35518   0.00000  Uiso   1.00
C968   C     0.83334   0.49975   0.64482   0.00000  Uiso   1.00
C969   C     0.68807   0.45736   0.50419   0.00000  Uiso   1.00
C970   C     0.97920   0.54150   0.50317   0.00000  Uiso   1.00
C971   C     0.97856   0.45736   0.49572   0.00000  Uiso   1.00
C972   C     0.68746   0.54145   0.49618   0.00000  Uiso   1.00
C973   C     0.95729   0.49966   0.49905   0.00000  Uiso   1.00
C974   C     0.70937   0.49964   0.50070   0.00000  Uiso   1.00
C975   C     0.81759   0.35797   0.45980   0.00000  Uiso   1.00
C976   C     0.85144   0.64170   0.53870   0.00000  Uiso   1.00
C977   C     0.84907   0.35798   0.54020   0.00000  Uiso   1.00
C978   C     0.81522   0.64169   0.46130   0.00000  Uiso   1.00
N979   N     0.83333   0.61736   0.50000   0.00000  Uiso   1.00
N980   N     0.83333   0.38264   0.50000   0.00000  Uiso   1.00
O981   O     0.70723   0.42083   0.52952   0.00000  Uiso   1.00
C982   C     0.71288   0.38235   0.49907   0.00000  Uiso   1.00
H983   H     0.74591   0.37566   0.49848   0.00000  Uiso   1.00
H984   H     0.69915   0.38591   0.46083   0.00000  Uiso   1.00
H985   H     0.70018   0.35118   0.51607   0.00000  Uiso   1.00
O986   O     0.95980   0.58334   0.50926   0.00000  Uiso   1.00
C987   C     0.96815   0.59767   0.55827   0.00000  Uiso   1.00
H988   H     0.95508   0.57295   0.58424   0.00000  Uiso   1.00
H989   H     0.95367   0.63169   0.56298   0.00000  Uiso   1.00
H990   H     0.66808   0.60243   0.56765   0.00000  Uiso   1.00
O991   O     0.95941   0.42082   0.47040   0.00000  Uiso   1.00
C992   C     0.95371   0.38238   0.50087   0.00000  Uiso   1.00
H993   H     0.92067   0.37574   0.50149   0.00000  Uiso   1.00
H994   H     0.96746   0.38593   0.53910   0.00000  Uiso   1.00
H995   H     0.96636   0.35118   0.48387   0.00000  Uiso   1.00
O996   O     0.70682   0.58322   0.48948   0.00000  Uiso   1.00
C997   C     0.69873   0.59670   0.44016   0.00000  Uiso   1.00
H998   H     0.71293   0.57220   0.41495   0.00000  Uiso   1.00
H999   H     0.71224   0.63121   0.43521   0.00000  Uiso   1.00
H1000  H     0.99880   0.60005   0.42996   0.00000  Uiso   1.00
O1001  O     0.81097   0.38012   0.41513   0.00000  Uiso   1.00
C1002  C     0.76914   0.38848   0.40369   0.00000  Uiso   1.00
H1003  H     0.74987   0.35784   0.40953   0.00000  Uiso   1.00
H1004  H     0.76483   0.39730   0.36417   0.00000  Uiso   1.00
H1005  H     0.75870   0.41879   0.42395   0.00000  Uiso   1.00
O1006  O     0.87503   0.61772   0.57412   0.00000  Uiso   1.00
C1007  C     0.85757   0.61985   0.61967   0.00000  Uiso   1.00
H1008  H     0.86749   0.58884   0.64112   0.00000  Uiso   1.00
H1009  H     0.82357   0.62010   0.61586   0.00000  Uiso   1.00
H1010  H     0.86937   0.64964   0.64171   0.00000  Uiso   1.00
O1011  O     0.85566   0.38012   0.58489   0.00000  Uiso   1.00
C1012  C     0.89748   0.38855   0.59636   0.00000  Uiso   1.00
H1013  H     0.91676   0.35789   0.59065   0.00000  Uiso   1.00
H1014  H     0.90175   0.39748   0.63585   0.00000  Uiso   1.00
H1015  H     0.90794   0.41880   0.57602   0.00000  Uiso   1.00
O1016  O     0.79162   0.61771   0.42590   0.00000  Uiso   1.00
C1017  C     0.80906   0.61984   0.38033   0.00000  Uiso   1.00
H1018  H     0.79913   0.58882   0.35889   0.00000  Uiso   1.00
H1019  H     0.84307   0.62009   0.38413   0.00000  Uiso   1.00
H1020  H     0.79727   0.64961   0.35830   0.00000  Uiso   1.00
O1021  O     0.10655   0.87291   0.50000   0.00000  Uiso   1.00
O1022  O     0.22679   0.79375   0.50000   0.00000  Uiso   1.00
O1023  O     0.22679   0.87291   0.50000   0.00000  Uiso   1.00
O1024  O     0.10655   0.79375   0.50000   0.00000  Uiso   1.00
C1025  C     0.08746   0.83327   0.50065   0.00000  Uiso   1.00
C1026  C     0.24587   0.83327   0.49927   0.00000  Uiso   1.00
O1027  O     0.16667   0.87292   0.42946   0.00000  Uiso   1.00
O1028  O     0.16667   0.79375   0.57054   0.00000  Uiso   1.00
O1029  O     0.16667   0.87292   0.57054   0.00000  Uiso   1.00
O1030  O     0.16667   0.79375   0.42946   0.00000  Uiso   1.00
C1031  C     0.16657   0.83329   0.40696   0.00000  Uiso   1.00
C1032  C     0.16676   0.83329   0.59304   0.00000  Uiso   1.00
Cu1033 Cu    0.16667   0.88022   0.50000   0.00000  Uiso   1.00
Cu1034 Cu    0.16667   0.78645   0.50000   0.00000  Uiso   1.00
C1035  C     0.16665   0.83308   0.35518   0.00000  Uiso   1.00
C1036  C     0.16668   0.83308   0.64482   0.00000  Uiso   1.00
C1037  C     0.02141   0.79069   0.50419   0.00000  Uiso   1.00
C1038  C     0.31254   0.87483   0.50317   0.00000  Uiso   1.00
C1039  C     0.31189   0.79069   0.49572   0.00000  Uiso   1.00
C1040  C     0.02079   0.87479   0.49618   0.00000  Uiso   1.00
C1041  C     0.29062   0.83299   0.49905   0.00000  Uiso   1.00
C1042  C     0.04270   0.83297   0.50070   0.00000  Uiso   1.00
C1043  C     0.15093   0.69131   0.45980   0.00000  Uiso   1.00
C1044  C     0.18477   0.97503   0.53870   0.00000  Uiso   1.00
C1045  C     0.18240   0.69131   0.54020   0.00000  Uiso   1.00
C1046  C     0.14856   0.97503   0.46130   0.00000  Uiso   1.00
N1047  N     0.16667   0.95069   0.50000   0.00000  Uiso   1.00
N1048  N     0.16667   0.71598   0.50000   0.00000  Uiso   1.00
O1049  O     0.04056   0.75416   0.52952   0.00000  Uiso   1.00
C1050  C     0.04621   0.71568   0.49907   0.00000  Uiso   1.00
H1051  H     0.07924   0.70899   0.49848   0.00000  Uiso   1.00
H1052  H     0.03248   0.71924   0.46083   0.00000  Uiso   1.00
H1053  H     0.03351   0.68451   0.51607   0.00000  Uiso   1.00
O1054  O     0.29313   0.91667   0.50926   0.00000  Uiso   1.00
C1055  C     0.30148   0.93100   0.55827   0.00000  Uiso   1.00
H1056  H     0.28841   0.90629   0.58424   0.00000  Uiso   1.00
H1057  H     0.28700   0.96502   0.56298   0.00000  Uiso   1.00
H1058  H     0.00141   0.93576   0.56765   0.00000  Uiso   1.00
O1059  O     0.29274   0.75415   0.47040   0.00000  Uiso   1.00
C1060  C     0.28704   0.71571   0.50087   0.00000  Uiso   1.00
H1061  H     0.25401   0.70907   0.50149   0.00000  Uiso   1.00
H1062  H     0.30080   0.71926   0.53910   0.00000  Uiso   1.00
H1063  H     0.29969   0.68451   0.48387   0.00000  Uiso   1.00
O1064  O     0.04015   0.91655   0.48948   0.00000  Uiso   1.00
C1065  C     0.03206   0.93003   0.44016   0.00000  Uiso   1.00
H1066  H     0.04627   0.90553   0.41495   0.00000  Uiso   1.00
H1067  H     0.04557   0.96454   0.43521   0.00000  Uiso   1.00
H1068  H     0.33213   0.93338   0.42996   0.00000  Uiso   1.00
O1069  O     0.14431   0.71345   0.41513   0.00000  Uiso   1.00
C1070  C     0.10247   0.72181   0.40369   0.00000  Uiso   1.00
H1071  H     0.08321   0.69117   0.40953   0.00000  Uiso   1.00
H1072  H     0.09816   0.73063   0.36417   0.00000  Uiso   1.00
H1073  H     0.09203   0.75212   0.42395   0.00000  Uiso   1.00
O1074  O     0.20837   0.95105   0.57412   0.00000  Uiso   1.00
C1075  C     0.19091   0.95319   0.61967   0.00000  Uiso   1.00
H1076  H     0.20083   0.92217   0.64112   0.00000  Uiso   1.00
H1077  H     0.15690   0.95343   0.61586   0.00000  Uiso   1.00
H1078  H     0.20270   0.98297   0.64171   0.00000  Uiso   1.00
O1079  O     0.18899   0.71346   0.58489   0.00000  Uiso   1.00
C1080  C     0.23081   0.72188   0.59636   0.00000  Uiso   1.00
H1081  H     0.25010   0.69123   0.59065   0.00000  Uiso   1.00
H1082  H     0.23508   0.73082   0.63585   0.00000  Uiso   1.00
H1083  H     0.24127   0.75213   0.57602   0.00000  Uiso   1.00
O1084  O     0.12495   0.95104   0.42590   0.00000  Uiso   1.00
C1085  C     0.14240   0.95317   0.38033   0.00000  Uiso   1.00
H1086  H     0.13246   0.92215   0.35889   0.00000  Uiso   1.00
H1087  H     0.17640   0.95342   0.38413   0.00000  Uiso   1.00
H1088  H     0.13060   0.98295   0.35830   0.00000  Uiso   1.00
O1089  O     0.43988   0.87291   0.50000   0.00000  Uiso   1.00
O1090  O     0.56012   0.79375   0.50000   0.00000  Uiso   1.00
O1091  O     0.56012   0.87291   0.50000   0.00000  Uiso   1.00
O1092  O     0.43988   0.79375   0.50000   0.00000  Uiso   1.00
C1093  C     0.42080   0.83327   0.50065   0.00000  Uiso   1.00
C1094  C     0.57920   0.83327   0.49927   0.00000  Uiso   1.00
O1095  O     0.50000   0.87292   0.42946   0.00000  Uiso   1.00
O1096  O     0.50000   0.79375   0.57054   0.00000  Uiso   1.00
O1097  O     0.50000   0.87292   0.57054   0.00000  Uiso   1.00
O1098  O     0.50000   0.79375   0.42946   0.00000  Uiso   1.00
C1099  C     0.49991   0.83329   0.40696   0.00000  Uiso   1.00
C1100  C     0.50009   0.83329   0.59304   0.00000  Uiso   1.00
Cu1101 Cu    0.50000   0.88022   0.50000   0.00000  Uiso   1.00
Cu1102 Cu    0.50000   0.78645   0.50000   0.00000  Uiso   1.00
C1103  C     0.49999   0.83308   0.35518   0.00000  Uiso   1.00
C1104  C     0.50001   0.83308   0.64482   0.00000  Uiso   1.00
C1105  C     0.35474   0.79069   0.50419   0.00000  Uiso   1.00
C1106  C     0.64587   0.87483   0.50317   0.00000  Uiso   1.00
C1107  C     0.64523   0.79069   0.49572   0.00000  Uiso   1.00
C1108  C     0.35412   0.87479   0.49618   0.00000  Uiso   1.00
C1109  C     0.62396   0.83299   0.49905   0.00000  Uiso   1.00
C1110  C     0.37603   0.83297   0.50070   0.00000  Uiso   1.00
C1111  C     0.48426   0.69131   0.45980   0.00000  Uiso   1.00
C1112  C     0.51810   0.97503   0.53870   0.00000  Uiso   1.00
C1113  C     0.51573   0.69131   0.54020   0.00000  Uiso   1.00
C1114  C     0.48189   0.97503   0.46130   0.00000  Uiso   1.00
N1115  N     0.50000   0.95069   0.50000   0.00000  Uiso   1.00
N1116  N     0.50000   0.71598   0.50000   0.00000  Uiso   1.00
O1117  O     0.37389   0.75416   0.52952   0.00000  Uiso   1.00
C1118  C     0.37955   0.71568   0.49907   0.00000  Uiso   1.00
H1119  H     0.41258   0.70899   0.49848   0.00000  Uiso   1.00
H1120  H     0.36582   0.71924   0.46083   0.00000  Uiso   1.00
H1121  H     0.36684   0.68451   0.51607   0.00000  Uiso   1.00
O1122  O     0.62646   0.91667   0.50926   0.00000  Uiso   1.00
C1123  C     0.63481   0.93100   0.55827   0.00000  Uiso   1.00
H1124  H     0.62175   0.90629   0.58424   0.00000  Uiso   1.00
H1125  H     0.62033   0.96502   0.56298   0.00000  Uiso   1.00
H1126  H     0.33475   0.93576   0.56765   0.00000  Uiso   1.00
O1127  O     0.62607   0.75415   0.47040   0.00000  Uiso   1.00
C1128  C     0.62038   0.71571   0.50087   0.00000  Uiso   1.00
H1129  H     0.58734   0.70907   0.50149   0.00000  Uiso   1.00
H1130  H     0.63413   0.71926   0.53910   0.00000  Uiso   1.00
H1131  H     0.63302   0.68451   0.48387   0.00000  Uiso   1.00
O1132  O     0.37349   0.91655   0.48948   0.00000  Uiso   1.00
C1133  C     0.36540   0.93003   0.44016   0.00000  Uiso   1.00
H1134  H     0.37960   0.90553   0.41495   0.00000  Uiso   1.00
H1135  H     0.37890   0.96454   0.43521   0.00000  Uiso   1.00
H1136  H     0.66547   0.93338   0.42996   0.00000  Uiso   1.00
O1137  O     0.47764   0.71345   0.41513   0.00000  Uiso   1.00
C1138  C     0.43581   0.72181   0.40369   0.00000  Uiso   1.00
H1139  H     0.41654   0.69117   0.40953   0.00000  Uiso   1.00
H1140  H     0.43149   0.73063   0.36417   0.00000  Uiso   1.00
H1141  H     0.42536   0.75212   0.42395   0.00000  Uiso   1.00
O1142  O     0.54170   0.95105   0.57412   0.00000  Uiso   1.00
C1143  C     0.52424   0.95319   0.61967   0.00000  Uiso   1.00
H1144  H     0.53416   0.92217   0.64112   0.00000  Uiso   1.00
H1145  H     0.49023   0.95343   0.61586   0.00000  Uiso   1.00
H1146  H     0.53603   0.98297   0.64171   0.00000  Uiso   1.00
O1147  O     0.52232   0.71346   0.58489   0.00000  Uiso   1.00
C1148  C     0.56414   0.72188   0.59636   0.00000  Uiso   1.00
H1149  H     0.58343   0.69123   0.59065   0.00000  Uiso   1.00
H1150  H     0.56841   0.73082   0.63585   0.00000  Uiso   1.00
H1151  H     0.57460   0.75213   0.57602   0.00000  Uiso   1.00
O1152  O     0.45828   0.95104   0.42590   0.00000  Uiso   1.00
C1153  C     0.47573   0.95317   0.38033   0.00000  Uiso   1.00
H1154  H     0.46580   0.92215   0.35889   0.00000  Uiso   1.00
H1155  H     0.50974   0.95342   0.38413   0.00000  Uiso   1.00
H1156  H     0.46393   0.98295   0.35830   0.00000  Uiso   1.00
O1157  O     0.77321   0.87291   0.50000   0.00000  Uiso   1.00
O1158  O     0.89345   0.79375   0.50000   0.00000  Uiso   1.00
O1159  O     0.89345   0.87291   0.50000   0.00000  Uiso   1.00
O1160  O     0.77321   0.79375   0.50000   0.00000  Uiso   1.00
C1161  C     0.75413   0.83327   0.50065   0.00000  Uiso   1.00
C1162  C     0.91253   0.83327   0.49927   0.00000  Uiso   1.00
O1163  O     0.83333   0.87292   0.42946   0.00000  Uiso   1.00
O1164  O     0.83333   0.79375   0.57054   0.00000  Uiso   1.00
O1165  O     0.83333   0.87292   0.57054   0.00000  Uiso   1.00
O1166  O     0.83333   0.79375   0.42946   0.00000  Uiso   1.00
C1167  C     0.83324   0.83329   0.40696   0.00000  Uiso   1.00
C1168  C     0.83342   0.83329   0.59304   0.00000  Uiso   1.00
Cu1169 Cu    0.83333   0.88022   0.50000   0.00000  Uiso   1.00
Cu1170 Cu    0.83333   0.78645   0.50000   0.00000  Uiso   1.00
C1171  C     0.83332   0.83308   0.35518   0.00000  Uiso   1.00
C1172  C     0.83334   0.83308   0.64482   0.00000  Uiso   1.00
C1173  C     0.68807   0.79069   0.50419   0.00000  Uiso   1.00
C1174  C     0.97920   0.87483   0.50317   0.00000  Uiso   1.00
C1175  C     0.97856   0.79069   0.49572   0.00000  Uiso   1.00
C1176  C     0.68746   0.87479   0.49618   0.00000  Uiso   1.00
C1177  C     0.95729   0.83299   0.49905   0.00000  Uiso   1.00
C1178  C     0.70937   0.83297   0.50070   0.00000  Uiso   1.00
C1179  C     0.81759   0.69131   0.45980   0.00000  Uiso   1.00
C1180  C     0.85144   0.97503   0.53870   0.00000  Uiso   1.00
C1181  C     0.84907   0.69131   0.54020   0.00000  Uiso   1.00
C1182  C     0.81522   0.97503   0.46130   0.00000  Uiso   1.00
N1183  N     0.83333   0.95069   0.50000   0.00000  Uiso   1.00
N1184  N     0.83333   0.71598   0.50000   0.00000  Uiso   1.00
O1185  O     0.70723   0.75416   0.52952   0.00000  Uiso   1.00
C1186  C     0.71288   0.71568   0.49907   0.00000  Uiso   1.00
H1187  H     0.74591   0.70899   0.49848   0.00000  Uiso   1.00
H1188  H     0.69915   0.71924   0.46083   0.00000  Uiso   1.00
H1189  H     0.70018   0.68451   0.51607   0.00000  Uiso   1.00
O1190  O     0.95980   0.91667   0.50926   0.00000  Uiso   1.00
C1191  C     0.96815   0.93100   0.55827   0.00000  Uiso   1.00
H1192  H     0.95508   0.90629   0.58424   0.00000  Uiso   1.00
H1193  H     0.95367   0.96502   0.56298   0.00000  Uiso   1.00
H1194  H     0.66808   0.93576   0.56765   0.00000  Uiso   1.00
O1195  O     0.95941   0.75415   0.47040   0.00000  Uiso   1.00
C1196  C     0.95371   0.71571   0.50087   0.00000  Uiso   1.00
H1197  H     0.92067   0.70907   0.50149   0.00000  Uiso   1.00
H1198  H     0.96746   0.71926   0.53910   0.00000  Uiso   1.00
H1199  H     0.96636   0.68451   0.48387   0.00000  Uiso   1.00
O1200  O     0.70682   0.91655   0.48948   0.00000  Uiso   1.00
C1201  C     0.69873   0.93003   0.44016   0.00000  Uiso   1.00
H1202  H     0.71293   0.90553   0.41495   0.00000  Uiso   1.00
H1203  H     0.71224   0.96454   0.43521   0.00000  Uiso   1.00
H1204  H     0.99880   0.93338   0.42996   0.00000  Uiso   1.00
O1205  O     0.81097   0.71345   0.41513   0.00000  Uiso   1.00
C1206  C     0.76914   0.72181   0.40369   0.00000  Uiso   1.00
H1207  H     0.74987   0.69117   0.40953   0.00000  Uiso   1.00
H1208  H     0.76483   0.73063   0.36417   0.00000  Uiso   1.00
H1209  H     0.75870   0.75212   0.42395   0.00000  Uiso   1.00
O1210  O     0.87503   0.95105   0.57412   0.00000  Uiso   1.00
C1211  C     0.85757   0.95319   0.61967   0.00000  Uiso   1.00
H1212  H     0.86749   0.92217   0.64112   0.00000  Uiso   1.00
H1213  H     0.82357   0.95343   0.61586   0.00000  Uiso   1.00
H1214  H     0.86937   0.98297   0.64171   0.00000  Uiso   1.00
O1215  O     0.85566   0.71346   0.58489   0.00000  Uiso   1.00
C1216  C     0.89748   0.72188   0.59636   0.00000  Uiso   1.00
H1217  H     0.91676   0.69123   0.59065   0.00000  Uiso   1.00
H1218  H     0.90175   0.73082   0.63585   0.00000  Uiso   1.00
H1219  H     0.90794   0.75213   0.57602   0.00000  Uiso   1.00
O1220  O     0.79162   0.95104   0.42590   0.00000  Uiso   1.00
C1221  C     0.80906   0.95317   0.38033   0.00000  Uiso   1.00
H1222  H     0.79913   0.92215   0.35889   0.00000  Uiso   1.00
H1223  H     0.84307   0.95342   0.38413   0.00000  Uiso   1.00
H1224  H     0.79727   0.98295   0.35830   0.00000  Uiso   1.00
O1225  O     0.10655   0.20625   0.83333   0.00000  Uiso   1.00
O1226  O     0.22679   0.12709   0.83334   0.00000  Uiso   1.00
O1227  O     0.22679   0.20625   0.83334   0.00000  Uiso   1.00
O1228  O     0.10655   0.12709   0.83333   0.00000  Uiso   1.00
C1229  C     0.08746   0.16660   0.83399   0.00000  Uiso   1.00
C1230  C     0.24587   0.16661   0.83260   0.00000  Uiso   1.00
O1231  O     0.16667   0.20625   0.76280   0.00000  Uiso   1.00
O1232  O     0.16667   0.12708   0.90387   0.00000  Uiso   1.00
O1233  O     0.16667   0.20625   0.90387   0.00000  Uiso   1.00
O1234  O     0.16667   0.12708   0.76280   0.00000  Uiso   1.00
C1235  C     0.16657   0.16662   0.74029   0.00000  Uiso   1.00
C1236  C     0.16676   0.16662   0.92638   0.00000  Uiso   1.00
Cu1237 Cu    0.16667   0.21355   0.83333   0.00000  Uiso   1.00
Cu1238 Cu    0.16667   0.11978   0.83333   0.00000  Uiso   1.00
C1239  C     0.16665   0.16642   0.68851   0.00000  Uiso   1.00
C1240  C     0.16668   0.16642   0.97816   0.00000  Uiso   1.00
C1241  C     0.02141   0.12403   0.83752   0.00000  Uiso   1.00
C1242  C     0.31254   0.20817   0.83650   0.00000  Uiso   1.00
C1243  C     0.31189   0.12403   0.82905   0.00000  Uiso   1.00
C1244  C     0.02079   0.20812   0.82951   0.00000  Uiso   1.00
C1245  C     0.29062   0.16633   0.83238   0.00000  Uiso   1.00
C1246  C     0.04270   0.16631   0.83404   0.00000  Uiso   1.00
C1247  C     0.15093   0.02464   0.79314   0.00000  Uiso   1.00
C1248  C     0.18477   0.30837   0.87204   0.00000  Uiso   1.00
C1249  C     0.18240   0.02465   0.87354   0.00000  Uiso   1.00
C1250  C     0.14856   0.30836   0.79463   0.00000  Uiso   1.00
N1251  N     0.16667   0.28402   0.83333   0.00000  Uiso   1.00
N1252  N     0.16667   0.04931   0.83333   0.00000  Uiso   1.00
O1253  O     0.04056   0.08750   0.86286   0.00000  Uiso   1.00
C1254  C     0.04621   0.04902   0.83240   0.00000  Uiso   1.00
H1255  H     0.07924   0.04233   0.83181   0.00000  Uiso   1.00
H1256  H     0.03248   0.05257   0.79417   0.00000  Uiso   1.00
H1257  H     0.03351   0.01784   0.84940   0.00000  Uiso   1.00
O1258  O     0.29313   0.25000   0.84259   0.00000  Uiso   1.00
C1259  C     0.30148   0.26433   0.89160   0.00000  Uiso   1.00
H1260  H     0.28841   0.23962   0.91757   0.00000  Uiso   1.00
H1261  H     0.28700   0.29835   0.89631   0.00000  Uiso   1.00
H1262  H     0.00141   0.26909   0.90098   0.00000  Uiso   1.00
O1263  O     0.29274   0.08749   0.80373   0.00000  Uiso   1.00
C1264  C     0.28704   0.04904   0.83420   0.00000  Uiso   1.00
H1265  H     0.25401   0.04240   0.83482   0.00000  Uiso   1.00
H1266  H     0.30080   0.05260   0.87243   0.00000  Uiso   1.00
H1267  H     0.29969   0.01785   0.81720   0.00000  Uiso   1.00
O1268  O     0.04015   0.24988   0.82281   0.00000  Uiso   1.00
C1269  C     0.03206   0.26337   0.77349   0.00000  Uiso   1.00
H1270  H     0.04627   0.23886   0.74828   0.00000  Uiso   1.00
H1271  H     0.04557   0.29788   0.76854   0.00000  Uiso   1.00
H1272  H     0.33213   0.26672   0.76329   0.00000  Uiso   1.00
O1273  O     0.14431   0.04679   0.74846   0.00000  Uiso   1.00
C1274  C     0.10247   0.05515   0.73702   0.00000  Uiso   1.00
H1275  H     0.08321   0.02450   0.74286   0.00000  Uiso   1.00
H1276  H     0.09816   0.06396   0.69751   0.00000  Uiso   1.00
H1277  H     0.09203   0.08546   0.75728   0.00000  Uiso   1.00
O1278  O     0.20837   0.28439   0.90745   0.00000  Uiso   1.00
C1279  C     0.19091   0.28652   0.95301   0.00000  Uiso   1.00
H1280  H     0.20083   0.25551   0.97446   0.00000  Uiso   1.00
H1281  H     0.15690   0.28676   0.94919   0.00000  Uiso   1.00
H1282  H     0.20270   0.31630   0.97505   0.00000  Uiso   1.00
O1283  O     0.18899   0.04679   0.91822   0.00000  Uiso   1.00
C1284  C     0.23081   0.05521   0.92969   0.00000  Uiso   1.00
H1285  H     0.25010   0.02456   0.92398   0.00000  Uiso   1.00
H1286  H     0.23508   0.06415   0.96918   0.00000  Uiso   1.00
H1287  H     0.24127   0.08547   0.90935   0.00000  Uiso   1.00
O1288  O     0.12495   0.28437   0.75923   0.00000  Uiso   1.00
C1289  C     0.14240   0.28650   0.71367   0.00000  Uiso   1.00
H1290  H     0.13246   0.25548   0.69223   0.00000  Uiso   1.00
H1291  H     0.17640   0.28675   0.71747   0.00000  Uiso   1.00
H1292  H     0.13060   0.31628   0.69163   0.00000  Uiso   1.00
O1293  O     0.43988   0.20625   0.83333   0.00000  Uiso   1.00
O1294  O     0.56012   0.12709   0.83334   0.00000  Uiso   1.00
O1295  O     0.56012   0.20625   0.83334   0.00000  Uiso   1.00
O1296  O     0.43988   0.12709   0.83333   0.00000  Uiso   1.00
C1297  C     0.42080   0.16660   0.83399   0.00000  Uiso   1.00
C1298  C     0.57920   0.16661   0.83260   0.00000  Uiso   1.00
O1299  O     0.50000   0.20625   0.76280   0.00000  Uiso   1.00
O1300  O     0.50000   0.12708   0.90387   0.00000  Uiso   1.00
O1301  O     0.50000   0.20625   0.90387   0.00000  Uiso   1.00
O1302  O     0.50000   0.12708   0.76280   0.00000  Uiso   1.00
C1303  C     0.49991   0.16662   0.74029   0.00000  Uiso   1.00
C1304  C     0.50009   0.16662   0.92638   0.00000  Uiso   1.00
Cu1305 Cu    0.50000   0.21355   0.83333   0.00000  Uiso   1.00
Cu1306 Cu    0.50000   0.11978   0.83333   0.00000  Uiso   1.00
C1307  C     0.49999   0.16642   0.68851   0.00000  Uiso   1.00
C1308  C     0.50001   0.16642   0.97816   0.00000  Uiso   1.00
C1309  C     0.35474   0.12403   0.83752   0.00000  Uiso   1.00
C1310  C     0.64587   0.20817   0.83650   0.00000  Uiso   1.00
C1311  C     0.64523   0.12403   0.82905   0.00000  Uiso   1.00
C1312  C     0.35412   0.20812   0.82951   0.00000  Uiso   1.00
C1313  C     0.62396   0.16633   0.83238   0.00000  Uiso   1.00
C1314  C     0.37603   0.16631   0.83404   0.00000  Uiso   1.00
C1315  C     0.48426   0.02464   0.79314   0.00000  Uiso   1.00
C1316  C     0.51810   0.30837   0.87204   0.00000  Uiso   1.00
C1317  C     0.51573   0.02465   0.87354   0.00000  Uiso   1.00
C1318  C     0.48189   0.30836   0.79463   0.00000  Uiso   1.00
N1319  N     0.50000   0.28402   0.83333   0.00000  Uiso   1.00
N1320  N     0.50000   0.04931   0.83333   0.00000  Uiso   1.00
O1321  O     0.37389   0.08750   0.86286   0.00000  Uiso   1.00
C1322  C     0.37955   0.04902   0.83240   0.00000  Uiso   1.00
H1323  H     0.41258   0.04233   0.83181   0.00000  Uiso   1.00
H1324  H     0.36582   0.05257   0.79417   0.00000  Uiso   1.00
H1325  H     0.36684   0.01784   0.84940   0.00000  Uiso   1.00
O1326  O     0.62646   0.25000   0.84259   0.00000  Uiso   1.00
C1327  C     0.63481   0.26433   0.89160   0.00000  Uiso   1.00
H1328  H     0.62175   0.23962   0.91757   0.00000  Uiso   1.00
H1329  H     0.62033   0.29835   0.89631   0.00000  Uiso   1.00
H1330  H     0.33475   0.26909   0.90098   0.00000  Uiso   1.00
O1331  O     0.62607   0.08749   0.80373   0.00000  Uiso   1.00
C1332  C     0.62038   0.04904   0.83420   0.00000  Uiso   1.00
H1333  H     0.58734   0.04240   0.83482   0.00000  Uiso   1.00
H1334  H     0.63413   0.05260   0.87243   0.00000  Uiso   1.00
H1335  H     0.63302   0.01785   0.81720   0.00000  Uiso   1.00
O1336  O     0.37349   0.24988   0.82281   0.00000  Uiso   1.00
C1337  C     0.36540   0.26337   0.77349   0.00000  Uiso   1.00
H1338  H     0.37960   0.23886   0.74828   0.00000  Uiso   1.00
H1339  H     0.37890   0.29788   0.76854   0.00000  Uiso   1.00
H1340  H     0.66547   0.26672   0.76329   0.00000  Uiso   1.00
O1341  O     0.47764   0.04679   0.74846   0.00000  Uiso   1.00
C1342  C     0.43581   0.05515   0.73702   0.00000  Uiso   1.00
H1343  H     0.41654   0.02450   0.74286   0.00000  Uiso   1.00
H1344  H     0.43149   0.06396   0.69751   0.00000  Uiso   1.00
H1345  H     0.42536   0.08546   0.75728   0.00000  Uiso   1.00
O1346  O     0.54170   0.28439   0.90745   0.00000  Uiso   1.00
C1347  C     0.52424   0.28652   0.95301   0.00000  Uiso   1.00
H1348  H     0.53416   0.25551   0.97446   0.00000  Uiso   1.00
H1349  H     0.49023   0.28676   0.94919   0.00000  Uiso   1.00
H1350  H     0.53603   0.31630   0.97505   0.00000  Uiso   1.00
O1351  O     0.52232   0.04679   0.91822   0.00000  Uiso   1.00
C1352  C     0.56414   0.05521   0.92969   0.00000  Uiso   1.00
H1353  H     0.58343   0.02456   0.92398   0.00000  Uiso   1.00
H1354  H     0.56841   0.06415   0.96918   0.00000  Uiso   1.00
H1355  H     0.57460   0.08547   0.90935   0.00000  Uiso   1.00
O1356  O     0.45828   0.28437   0.75923   0.00000  Uiso   1.00
C1357  C     0.47573   0.28650   0.71367   0.00000  Uiso   1.00
H1358  H     0.46580   0.25548   0.69223   0.00000  Uiso   1.00
H1359  H     0.50974   0.28675   0.71747   0.00000  Uiso   1.00
H1360  H     0.46393   0.31628   0.69163   0.00000  Uiso   1.00
O1361  O     0.77321   0.20625   0.83333   0.00000  Uiso   1.00
O1362  O     0.89345   0.12709   0.83334   0.00000  Uiso   1.00
O1363  O     0.89345   0.20625   0.83334   0.00000  Uiso   1.00
O1364  O     0.77321   0.12709   0.83333   0.00000  Uiso   1.00
C1365  C     0.75413   0.16660   0.83399   0.00000  Uiso   1.00
C1366  C     0.91253   0.16661   0.83260   0.00000  Uiso   1.00
O1367  O     0.83333   0.20625   0.76280   0.00000  Uiso   1.00
O1368  O     0.83333   0.12708   0.90387   0.00000  Uiso   1.00
O1369  O     0.83333   0.20625   0.90387   0.00000  Uiso   1.00
O1370  O     0.83333   0.12708   0.76280   0.00000  Uiso   1.00
C1371  C     0.83324   0.16662   0.74029   0.00000  Uiso   1.00
C1372  C     0.83342   0.16662   0.92638   0.00000  Uiso   1.00
Cu1373 Cu    0.83333   0.21355   0.83333   0.00000  Uiso   1.00
Cu1374 Cu    0.83333   0.11978   0.83333   0.00000  Uiso   1.00
C1375  C     0.83332   0.16642   0.68851   0.00000  Uiso   1.00
C1376  C     0.83334   0.16642   0.97816   0.00000  Uiso   1.00
C1377  C     0.68807   0.12403   0.83752   0.00000  Uiso   1.00
C1378  C     0.97920   0.20817   0.83650   0.00000  Uiso   1.00
C1379  C     0.97856   0.12403   0.82905   0.00000  Uiso   1.00
C1380  C     0.68746   0.20812   0.82951   0.00000  Uiso   1.00
C1381  C     0.95729   0.16633   0.83238   0.00000  Uiso   1.00
C1382  C     0.70937   0.16631   0.83404   0.00000  Uiso   1.00
C1383  C     0.81759   0.02464   0.79314   0.00000  Uiso   1.00
C1384  C     0.85144   0.30837   0.87204   0.00000  Uiso   1.00
C1385  C     0.84907   0.02465   0.87354   0.00000  Uiso   1.00
C1386  C     0.81522   0.30836   0.79463   0.00000  Uiso   1.00
N1387  N     0.83333   0.28402   0.83333   0.00000  Uiso   1.00
N1388  N     0.83333   0.04931   0.83333   0.00000  Uiso   1.00
O1389  O     0.70723   0.08750   0.86286   0.00000  Uiso   1.00
C1390  C     0.71288   0.04902   0.83240   0.00000  Uiso   1.00
H1391  H     0.74591   0.04233   0.83181   0.00000  Uiso   1.00
H1392  H     0.69915   0.05257   0.79417   0.00000  Uiso   1.00
H1393  H     0.70018   0.01784   0.84940   0.00000  Uiso   1.00
O1394  O     0.95980   0.25000   0.84259   0.00000  Uiso   1.00
C1395  C     0.96815   0.26433   0.89160   0.00000  Uiso   1.00
H1396  H     0.95508   0.23962   0.91757   0.00000  Uiso   1.00
H1397  H     0.95367   0.29835   0.89631   0.00000  Uiso   1.00
H1398  H     0.66808   0.26909   0.90098   0.00000  Uiso   1.00
O1399  O     0.95941   0.08749   0.80373   0.00000  Uiso   1.00
C1400  C     0.95371   0.04904   0.83420   0.00000  Uiso   1.00
H1401  H     0.92067   0.04240   0.83482   0.00000  Uiso   1.00
H1402  H     0.96746   0.05260   0.87243   0.00000  Uiso   1.00
H1403  H     0.96636   0.01785   0.81720   0.00000  Uiso   1.00
O1404  O     0.70682   0.24988   0.82281   0.00000  Uiso   1.00
C1405  C     0.69873   0.26337   0.77349   0.00000  Uiso   1.00
H1406  H     0.71293   0.23886   0.74828   0.00000  Uiso   1.00
H1407  H     0.71224   0.29788   0.76854   0.00000  Uiso   1.00
H1408  H     0.99880   0.26672   0.76329   0.00000  Uiso   1.00
O1409  O     0.81097   0.04679   0.74846   0.00000  Uiso   1.00
C1410  C     0.76914   0.05515   0.73702   0.00000  Uiso   1.00
H1411  H     0.74987   0.02450   0.74286   0.00000  Uiso   1.00
H1412  H     0.76483   0.06396   0.69751   0.00000  Uiso   1.00
H1413  H     0.75870   0.08546   0.75728   0.00000  Uiso   1.00
O1414  O     0.87503   0.28439   0.90745   0.00000  Uiso   1.00
C1415  C     0.85757   0.28652   0.95301   0.00000  Uiso   1.00
H1416  H     0.86749   0.25551   0.97446   0.00000  Uiso   1.00
H1417  H     0.82357   0.28676   0.94919   0.00000  Uiso   1.00
H1418  H     0.86937   0.31630   0.97505   0.00000  Uiso   1.00
O1419  O     0.85566   0.04679   0.91822   0.00000  Uiso   1.00
C1420  C     0.89748   0.05521   0.92969   0.00000  Uiso   1.00
H1421  H     0.91676   0.02456   0.92398   0.00000  Uiso   1.00
H1422  H     0.90175   0.06415   0.96918   0.00000  Uiso   1.00
H1423  H     0.90794   0.08547   0.90935   0.00000  Uiso   1.00
O1424  O     0.79162   0.28437   0.75923   0.00000  Uiso   1.00
C1425  C     0.80906   0.28650   0.71367   0.00000  Uiso   1.00
H1426  H     0.79913   0.25548   0.69223   0.00000  Uiso   1.00
H1427  H     0.84307   0.28675   0.71747   0.00000  Uiso   1.00
H1428  H     0.79727   0.31628   0.69163   0.00000  Uiso   1.00
O1429  O     0.10655   0.53958   0.83333   0.00000  Uiso   1.00
O1430  O     0.22679   0.46042   0.83334   0.00000  Uiso   1.00
O1431  O     0.22679   0.53958   0.83334   0.00000  Uiso   1.00
O1432  O     0.10655   0.46042   0.83333   0.00000  Uiso   1.00
C1433  C     0.08746   0.49993   0.83399   0.00000  Uiso   1.00
C1434  C     0.24587   0.49994   0.83260   0.00000  Uiso   1.00
O1435  O     0.16667   0.53959   0.76280   0.00000  Uiso   1.00
O1436  O     0.16667   0.46041   0.90387   0.00000  Uiso   1.00
O1437  O     0.16667   0.53959   0.90387   0.00000  Uiso   1.00
O1438  O     0.16667   0.46041   0.76280   0.00000  Uiso   1.00
C1439  C     0.16657   0.49995   0.74029   0.00000  Uiso   1.00
C1440  C     0.16676   0.49995   0.92638   0.00000  Uiso   1.00
Cu1441 Cu    0.16667   0.54689   0.83333   0.00000  Uiso   1.00
Cu1442 Cu    0.16667   0.45311   0.83333   0.00000  Uiso   1.00
C1443  C     0.16665   0.49975   0.68851   0.00000  Uiso   1.00
C1444  C     0.16668   0.49975   0.97816   0.00000  Uiso   1.00
C1445  C     0.02141   0.45736   0.83752   0.00000  Uiso   1.00
C1446  C     0.31254   0.54150   0.83650   0.00000  Uiso   1.00
C1447  C     0.31189   0.45736   0.82905   0.00000  Uiso   1.00
C1448  C     0.02079   0.54145   0.82951   0.00000  Uiso   1.00
C1449  C     0.29062   0.49966   0.83238   0.00000  Uiso   1.00
C1450  C     0.04270   0.49964   0.83404   0.00000  Uiso   1.00
C1451  C     0.15093   0.35797   0.79314   0.00000  Uiso   1.00
C1452  C     0.18477   0.64170   0.87204   0.00000  Uiso   1.00
C1453  C     0.18240   0.35798   0.87354   0.00000  Uiso   1.00
C1454  C     0.14856   0.64169   0.79463   0.00000  Uiso   1.00
N1455  N     0.16667   0.61736   0.83333   0.00000  Uiso   1.00
N1456  N     0.16667   0.38264   0.83333   0.00000  Uiso   1.00
O1457  O     0.04056   0.42083   0.86286   0.00000  Uiso   1.00
C1458  C     0.04621   0.38235   0.83240   0.00000  Uiso   1.00
H1459  H     0.07924   0.37566   0.83181   0.00000  Uiso   1.00
H1460  H     0.03248   0.38591   0.79417   0.00000  Uiso   1.00
H1461  H     0.03351   0.35118   0.84940   0.00000  Uiso   1.00
O1462  O     0.29313   0.58334   0.84259   0.00000  Uiso   1.00
C1463  C     0.30148   0.59767   0.89160   0.00000  Uiso   1.00
H1464  H     0.28841   0.57295   0.91757   0.00000  Uiso   1.00
H1465  H     0.28700   0.63169   0.89631   0.00000  Uiso   1.00
H1466  H     0.00141   0.60243   0.90098   0.00000  Uiso   1.00
O1467  O     0.29274   0.42082   0.80373   0.00000  Uiso   1.00
C1468  C     0.28704   0.38238   0.83420   0.00000  Uiso   1.00
H1469  H     0.25401   0.37574   0.83482   0.00000  Uiso   1.00
H1470  H     0.30080   0.38593   0.87243   0.00000  Uiso   1.00
H1471  H     0.29969   0.35118   0.81720   0.00000  Uiso   1.00
O1472  O     0.04015   0.58322   0.82281   0.00000  Uiso   1.00
C1473  C     0.03206   0.59670   0.77349   0.00000  Uiso   1.00
H1474  H     0.04627   0.57220   0.74828   0.00000  Uiso   1.00
H1475  H     0.04557   0.63121   0.76854   0.00000  Uiso   1.00
H1476  H     0.33213   0.60005   0.76329   0.00000  Uiso   1.00
O1477  O     0.14431   0.38012   0.74846   0.00000  Uiso   1.00
C1478  C     0.10247   0.38848   0.73702   0.00000  Uiso   1.00
H1479  H     0.08321   0.35784   0.74286   0.00000  Uiso   1.00
H1480  H     0.09816   0.39730   0.69751   0.00000  Uiso   1.00
H1481  H     0.09203   0.41879   0.75728   0.00000  Uiso   1.00
O1482  O     0.20837   0.61772   0.90745   0.00000  Uiso   1.00
C1483  C     0.19091   0.61985   0.95301   0.00000  Uiso   1.00
H1484  H     0.20083   0.58884   0.97446   0.00000  Uiso   1.00
H1485  H     0.15690   0.62010   0.94919   0.00000  Uiso   1.00
H1486  H     0.20270   0.64964   0.97505   0.00000  Uiso   1.00
O1487  O     0.18899   0.38012   0.91822   0.00000  Uiso   1.00
C1488  C     0.23081   0.38855   0.92969   0.00000  Uiso   1.00
H1489  H     0.25010   0.35789   0.92398   0.00000  Uiso   1.00
H1490  H     0.23508   0.39748   0.96918   0.00000  Uiso   1.00
H1491  H     0.24127   0.41880   0.90935   0.00000  Uiso   1.00
O1492  O     0.12495   0.61771   0.75923   0.00000  Uiso   1.00
C1493  C     0.14240   0.61984   0.71367   0.00000  Uiso   1.00
H1494  H     0.13246   0.58882   0.69223   0.00000  Uiso   1.00
H1495  H     0.17640   0.62009   0.71747   0.00000  Uiso   1.00
H1496  H     0.13060   0.64961   0.69163   0.00000  Uiso   1.00
O1497  O     0.43988   0.53958   0.83333   0.00000  Uiso   1.00
O1498  O     0.56012   0.46042   0.83334   0.00000  Uiso   1.00
O1499  O     0.56012   0.53958   0.83334   0.00000  Uiso   1.00
O1500  O     0.43988   0.46042   0.83333   0.00000  Uiso   1.00
C1501  C     0.42080   0.49993   0.83399   0.00000  Uiso   1.00
C1502  C     0.57920   0.49994   0.83260   0.00000  Uiso   1.00
O1503  O     0.50000   0.53959   0.76280   0.00000  Uiso   1.00
O1504  O     0.50000   0.46041   0.90387   0.00000  Uiso   1.00
O1505  O     0.50000   0.53959   0.90387   0.00000  Uiso   1.00
O1506  O     0.50000   0.46041   0.76280   0.00000  Uiso   1.00
C1507  C     0.49991   0.49995   0.74029   0.00000  Uiso   1.00
C1508  C     0.50009   0.49995   0.92638   0.00000  Uiso   1.00
Cu1509 Cu    0.50000   0.54689   0.83333   0.00000  Uiso   1.00
Cu1510 Cu    0.50000   0.45311   0.83333   0.00000  Uiso   1.00
C1511  C     0.49999   0.49975   0.68851   0.00000  Uiso   1.00
C1512  C     0.50001   0.49975   0.97816   0.00000  Uiso   1.00
C1513  C     0.35474   0.45736   0.83752   0.00000  Uiso   1.00
C1514  C     0.64587   0.54150   0.83650   0.00000  Uiso   1.00
C1515  C     0.64523   0.45736   0.82905   0.00000  Uiso   1.00
C1516  C     0.35412   0.54145   0.82951   0.00000  Uiso   1.00
C1517  C     0.62396   0.49966   0.83238   0.00000  Uiso   1.00
C1518  C     0.37603   0.49964   0.83404   0.00000  Uiso   1.00
C1519  C     0.48426   0.35797   0.79314   0.00000  Uiso   1.00
C1520  C     0.51810   0.64170   0.87204   0.00000  Uiso   1.00
C1521  C     0.51573   0.35798   0.87354   0.00000  Uiso   1.00
C1522  C     0.48189   0.64169   0.79463   0.00000  Uiso   1.00
N1523  N     0.50000   0.61736   0.83333   0.00000  Uiso   1.00
N1524  N     0.50000   0.38264   0.83333   0.00000  Uiso   1.00
O1525  O     0.37389   0.42083   0.86286   0.00000  Uiso   1.00
C1526  C     0.37955   0.38235   0.83240   0.00000  Uiso   1.00
H1527  H     0.41258   0.37566   0.83181   0.00000  Uiso   1.00
H1528  H     0.36582   0.38591   0.79417   0.00000  Uiso   1.00
H1529  H     0.36684   0.35118   0.84940   0.00000  Uiso   1.00
O1530  O     0.62646   0.58334   0.84259   0.00000  Uiso   1.00
C1531  C     0.63481   0.59767   0.89160   0.00000  Uiso   1.00
H1532  H     0.62175   0.57295   0.91757   0.00000  Uiso   1.00
H1533  H     0.62033   0.63169   0.89631   0.00000  Uiso   1.00
H1534  H     0.33475   0.60243   0.90098   0.00000  Uiso   1.00
O1535  O     0.62607   0.42082   0.80373   0.00000  Uiso   1.00
C1536  C     0.62038   0.38238   0.83420   0.00000  Uiso   1.00
H1537  H     0.58734   0.37574   0.83482   0.00000  Uiso   1.00
H1538  H     0.63413   0.38593   0.87243   0.00000  Uiso   1.00
H1539  H     0.63302   0.35118   0.81720   0.00000  Uiso   1.00
O1540  O     0.37349   0.58322   0.82281   0.00000  Uiso   1.00
C1541  C     0.36540   0.59670   0.77349   0.00000  Uiso   1.00
H1542  H     0.37960   0.57220   0.74828   0.00000  Uiso   1.00
H1543  H     0.37890   0.63121   0.76854   0.00000  Uiso   1.00
H1544  H     0.66547   0.60005   0.76329   0.00000  Uiso   1.00
O1545  O     0.47764   0.38012   0.74846   0.00000  Uiso   1.00
C1546  C     0.43581   0.38848   0.73702   0.00000  Uiso   1.00
H1547  H     0.41654   0.35784   0.74286   0.00000  Uiso   1.00
H1548  H     0.43149   0.39730   0.69751   0.00000  Uiso   1.00
H1549  H     0.42536   0.41879   0.75728   0.00000  Uiso   1.00
O1550  O     0.54170   0.61772   0.90745   0.00000  Uiso   1.00
C1551  C     0.52424   0.61985   0.95301   0.00000  Uiso   1.00
H1552  H     0.53416   0.58884   0.97446   0.00000  Uiso   1.00
H1553  H     0.49023   0.62010   0.94919   0.00000  Uiso   1.00
H1554  H     0.53603   0.64964   0.97505   0.00000  Uiso   1.00
O1555  O     0.52232   0.38012   0.91822   0.00000  Uiso   1.00
C1556  C     0.56414   0.38855   0.92969   0.00000  Uiso   1.00
H1557  H     0.58343   0.35789   0.92398   0.00000  Uiso   1.00
H1558  H     0.56841   0.39748   0.96918   0.00000  Uiso   1.00
H1559  H     0.57460   0.41880   0.90935   0.00000  Uiso   1.00
O1560  O     0.45828   0.61771   0.75923   0.00000  Uiso   1.00
C1561  C     0.47573   0.61984   0.71367   0.00000  Uiso   1.00
H1562  H     0.46580   0.58882   0.69223   0.00000  Uiso   1.00
H1563  H     0.50974   0.62009   0.71747   0.00000  Uiso   1.00
H1564  H     0.46393   0.64961   0.69163   0.00000  Uiso   1.00
O1565  O     0.77321   0.53958   0.83333   0.00000  Uiso   1.00
O1566  O     0.89345   0.46042   0.83334   0.00000  Uiso   1.00
O1567  O     0.89345   0.53958   0.83334   0.00000  Uiso   1.00
O1568  O     0.77321   0.46042   0.83333   0.00000  Uiso   1.00
C1569  C     0.75413   0.49993   0.83399   0.00000  Uiso   1.00
C1570  C     0.91253   0.49994   0.83260   0.00000  Uiso   1.00
O1571  O     0.83333   0.53959   0.76280   0.00000  Uiso   1.00
O1572  O     0.83333   0.46041   0.90387   0.00000  Uiso   1.00
O1573  O     0.83333   0.53959   0.90387   0.00000  Uiso   1.00
O1574  O     0.83333   0.46041   0.76280   0.00000  Uiso   1.00
C1575  C     0.83324   0.49995   0.74029   0.00000  Uiso   1.00
C1576  C     0.83342   0.49995   0.92638   0.00000  Uiso   1.00
Cu1577 Cu    0.83333   0.54689   0.83333   0.00000  Uiso   1.00
Cu1578 Cu    0.83333   0.45311   0.83333   0.00000  Uiso   1.00
C1579  C     0.83332   0.49975   0.68851   0.00000  Uiso   1.00
C1580  C     0.83334   0.49975   0.97816   0.00000  Uiso   1.00
C1581  C     0.68807   0.45736   0.83752   0.00000  Uiso   1.00
C1582  C     0.97920   0.54150   0.83650   0.00000  Uiso   1.00
C1583  C     0.97856   0.45736   0.82905   0.00000  Uiso   1.00
C1584  C     0.68746   0.54145   0.82951   0.00000  Uiso   1.00
C1585  C     0.95729   0.49966   0.83238   0.00000  Uiso   1.00
C1586  C     0.70937   0.49964   0.83404   0.00000  Uiso   1.00
C1587  C     0.81759   0.35797   0.79314   0.00000  Uiso   1.00
C1588  C     0.85144   0.64170   0.87204   0.00000  Uiso   1.00
C1589  C     0.84907   0.35798   0.87354   0.00000  Uiso   1.00
C1590  C     0.81522   0.64169   0.79463   0.00000  Uiso   1.00
N1591  N     0.83333   0.61736   0.83333   0.00000  Uiso   1.00
N1592  N     0.83333   0.38264   0.83333   0.00000  Uiso   1.00
O1593  O     0.70723   0.42083   0.86286   0.00000  Uiso   1.00
C1594  C     0.71288   0.38235   0.83240   0.00000  Uiso   1.00
H1595  H     0.74591   0.37566   0.83181   0.00000  Uiso   1.00
H1596  H     0.69915   0.38591   0.79417   0.00000  Uiso   1.00
H1597  H     0.70018   0.35118   0.84940   0.00000  Uiso   1.00
O1598  O     0.95980   0.58334   0.84259   0.00000  Uiso   1.00
C1599  C     0.96815   0.59767   0.89160   0.00000  Uiso   1.00
H1600  H     0.95508   0.57295   0.91757   0.00000  Uiso   1.00
H1601  H     0.95367   0.63169   0.89631   0.00000  Uiso   1.00
H1602  H     0.66808   0.60243   0.90098   0.00000  Uiso   1.00
O1603  O     0.95941   0.42082   0.80373   0.00000  Uiso   1.00
C1604  C     0.95371   0.38238   0.83420   0.00000  Uiso   1.00
H1605  H     0.92067   0.37574   0.83482   0.00000  Uiso   1.00
H1606  H     0.96746   0.38593   0.87243   0.00000  Uiso   1.00
H1607  H     0.96636   0.35118   0.81720   0.00000  Uiso   1.00
O1608  O     0.70682   0.58322   0.82281   0.00000  Uiso   1.00
C1609  C     0.69873   0.59670   0.77349   0.00000  Uiso   1.00
H1610  H     0.71293   0.57220   0.74828   0.00000  Uiso   1.00
H1611  H     0.71224   0.63121   0.76854   0.00000  Uiso   1.00
H1612  H     0.99880   0.60005   0.76329   0.00000  Uiso   1.00
O1613  O     0.81097   0.38012   0.74846   0.00000  Uiso   1.00
C1614  C     0.76914   0.38848   0.73702   0.00000  Uiso   1.00
H1615  H     0.74987   0.35784   0.74286   0.00000  Uiso   1.00
H1616  H     0.76483   0.39730   0.69751   0.00000  Uiso   1.00
H1617  H     0.75870   0.41879   0.75728   0.00000  Uiso   1.00
O1618  O     0.87503   0.61772   0.90745   0.00000  Uiso   1.00
C1619  C     0.85757   0.61985   0.95301   0.00000  Uiso   1.00
H1620  H     0.86749   0.58884   0.97446   0.00000  Uiso   1.00
H1621  H     0.82357   0.62010   0.94919   0.00000  Uiso   1.00
H1622  H     0.86937   0.64964   0.97505   0.00000  Uiso   1.00
O1623  O     0.85566   0.38012   0.91822   0.00000  Uiso   1.00
C1624  C     0.89748   0.38855   0.92969   0.00000  Uiso   1.00
H1625  H     0.91676   0.35789   0.92398   0.00000  Uiso   1.00
H1626  H     0.90175   0.39748   0.96918   0.00000  Uiso   1.00
H1627  H     0.90794   0.41880   0.90935   0.00000  Uiso   1.00
O1628  O     0.79162   0.61771   0.75923   0.00000  Uiso   1.00
C1629  C     0.80906   0.61984   0.71367   0.00000  Uiso   1.00
H1630  H     0.79913   0.58882   0.69223   0.00000  Uiso   1.00
H1631  H     0.84307   0.62009   0.71747   0.00000  Uiso   1.00
H1632  H     0.79727   0.64961   0.69163   0.00000  Uiso   1.00
O1633  O     0.10655   0.87291   0.83333   0.00000  Uiso   1.00
O1634  O     0.22679   0.79375   0.83334   0.00000  Uiso   1.00
O1635  O     0.22679   0.87291   0.83334   0.00000  Uiso   1.00
O1636  O     0.10655   0.79375   0.83333   0.00000  Uiso   1.00
C1637  C     0.08746   0.83327   0.83399   0.00000  Uiso   1.00
C1638  C     0.24587   0.83327   0.83260   0.00000  Uiso   1.00
O1639  O     0.16667   0.87292   0.76280   0.00000  Uiso   1.00
O1640  O     0.16667   0.79375   0.90387   0.00000  Uiso   1.00
O1641  O     0.16667   0.87292   0.90387   0.00000  Uiso   1.00
O1642  O     0.16667   0.79375   0.76280   0.00000  Uiso   1.00
C1643  C     0.16657   0.83329   0.74029   0.00000  Uiso   1.00
C1644  C     0.16676   0.83329   0.92638   0.00000  Uiso   1.00
Cu1645 Cu    0.16667   0.88022   0.83333   0.00000  Uiso   1.00
Cu1646 Cu    0.16667   0.78645   0.83333   0.00000  Uiso   1.00
C1647  C     0.16665   0.83308   0.68851   0.00000  Uiso   1.00
C1648  C     0.16668   0.83308   0.97816   0.00000  Uiso   1.00
C1649  C     0.02141   0.79069   0.83752   0.00000  Uiso   1.00
C1650  C     0.31254   0.87483   0.83650   0.00000  Uiso   1.00
C1651  C     0.31189   0.79069   0.82905   0.00000  Uiso   1.00
C1652  C     0.02079   0.87479   0.82951   0.00000  Uiso   1.00
C1653  C     0.29062   0.83299   0.83238   0.00000  Uiso   1.00
C1654  C     0.04270   0.83297   0.83404   0.00000  Uiso   1.00
C1655  C     0.15093   0.69131   0.79314   0.00000  Uiso   1.00
C1656  C     0.18477   0.97503   0.87204   0.00000  Uiso   1.00
C1657  C     0.18240   0.69131   0.87354   0.00000  Uiso   1.00
C1658  C     0.14856   0.97503   0.79463   0.00000  Uiso   1.00
N1659  N     0.16667   0.95069   0.83333   0.00000  Uiso   1.00
N1660  N     0.16667   0.71598   0.83333   0.00000  Uiso   1.00
O1661  O     0.04056   0.75416   0.86286   0.00000  Uiso   1.00
C1662  C     0.04621   0.71568   0.83240   0.00000  Uiso   1.00
H1663  H     0.07924   0.70899   0.83181   0.00000  Uiso   1.00
H1664  H     0.03248   0.71924   0.79417   0.00000  Uiso   1.00
H1665  H     0.03351   0.68451   0.84940   0.00000  Uiso   1.00
O1666  O     0.29313   0.91667   0.84259   0.00000  Uiso   1.00
C1667  C     0.30148   0.93100   0.89160   0.00000  Uiso   1.00
H1668  H     0.28841   0.90629   0.91757   0.00000  Uiso   1.00
H1669  H     0.28700   0.96502   0.89631   0.00000  Uiso   1.00
H1670  H     0.00141   0.93576   0.90098   0.00000  Uiso   1.00
O1671  O     0.29274   0.75415   0.80373   0.00000  Uiso   1.00
C1672  C     0.28704   0.71571   0.83420   0.00000  Uiso   1.00
H1673  H     0.25401   0.70907   0.83482   0.00000  Uiso   1.00
H1674  H     0.30080   0.71926   0.87243   0.00000  Uiso   1.00
H1675  H     0.29969   0.68451   0.81720   0.00000  Uiso   1.00
O1676  O     0.04015   0.91655   0.82281   0.00000  Uiso   1.00
C1677  C     0.03206   0.93003   0.77349   0.00000  Uiso   1.00
H1678  H     0.04627   0.90553   0.74828   0.00000  Uiso   1.00
H1679  H     0.04557   0.96454   0.76854   0.00000  Uiso   1.00
H1680  H     0.33213   0.93338   0.76329   0.00000  Uiso   1.00
O1681  O     0.14431   0.71345   0.74846   0.00000  Uiso   1.00
C1682  C     0.10247   0.72181   0.73702   0.00000  Uiso   1.00
H1683  H     0.08321   0.69117   0.74286   0.00000  Uiso   1.00
H1684  H     0.09816   0.73063   0.69751   0.00000  Uiso   1.00
H1685  H     0.09203   0.75212   0.75728   0.00000  Uiso   1.00
O1686  O     0.20837   0.95105   0.90745   0.00000  Uiso   1.00
C1687  C     0.19091   0.95319   0.95301   0.00000  Uiso   1.00
H1688  H     0.20083   0.92217   0.97446   0.00000  Uiso   1.00
H1689  H     0.15690   0.95343   0.94919   0.00000  Uiso   1.00
H1690  H     0.20270   0.98297   0.97505   0.00000  Uiso   1.00
O1691  O     0.18899   0.71346   0.91822   0.00000  Uiso   1.00
C1692  C     0.23081   0.72188   0.92969   0.00000  Uiso   1.00
H1693  H     0.25010   0.69123   0.92398   0.00000  Uiso   1.00
H1694  H     0.23508   0.73082   0.96918   0.00000  Uiso   1.00
H1695  H     0.24127   0.75213   0.90935   0.00000  Uiso   1.00
O1696  O     0.12495   0.95104   0.75923   0.00000  Uiso   1.00
C1697  C     0.14240   0.95317   0.71367   0.00000  Uiso   1.00
H1698  H     0.13246   0.92215   0.69223   0.00000  Uiso   1.00
H1699  H     0.17640   0.95342   0.71747   0.00000  Uiso   1.00
H1700  H     0.13060   0.98295   0.69163   0.00000  Uiso   1.00
O1701  O     0.43988   0.87291   0.83333   0.00000  Uiso   1.00
O1702  O     0.56012   0.79375   0.83334   0.00000  Uiso   1.00
O1703  O     0.56012   0.87291   0.83334   0.00000  Uiso   1.00
O1704  O     0.43988   0.79375   0.83333   0.00000  Uiso   1.00
C1705  C     0.42080   0.83327   0.83399   0.00000  Uiso   1.00
C1706  C     0.57920   0.83327   0.83260   0.00000  Uiso   1.00
O1707  O     0.50000   0.87292   0.76280   0.00000  Uiso   1.00
O1708  O     0.50000   0.79375   0.90387   0.00000  Uiso   1.00
O1709  O     0.50000   0.87292   0.90387   0.00000  Uiso   1.00
O1710  O     0.50000   0.79375   0.76280   0.00000  Uiso   1.00
C1711  C     0.49991   0.83329   0.74029   0.00000  Uiso   1.00
C1712  C     0.50009   0.83329   0.92638   0.00000  Uiso   1.00
Cu1713 Cu    0.50000   0.88022   0.83333   0.00000  Uiso   1.00
Cu1714 Cu    0.50000   0.78645   0.83333   0.00000  Uiso   1.00
C1715  C     0.49999   0.83308   0.68851   0.00000  Uiso   1.00
C1716  C     0.50001   0.83308   0.97816   0.00000  Uiso   1.00
C1717  C     0.35474   0.79069   0.83752   0.00000  Uiso   1.00
C1718  C     0.64587   0.87483   0.83650   0.00000  Uiso   1.00
C1719  C     0.64523   0.79069   0.82905   0.00000  Uiso   1.00
C1720  C     0.35412   0.87479   0.82951   0.00000  Uiso   1.00
C1721  C     0.62396   0.83299   0.83238   0.00000  Uiso   1.00
C1722  C     0.37603   0.83297   0.83404   0.00000  Uiso   1.00
C1723  C     0.48426   0.69131   0.79314   0.00000  Uiso   1.00
C1724  C     0.51810   0.97503   0.87204   0.00000  Uiso   1.00
C1725  C     0.51573   0.69131   0.87354   0.00000  Uiso   1.00
C1726  C     0.48189   0.97503   0.79463   0.00000  Uiso   1.00
N1727  N     0.50000   0.95069   0.83333   0.00000  Uiso   1.00
N1728  N     0.50000   0.71598   0.83333   0.00000  Uiso   1.00
O1729  O     0.37389   0.75416   0.86286   0.00000  Uiso   1.00
C1730  C     0.37955   0.71568   0.83240   0.00000  Uiso   1.00
H1731  H     0.41258   0.70899   0.83181   0.00000  Uiso   1.00
H1732  H     0.36582   0.71924   0.79417   0.00000  Uiso   1.00
H1733  H     0.36684   0.68451   0.84940   0.00000  Uiso   1.00
O1734  O     0.62646   0.91667   0.84259   0.00000  Uiso   1.00
C1735  C     0.63481   0.93100   0.89160   0.00000  Uiso   1.00
H1736  H     0.62175   0.90629   0.91757   0.00000  Uiso   1.00
H1737  H     0.62033   0.96502   0.89631   0.00000  Uiso   1.00
H1738  H     0.33475   0.93576   0.90098   0.00000  Uiso   1.00
O1739  O     0.62607   0.75415   0.80373   0.00000  Uiso   1.00
C1740  C     0.62038   0.71571   0.83420   0.00000  Uiso   1.00
H1741  H     0.58734   0.70907   0.83482   0.00000  Uiso   1.00
H1742  H     0.63413   0.71926   0.87243   0.00000  Uiso   1.00
H1743  H     0.63302   0.68451   0.81720   0.00000  Uiso   1.00
O1744  O     0.37349   0.91655   0.82281   0.00000  Uiso   1.00
C1745  C     0.36540   0.93003   0.77349   0.00000  Uiso   1.00
H1746  H     0.37960   0.90553   0.74828   0.00000  Uiso   1.00
H1747  H     0.37890   0.96454   0.76854   0.00000  Uiso   1.00
H1748  H     0.66547   0.93338   0.76329   0.00000  Uiso   1.00
O1749  O     0.47764   0.71345   0.74846   0.00000  Uiso   1.00
C1750  C     0.43581   0.72181   0.73702   0.00000  Uiso   1.00
H1751  H     0.41654   0.69117   0.74286   0.00000  Uiso   1.00
H1752  H     0.43149   0.73063   0.69751   0.00000  Uiso   1.00
H1753  H     0.42536   0.75212   0.75728   0.00000  Uiso   1.00
O1754  O     0.54170   0.95105   0.90745   0.00000  Uiso   1.00
C1755  C     0.52424   0.95319   0.95301   0.00000  Uiso   1.00
H1756  H     0.53416   0.92217   0.97446   0.00000  Uiso   1.00
H1757  H     0.49023   0.95343   0.94919   0.00000  Uiso   1.00
H1758  H     0.53603   0.98297   0.97505   0.00000  Uiso   1.00
O1759  O     0.52232   0.71346   0.91822   0.00000  Uiso   1.00
C1760  C     0.56414   0.72188   0.92969   0.00000  Uiso   1.00
H1761  H     0.58343   0.69123   0.92398   0.00000  Uiso   1.00
H1762  H     0.56841   0.73082   0.96918   0.00000  Uiso   1.00
H1763  H     0.57460   0.75213   0.90935   0.00000  Uiso   1.00
O1764  O     0.45828   0.95104   0.75923   0.00000  Uiso   1.00
C1765  C     0.47573   0.95317   0.71367   0.00000  Uiso   1.00
H1766  H     0.46580   0.92215   0.69223   0.00000  Uiso   1.00
H1767  H     0.50974   0.95342   0.71747   0.00000  Uiso   1.00
H1768  H     0.46393   0.98295   0.69163   0.00000  Uiso   1.00
O1769  O     0.77321   0.87291   0.83333   0.00000  Uiso   1.00
O1770  O     0.89345   0.79375   0.83334   0.00000  Uiso   1.00
O1771  O     0.89345   0.87291   0.83334   0.00000  Uiso   1.00
O1772  O     0.77321   0.79375   0.83333   0.00000  Uiso   1.00
C1773  C     0.75413   0.83327   0.83399   0.00000  Uiso   1.00
C1774  C     0.91253   0.83327   0.83260   0.00000  Uiso   1.00
O1775  O     0.83333   0.87292   0.76280   0.00000  Uiso   1.00
O1776  O     0.83333   0.79375   0.90387   0.00000  Uiso   1.00
O1777  O     0.83333   0.87292   0.90387   0.00000  Uiso   1.00
O1778  O     0.83333   0.79375   0.76280   0.00000  Uiso   1.00
C1779  C     0.83324   0.83329   0.74029   0.00000  Uiso   1.00
C1780  C     0.83342   0.83329   0.92638   0.00000  Uiso   1.00
Cu1781 Cu    0.83333   0.88022   0.83333   0.00000  Uiso   1.00
Cu1782 Cu    0.83333   0.78645   0.83333   0.00000  Uiso   1.00
C1783  C     0.83332   0.83308   0.68851   0.00000  Uiso   1.00
C1784  C     0.83334   0.83308   0.97816   0.00000  Uiso   1.00
C1785  C     0.68807   0.79069   0.83752   0.00000  Uiso   1.00
C1786  C     0.97920   0.87483   0.83650   0.00000  Uiso   1.00
C1787  C     0.97856   0.79069   0.82905   0.00000  Uiso   1.00
C1788  C     0.68746   0.87479   0.82951   0.00000  Uiso   1.00
C1789  C     0.95729   0.83299   0.83238   0.00000  Uiso   1.00
C1790  C     0.70937   0.83297   0.83404   0.00000  Uiso   1.00
C1791  C     0.81759   0.69131   0.79314   0.00000  Uiso   1.00
C1792  C     0.85144   0.97503   0.87204   0.00000  Uiso   1.00
C1793  C     0.84907   0.69131   0.87354   0.00000  Uiso   1.00
C1794  C     0.81522   0.97503   0.79463   0.00000  Uiso   1.00
N1795  N     0.83333   0.95069   0.83333   0.00000  Uiso   1.00
N1796  N     0.83333   0.71598   0.83333   0.00000  Uiso   1.00
O1797  O     0.70723   0.75416   0.86286   0.00000  Uiso   1.00
C1798  C     0.71288   0.71568   0.83240   0.00000  Uiso   1.00
H1799  H     0.74591   0.70899   0.83181   0.00000  Uiso   1.00
H1800  H     0.69915   0.71924   0.79417   0.00000  Uiso   1.00
H1801  H     0.70018   0.68451   0.84940   0.00000  Uiso   1.00
O1802  O     0.95980   0.91667   0.84259   0.00000  Uiso   1.00
C1803  C     0.96815   0.93100   0.89160   0.00000  Uiso   1.00
H1804  H     0.95508   0.90629   0.91757   0.00000  Uiso   1.00
H1805  H     0.95367   0.96502   0.89631   0.00000  Uiso   1.00
H1806  H     0.66808   0.93576   0.90098   0.00000  Uiso   1.00
O1807  O     0.95941   0.75415   0.80373   0.00000  Uiso   1.00
C1808  C     0.95371   0.71571   0.83420   0.00000  Uiso   1.00
H1809  H     0.92067   0.70907   0.83482   0.00000  Uiso   1.00
H1810  H     0.96746   0.71926   0.87243   0.00000  Uiso   1.00
H1811  H     0.96636   0.68451   0.81720   0.00000  Uiso   1.00
O1812  O     0.70682   0.91655   0.82281   0.00000  Uiso   1.00
C1813  C     0.69873   0.93003   0.77349   0.00000  Uiso   1.00
H1814  H     0.71293   0.90553   0.74828   0.00000  Uiso   1.00
H1815  H     0.71224   0.96454   0.76854   0.00000  Uiso   1.00
H1816  H     0.99880   0.93338   0.76329   0.00000  Uiso   1.00
O1817  O     0.81097   0.71345   0.74846   0.00000  Uiso   1.00
C1818  C     0.76914   0.72181   0.73702   0.00000  Uiso   1.00
H1819  H     0.74987   0.69117   0.74286   0.00000  Uiso   1.00
H1820  H     0.76483   0.73063   0.69751   0.00000  Uiso   1.00
H1821  H     0.75870   0.75212   0.75728   0.00000  Uiso   1.00
O1822  O     0.87503   0.95105   0.90745   0.00000  Uiso   1.00
C1823  C     0.85757   0.95319   0.95301   0.00000  Uiso   1.00
H1824  H     0.86749   0.92217   0.97446   0.00000  Uiso   1.00
H1825  H     0.82357   0.95343   0.94919   0.00000  Uiso   1.00
H1826  H     0.86937   0.98297   0.97505   0.00000  Uiso   1.00
O1827  O     0.85566   0.71346   0.91822   0.00000  Uiso   1.00
C1828  C     0.89748   0.72188   0.92969   0.00000  Uiso   1.00
H1829  H     0.91676   0.69123   0.92398   0.00000  Uiso   1.00
H1830  H     0.90175   0.73082   0.96918   0.00000  Uiso   1.00
H1831  H     0.90794   0.75213   0.90935   0.00000  Uiso   1.00
O1832  O     0.79162   0.95104   0.75923   0.00000  Uiso   1.00
C1833  C     0.80906   0.95317   0.71367   0.00000  Uiso   1.00
H1834  H     0.79913   0.92215   0.69223   0.00000  Uiso   1.00
H1835  H     0.84307   0.95342   0.71747   0.00000  Uiso   1.00
H1836  H     0.79727   0.98295   0.69163   0.00000  Uiso   1.00
loop_
_geom_bond_atom_site_label_1
_geom_bond_atom_site_label_2
_geom_bond_distance
_geom_bond_site_symmetry_2
_ccdc_geom_bond_type
O1     C5      1.307   .     A
O1     Cu13    1.986   .     S
O2     C6      1.304   .     A
O2     Cu14    1.986   .     S
O3     Cu13    1.986   .     S
O3     C6      1.307   .     A
O4     C5      1.304   .     A
O4     Cu14    1.986   .     S
C5     C22     1.471   .     S
C6     C21     1.471   .     S
O7     C11     1.300   .     A
O7     Cu13    1.940   .     S
O8     C12     1.298   .     A
O8     Cu14    1.940   .     S
O9     C12     1.300   .     A
O9     Cu13    1.940   .     S
O10    C11     1.298   .     A
O10    Cu14    1.940   .     S
C11    C15     1.416   .     S
C12    C16     1.416   .     S
Cu13   N27     2.037   .     S
Cu13   Cu14    2.710   .     S
Cu14   N28     2.037   .     S
C15    C1240   1.194   1_554 S
C16    C627    1.194   .     S
C17    O29     1.389   .     S
C17    C22     1.415   .     A
C17    C155    1.410   1_455 S
C18    C21     1.408   .     A
C18    O34     1.383   .     S
C18    C88     1.393   .     S
C19    C21     1.414   .     A
C19    O39     1.389   .     S
C19    C85     1.410   .     S
C20    O44     1.383   .     S
C20    C22     1.408   .     A
C20    C154    1.393   1_455 S
C23    N28     1.380   .     A
C23    O49     1.383   .     S
C23    C434    1.437   1_545 S
C24    N27     1.371   .     A
C24    O54     1.383   .     S
C24    C229    1.437   .     S
C25    N28     1.380   .     A
C25    O59     1.383   .     S
C25    C432    1.437   1_545 S
C26    N27     1.371   .     A
C26    O64     1.383   .     S
C26    C227    1.437   .     S
O29    C30     1.409   .     S
C30    H32     1.114   .     S
C30    H31     1.103   .     S
C30    H33     1.109   .     S
O34    C35     1.411   .     S
C35    H37     1.104   .     S
C35    H36     1.114   .     S
C35    H106    1.113   .     S
H38    C171    1.113   1_455 S
O39    C40     1.409   .     S
C40    H42     1.114   .     S
C40    H41     1.103   .     S
C40    H43     1.108   .     S
O44    C45     1.411   .     S
C45    H46     1.113   .     S
C45    H47     1.104   .     S
C45    H184    1.113   1_455 S
H48    C113    1.113   .     S
O49    C50     1.409   .     S
C50    H52     1.109   .     S
C50    H51     1.107   .     S
C50    H53     1.104   .     S
O54    C55     1.408   .     S
C55    H56     1.108   .     S
C55    H57     1.115   .     S
C55    H58     1.105   .     S
O59    C60     1.409   .     S
C60    H63     1.104   .     S
C60    H62     1.109   .     S
C60    H61     1.107   .     S
O64    C65     1.408   .     S
C65    H68     1.105   .     S
C65    H66     1.108   .     S
C65    H67     1.115   .     S
O69    C73     1.307   .     A
O69    Cu81    1.986   .     S
O70    C74     1.304   .     A
O70    Cu82    1.986   .     S
O71    Cu81    1.986   .     S
O71    C74     1.307   .     A
O72    C73     1.304   .     A
O72    Cu82    1.986   .     S
C73    C90     1.471   .     S
C74    C89     1.471   .     S
O75    C79     1.300   .     A
O75    Cu81    1.940   .     S
O76    C80     1.298   .     A
O76    Cu82    1.940   .     S
O77    C80     1.300   .     A
O77    Cu81    1.940   .     S
O78    C79     1.298   .     A
O78    Cu82    1.940   .     S
C79    C83     1.416   .     S
C80    C84     1.416   .     S
Cu81   N95     2.037   .     S
Cu81   Cu82    2.710   .     S
Cu82   N96     2.037   .     S
C83    C1308   1.194   1_554 S
C84    C695    1.194   .     S
C85    O97     1.389   .     S
C85    C90     1.415   .     A
C86    C89     1.408   .     A
C86    O102    1.383   .     S
C86    C156    1.393   .     S
C87    C89     1.414   .     A
C87    O107    1.389   .     S
C87    C153    1.410   .     S
C88    O112    1.383   .     S
C88    C90     1.408   .     A
C91    N96     1.380   .     A
C91    O117    1.383   .     S
C91    C502    1.437   1_545 S
C92    N95     1.371   .     A
C92    O122    1.383   .     S
C92    C297    1.437   .     S
C93    N96     1.380   .     A
C93    O127    1.383   .     S
C93    C500    1.437   1_545 S
C94    N95     1.371   .     A
C94    O132    1.383   .     S
C94    C295    1.437   .     S
O97    C98     1.409   .     S
C98    H100    1.114   .     S
C98    H99     1.103   .     S
C98    H101    1.109   .     S
O102   C103    1.411   .     S
C103   H105    1.104   .     S
C103   H104    1.114   .     S
C103   H174    1.113   .     S
O107   C108    1.409   .     S
C108   H110    1.114   .     S
C108   H109    1.103   .     S
C108   H111    1.108   .     S
O112   C113    1.411   .     S
C113   H114    1.113   .     S
C113   H115    1.104   .     S
H116   C181    1.113   .     S
O117   C118    1.409   .     S
C118   H120    1.109   .     S
C118   H119    1.107   .     S
C118   H121    1.104   .     S
O122   C123    1.408   .     S
C123   H124    1.108   .     S
C123   H125    1.115   .     S
C123   H126    1.105   .     S
O127   C128    1.409   .     S
C128   H131    1.104   .     S
C128   H130    1.109   .     S
C128   H129    1.107   .     S
O132   C133    1.408   .     S
C133   H136    1.105   .     S
C133   H134    1.108   .     S
C133   H135    1.115   .     S
O137   C141    1.307   .     A
O137   Cu149   1.986   .     S
O138   C142    1.304   .     A
O138   Cu150   1.986   .     S
O139   Cu149   1.986   .     S
O139   C142    1.307   .     A
O140   C141    1.304   .     A
O140   Cu150   1.986   .     S
C141   C158    1.471   .     S
C142   C157    1.471   .     S
O143   C147    1.300   .     A
O143   Cu149   1.940   .     S
O144   C148    1.298   .     A
O144   Cu150   1.940   .     S
O145   C148    1.300   .     A
O145   Cu149   1.940   .     S
O146   C147    1.298   .     A
O146   Cu150   1.940   .     S
C147   C151    1.416   .     S
C148   C152    1.416   .     S
Cu149  N163    2.037   .     S
Cu149  Cu150   2.710   .     S
Cu150  N164    2.037   .     S
C151   C1376   1.194   1_554 S
C152   C763    1.194   .     S
C153   O165    1.389   .     S
C153   C158    1.415   .     A
C154   C157    1.408   .     A
C154   O170    1.383   .     S
C154   C20     1.393   1_655 S
C155   C157    1.414   .     A
C155   O175    1.389   .     S
C155   C17     1.410   1_655 S
C156   O180    1.383   .     S
C156   C158    1.408   .     A
C159   N164    1.380   .     A
C159   O185    1.383   .     S
C159   C570    1.437   1_545 S
C160   N163    1.371   .     A
C160   O190    1.383   .     S
C160   C365    1.437   .     S
C161   N164    1.380   .     A
C161   O195    1.383   .     S
C161   C568    1.437   1_545 S
C162   N163    1.371   .     A
C162   O200    1.383   .     S
C162   C363    1.437   .     S
O165   C166    1.409   .     S
C166   H168    1.114   .     S
C166   H167    1.103   .     S
C166   H169    1.109   .     S
O170   C171    1.411   .     S
C171   H173    1.104   .     S
C171   H172    1.114   .     S
C171   H38     1.113   1_655 S
O175   C176    1.409   .     S
C176   H178    1.114   .     S
C176   H177    1.103   .     S
C176   H179    1.108   .     S
O180   C181    1.411   .     S
C181   H182    1.113   .     S
C181   H183    1.104   .     S
H184   C45     1.113   1_655 S
O185   C186    1.409   .     S
C186   H188    1.109   .     S
C186   H187    1.107   .     S
C186   H189    1.104   .     S
O190   C191    1.408   .     S
C191   H192    1.108   .     S
C191   H193    1.115   .     S
C191   H194    1.105   .     S
O195   C196    1.409   .     S
C196   H199    1.104   .     S
C196   H198    1.109   .     S
C196   H197    1.107   .     S
O200   C201    1.408   .     S
C201   H204    1.105   .     S
C201   H202    1.108   .     S
C201   H203    1.115   .     S
O205   C209    1.307   .     A
O205   Cu217   1.986   .     S
O206   C210    1.304   .     A
O206   Cu218   1.986   .     S
O207   Cu217   1.986   .     S
O207   C210    1.307   .     A
O208   C209    1.304   .     A
O208   Cu218   1.986   .     S
C209   C226    1.471   .     S
C210   C225    1.471   .     S
O211   C215    1.300   .     A
O211   Cu217   1.940   .     S
O212   C216    1.298   .     A
O212   Cu218   1.940   .     S
O213   C216    1.300   .     A
O213   Cu217   1.940   .     S
O214   C215    1.298   .     A
O214   Cu218   1.940   .     S
C215   C219    1.416   .     S
C216   C220    1.416   .     S
Cu217  N231    2.037   .     S
Cu217  Cu218   2.710   .     S
Cu218  N232    2.037   .     S
C219   C1444   1.194   1_554 S
C220   C831    1.194   .     S
C221   O233    1.389   .     S
C221   C226    1.415   .     A
C221   C359    1.410   1_455 S
C222   C225    1.408   .     A
C222   O238    1.383   .     S
C222   C292    1.393   .     S
C223   C225    1.414   .     A
C223   O243    1.389   .     S
C223   C289    1.410   .     S
C224   O248    1.383   .     S
C224   C226    1.408   .     A
C224   C358    1.393   1_455 S
C227   N232    1.380   .     A
C227   O253    1.383   .     S
C228   N231    1.371   .     A
C228   O258    1.383   .     S
C228   C433    1.437   .     S
C229   N232    1.380   .     A
C229   O263    1.383   .     S
C230   N231    1.371   .     A
C230   O268    1.383   .     S
C230   C431    1.437   .     S
O233   C234    1.409   .     S
C234   H236    1.114   .     S
C234   H235    1.103   .     S
C234   H237    1.109   .     S
O238   C239    1.411   .     S
C239   H241    1.104   .     S
C239   H240    1.114   .     S
C239   H310    1.113   .     S
H242   C375    1.113   1_455 S
O243   C244    1.409   .     S
C244   H246    1.114   .     S
C244   H245    1.103   .     S
C244   H247    1.108   .     S
O248   C249    1.411   .     S
C249   H250    1.113   .     S
C249   H251    1.104   .     S
C249   H388    1.113   1_455 S
H252   C317    1.113   .     S
O253   C254    1.409   .     S
C254   H256    1.109   .     S
C254   H255    1.107   .     S
C254   H257    1.104   .     S
O258   C259    1.408   .     S
C259   H260    1.108   .     S
C259   H261    1.115   .     S
C259   H262    1.105   .     S
O263   C264    1.409   .     S
C264   H267    1.104   .     S
C264   H266    1.109   .     S
C264   H265    1.107   .     S
O268   C269    1.408   .     S
C269   H272    1.105   .     S
C269   H270    1.108   .     S
C269   H271    1.115   .     S
O273   C277    1.307   .     A
O273   Cu285   1.986   .     S
O274   C278    1.304   .     A
O274   Cu286   1.986   .     S
O275   Cu285   1.986   .     S
O275   C278    1.307   .     A
O276   C277    1.304   .     A
O276   Cu286   1.986   .     S
C277   C294    1.471   .     S
C278   C293    1.471   .     S
O279   C283    1.300   .     A
O279   Cu285   1.940   .     S
O280   C284    1.298   .     A
O280   Cu286   1.940   .     S
O281   C284    1.300   .     A
O281   Cu285   1.940   .     S
O282   C283    1.298   .     A
O282   Cu286   1.940   .     S
C283   C287    1.416   .     S
C284   C288    1.416   .     S
Cu285  N299    2.037   .     S
Cu285  Cu286   2.710   .     S
Cu286  N300    2.037   .     S
C287   C1512   1.194   1_554 S
C288   C899    1.194   .     S
C289   O301    1.389   .     S
C289   C294    1.415   .     A
C290   C293    1.408   .     A
C290   O306    1.383   .     S
C290   C360    1.393   .     S
C291   C293    1.414   .     A
C291   O311    1.389   .     S
C291   C357    1.410   .     S
C292   O316    1.383   .     S
C292   C294    1.408   .     A
C295   N300    1.380   .     A
C295   O321    1.383   .     S
C296   N299    1.371   .     A
C296   O326    1.383   .     S
C296   C501    1.437   .     S
C297   N300    1.380   .     A
C297   O331    1.383   .     S
C298   N299    1.371   .     A
C298   O336    1.383   .     S
C298   C499    1.437   .     S
O301   C302    1.409   .     S
C302   H304    1.114   .     S
C302   H303    1.103   .     S
C302   H305    1.109   .     S
O306   C307    1.411   .     S
C307   H309    1.104   .     S
C307   H308    1.114   .     S
C307   H378    1.113   .     S
O311   C312    1.409   .     S
C312   H314    1.114   .     S
C312   H313    1.103   .     S
C312   H315    1.108   .     S
O316   C317    1.411   .     S
C317   H318    1.113   .     S
C317   H319    1.104   .     S
H320   C385    1.113   .     S
O321   C322    1.409   .     S
C322   H324    1.109   .     S
C322   H323    1.107   .     S
C322   H325    1.104   .     S
O326   C327    1.408   .     S
C327   H328    1.108   .     S
C327   H329    1.115   .     S
C327   H330    1.105   .     S
O331   C332    1.409   .     S
C332   H335    1.104   .     S
C332   H334    1.109   .     S
C332   H333    1.107   .     S
O336   C337    1.408   .     S
C337   H340    1.105   .     S
C337   H338    1.108   .     S
C337   H339    1.115   .     S
O341   C345    1.307   .     A
O341   Cu353   1.986   .     S
O342   C346    1.304   .     A
O342   Cu354   1.986   .     S
O343   Cu353   1.986   .     S
O343   C346    1.307   .     A
O344   C345    1.304   .     A
O344   Cu354   1.986   .     S
C345   C362    1.471   .     S
C346   C361    1.471   .     S
O347   C351    1.300   .     A
O347   Cu353   1.940   .     S
O348   C352    1.298   .     A
O348   Cu354   1.940   .     S
O349   C352    1.300   .     A
O349   Cu353   1.940   .     S
O350   C351    1.298   .     A
O350   Cu354   1.940   .     S
C351   C355    1.416   .     S
C352   C356    1.416   .     S
Cu353  N367    2.037   .     S
Cu353  Cu354   2.710   .     S
Cu354  N368    2.037   .     S
C355   C1580   1.194   1_554 S
C356   C967    1.194   .     S
C357   O369    1.389   .     S
C357   C362    1.415   .     A
C358   C361    1.408   .     A
C358   O374    1.383   .     S
C358   C224    1.393   1_655 S
C359   C361    1.414   .     A
C359   O379    1.389   .     S
C359   C221    1.410   1_655 S
C360   O384    1.383   .     S
C360   C362    1.408   .     A
C363   N368    1.380   .     A
C363   O389    1.383   .     S
C364   N367    1.371   .     A
C364   O394    1.383   .     S
C364   C569    1.437   .     S
C365   N368    1.380   .     A
C365   O399    1.383   .     S
C366   N367    1.371   .     A
C366   O404    1.383   .     S
C366   C567    1.437   .     S
O369   C370    1.409   .     S
C370   H372    1.114   .     S
C370   H371    1.103   .     S
C370   H373    1.109   .     S
O374   C375    1.411   .     S
C375   H377    1.104   .     S
C375   H376    1.114   .     S
C375   H242    1.113   1_655 S
O379   C380    1.409   .     S
C380   H382    1.114   .     S
C380   H381    1.103   .     S
C380   H383    1.108   .     S
O384   C385    1.411   .     S
C385   H386    1.113   .     S
C385   H387    1.104   .     S
H388   C249    1.113   1_655 S
O389   C390    1.409   .     S
C390   H392    1.109   .     S
C390   H391    1.107   .     S
C390   H393    1.104   .     S
O394   C395    1.408   .     S
C395   H396    1.108   .     S
C395   H397    1.115   .     S
C395   H398    1.105   .     S
O399   C400    1.409   .     S
C400   H403    1.104   .     S
C400   H402    1.109   .     S
C400   H401    1.107   .     S
O404   C405    1.408   .     S
C405   H408    1.105   .     S
C405   H406    1.108   .     S
C405   H407    1.115   .     S
O409   C413    1.307   .     A
O409   Cu421   1.986   .     S
O410   C414    1.304   .     A
O410   Cu422   1.986   .     S
O411   Cu421   1.986   .     S
O411   C414    1.307   .     A
O412   C413    1.304   .     A
O412   Cu422   1.986   .     S
C413   C430    1.471   .     S
C414   C429    1.471   .     S
O415   C419    1.300   .     A
O415   Cu421   1.940   .     S
O416   C420    1.298   .     A
O416   Cu422   1.940   .     S
O417   C420    1.300   .     A
O417   Cu421   1.940   .     S
O418   C419    1.298   .     A
O418   Cu422   1.940   .     S
C419   C423    1.416   .     S
C420   C424    1.416   .     S
Cu421  N435    2.037   .     S
Cu421  Cu422   2.710   .     S
Cu422  N436    2.037   .     S
C423   C1648   1.194   1_554 S
C424   C1035   1.194   .     S
C425   O437    1.389   .     S
C425   C430    1.415   .     A
C425   C563    1.410   1_455 S
C426   C429    1.408   .     A
C426   O442    1.383   .     S
C426   C496    1.393   .     S
C427   C429    1.414   .     A
C427   O447    1.389   .     S
C427   C493    1.410   .     S
C428   O452    1.383   .     S
C428   C430    1.408   .     A
C428   C562    1.393   1_455 S
C431   N436    1.380   .     A
C431   O457    1.383   .     S
C432   N435    1.371   .     A
C432   O462    1.383   .     S
C432   C25     1.437   1_565 S
C433   N436    1.380   .     A
C433   O467    1.383   .     S
C434   N435    1.371   .     A
C434   O472    1.383   .     S
C434   C23     1.437   1_565 S
O437   C438    1.409   .     S
C438   H440    1.114   .     S
C438   H439    1.103   .     S
C438   H441    1.109   .     S
O442   C443    1.411   .     S
C443   H445    1.104   .     S
C443   H444    1.114   .     S
C443   H514    1.113   .     S
H446   C579    1.113   1_455 S
O447   C448    1.409   .     S
C448   H450    1.114   .     S
C448   H449    1.103   .     S
C448   H451    1.108   .     S
O452   C453    1.411   .     S
C453   H454    1.113   .     S
C453   H455    1.104   .     S
C453   H592    1.113   1_455 S
H456   C521    1.113   .     S
O457   C458    1.409   .     S
C458   H460    1.109   .     S
C458   H459    1.107   .     S
C458   H461    1.104   .     S
O462   C463    1.408   .     S
C463   H464    1.108   .     S
C463   H465    1.115   .     S
C463   H466    1.105   .     S
O467   C468    1.409   .     S
C468   H471    1.104   .     S
C468   H470    1.109   .     S
C468   H469    1.107   .     S
O472   C473    1.408   .     S
C473   H476    1.105   .     S
C473   H474    1.108   .     S
C473   H475    1.115   .     S
O477   C481    1.307   .     A
O477   Cu489   1.986   .     S
O478   C482    1.304   .     A
O478   Cu490   1.986   .     S
O479   Cu489   1.986   .     S
O479   C482    1.307   .     A
O480   C481    1.304   .     A
O480   Cu490   1.986   .     S
C481   C498    1.471   .     S
C482   C497    1.471   .     S
O483   C487    1.300   .     A
O483   Cu489   1.940   .     S
O484   C488    1.298   .     A
O484   Cu490   1.940   .     S
O485   C488    1.300   .     A
O485   Cu489   1.940   .     S
O486   C487    1.298   .     A
O486   Cu490   1.940   .     S
C487   C491    1.416   .     S
C488   C492    1.416   .     S
Cu489  N503    2.037   .     S
Cu489  Cu490   2.710   .     S
Cu490  N504    2.037   .     S
C491   C1716   1.194   1_554 S
C492   C1103   1.194   .     S
C493   O505    1.389   .     S
C493   C498    1.415   .     A
C494   C497    1.408   .     A
C494   O510    1.383   .     S
C494   C564    1.393   .     S
C495   C497    1.414   .     A
C495   O515    1.389   .     S
C495   C561    1.410   .     S
C496   O520    1.383   .     S
C496   C498    1.408   .     A
C499   N504    1.380   .     A
C499   O525    1.383   .     S
C500   N503    1.371   .     A
C500   O530    1.383   .     S
C500   C93     1.437   1_565 S
C501   N504    1.380   .     A
C501   O535    1.383   .     S
C502   N503    1.371   .     A
C502   O540    1.383   .     S
C502   C91     1.437   1_565 S
O505   C506    1.409   .     S
C506   H508    1.114   .     S
C506   H507    1.103   .     S
C506   H509    1.109   .     S
O510   C511    1.411   .     S
C511   H513    1.104   .     S
C511   H512    1.114   .     S
C511   H582    1.113   .     S
O515   C516    1.409   .     S
C516   H518    1.114   .     S
C516   H517    1.103   .     S
C516   H519    1.108   .     S
O520   C521    1.411   .     S
C521   H522    1.113   .     S
C521   H523    1.104   .     S
H524   C589    1.113   .     S
O525   C526    1.409   .     S
C526   H528    1.109   .     S
C526   H527    1.107   .     S
C526   H529    1.104   .     S
O530   C531    1.408   .     S
C531   H532    1.108   .     S
C531   H533    1.115   .     S
C531   H534    1.105   .     S
O535   C536    1.409   .     S
C536   H539    1.104   .     S
C536   H538    1.109   .     S
C536   H537    1.107   .     S
O540   C541    1.408   .     S
C541   H544    1.105   .     S
C541   H542    1.108   .     S
C541   H543    1.115   .     S
O545   C549    1.307   .     A
O545   Cu557   1.986   .     S
O546   C550    1.304   .     A
O546   Cu558   1.986   .     S
O547   Cu557   1.986   .     S
O547   C550    1.307   .     A
O548   C549    1.304   .     A
O548   Cu558   1.986   .     S
C549   C566    1.471   .     S
C550   C565    1.471   .     S
O551   C555    1.300   .     A
O551   Cu557   1.940   .     S
O552   C556    1.298   .     A
O552   Cu558   1.940   .     S
O553   C556    1.300   .     A
O553   Cu557   1.940   .     S
O554   C555    1.298   .     A
O554   Cu558   1.940   .     S
C555   C559    1.416   .     S
C556   C560    1.416   .     S
Cu557  N571    2.037   .     S
Cu557  Cu558   2.710   .     S
Cu558  N572    2.037   .     S
C559   C1784   1.194   1_554 S
C560   C1171   1.194   .     S
C561   O573    1.389   .     S
C561   C566    1.415   .     A
C562   C565    1.408   .     A
C562   O578    1.383   .     S
C562   C428    1.393   1_655 S
C563   C565    1.414   .     A
C563   O583    1.389   .     S
C563   C425    1.410   1_655 S
C564   O588    1.383   .     S
C564   C566    1.408   .     A
C567   N572    1.380   .     A
C567   O593    1.383   .     S
C568   N571    1.371   .     A
C568   O598    1.383   .     S
C568   C161    1.437   1_565 S
C569   N572    1.380   .     A
C569   O603    1.383   .     S
C570   N571    1.371   .     A
C570   O608    1.383   .     S
C570   C159    1.437   1_565 S
O573   C574    1.409   .     S
C574   H576    1.114   .     S
C574   H575    1.103   .     S
C574   H577    1.109   .     S
O578   C579    1.411   .     S
C579   H581    1.104   .     S
C579   H580    1.114   .     S
C579   H446    1.113   1_655 S
O583   C584    1.409   .     S
C584   H586    1.114   .     S
C584   H585    1.103   .     S
C584   H587    1.108   .     S
O588   C589    1.411   .     S
C589   H590    1.113   .     S
C589   H591    1.104   .     S
H592   C453    1.113   1_655 S
O593   C594    1.409   .     S
C594   H596    1.109   .     S
C594   H595    1.107   .     S
C594   H597    1.104   .     S
O598   C599    1.408   .     S
C599   H600    1.108   .     S
C599   H601    1.115   .     S
C599   H602    1.105   .     S
O603   C604    1.409   .     S
C604   H607    1.104   .     S
C604   H606    1.109   .     S
C604   H605    1.107   .     S
O608   C609    1.408   .     S
C609   H612    1.105   .     S
C609   H610    1.108   .     S
C609   H611    1.115   .     S
O613   C617    1.307   .     A
O613   Cu625   1.986   .     S
O614   C618    1.304   .     A
O614   Cu626   1.986   .     S
O615   Cu625   1.986   .     S
O615   C618    1.307   .     A
O616   C617    1.304   .     A
O616   Cu626   1.986   .     S
C617   C634    1.471   .     S
C618   C633    1.471   .     S
O619   C623    1.300   .     A
O619   Cu625   1.940   .     S
O620   C624    1.298   .     A
O620   Cu626   1.940   .     S
O621   C624    1.300   .     A
O621   Cu625   1.940   .     S
O622   C623    1.298   .     A
O622   Cu626   1.940   .     S
C623   C627    1.416   .     S
C624   C628    1.416   .     S
Cu625  N639    2.037   .     S
Cu625  Cu626   2.710   .     S
Cu626  N640    2.037   .     S
C628   C1239   1.194   .     S
C629   O641    1.389   .     S
C629   C634    1.415   .     A
C629   C767    1.410   1_455 S
C630   C633    1.408   .     A
C630   O646    1.383   .     S
C630   C700    1.393   .     S
C631   C633    1.414   .     A
C631   O651    1.389   .     S
C631   C697    1.410   .     S
C632   O656    1.383   .     S
C632   C634    1.408   .     A
C632   C766    1.393   1_455 S
C635   N640    1.380   .     A
C635   O661    1.383   .     S
C635   C1046   1.437   1_545 S
C636   N639    1.371   .     A
C636   O666    1.383   .     S
C636   C841    1.437   .     S
C637   N640    1.380   .     A
C637   O671    1.383   .     S
C637   C1044   1.437   1_545 S
C638   N639    1.371   .     A
C638   O676    1.383   .     S
C638   C839    1.437   .     S
O641   C642    1.409   .     S
C642   H644    1.114   .     S
C642   H643    1.103   .     S
C642   H645    1.109   .     S
O646   C647    1.411   .     S
C647   H649    1.104   .     S
C647   H648    1.114   .     S
C647   H718    1.113   .     S
H650   C783    1.113   1_455 S
O651   C652    1.409   .     S
C652   H654    1.114   .     S
C652   H653    1.103   .     S
C652   H655    1.108   .     S
O656   C657    1.411   .     S
C657   H658    1.113   .     S
C657   H659    1.104   .     S
C657   H796    1.113   1_455 S
H660   C725    1.113   .     S
O661   C662    1.409   .     S
C662   H664    1.109   .     S
C662   H663    1.107   .     S
C662   H665    1.104   .     S
O666   C667    1.408   .     S
C667   H668    1.108   .     S
C667   H669    1.115   .     S
C667   H670    1.105   .     S
O671   C672    1.409   .     S
C672   H675    1.104   .     S
C672   H674    1.109   .     S
C672   H673    1.107   .     S
O676   C677    1.408   .     S
C677   H680    1.105   .     S
C677   H678    1.108   .     S
C677   H679    1.115   .     S
O681   C685    1.307   .     A
O681   Cu693   1.986   .     S
O682   C686    1.304   .     A
O682   Cu694   1.986   .     S
O683   Cu693   1.986   .     S
O683   C686    1.307   .     A
O684   C685    1.304   .     A
O684   Cu694   1.986   .     S
C685   C702    1.471   .     S
C686   C701    1.471   .     S
O687   C691    1.300   .     A
O687   Cu693   1.940   .     S
O688   C692    1.298   .     A
O688   Cu694   1.940   .     S
O689   C692    1.300   .     A
O689   Cu693   1.940   .     S
O690   C691    1.298   .     A
O690   Cu694   1.940   .     S
C691   C695    1.416   .     S
C692   C696    1.416   .     S
Cu693  N707    2.037   .     S
Cu693  Cu694   2.710   .     S
Cu694  N708    2.037   .     S
C696   C1307   1.194   .     S
C697   O709    1.389   .     S
C697   C702    1.415   .     A
C698   C701    1.408   .     A
C698   O714    1.383   .     S
C698   C768    1.393   .     S
C699   C701    1.414   .     A
C699   O719    1.389   .     S
C699   C765    1.410   .     S
C700   O724    1.383   .     S
C700   C702    1.408   .     A
C703   N708    1.380   .     A
C703   O729    1.383   .     S
C703   C1114   1.437   1_545 S
C704   N707    1.371   .     A
C704   O734    1.383   .     S
C704   C909    1.437   .     S
C705   N708    1.380   .     A
C705   O739    1.383   .     S
C705   C1112   1.437   1_545 S
C706   N707    1.371   .     A
C706   O744    1.383   .     S
C706   C907    1.437   .     S
O709   C710    1.409   .     S
C710   H712    1.114   .     S
C710   H711    1.103   .     S
C710   H713    1.109   .     S
O714   C715    1.411   .     S
C715   H717    1.104   .     S
C715   H716    1.114   .     S
C715   H786    1.113   .     S
O719   C720    1.409   .     S
C720   H722    1.114   .     S
C720   H721    1.103   .     S
C720   H723    1.108   .     S
O724   C725    1.411   .     S
C725   H726    1.113   .     S
C725   H727    1.104   .     S
H728   C793    1.113   .     S
O729   C730    1.409   .     S
C730   H732    1.109   .     S
C730   H731    1.107   .     S
C730   H733    1.104   .     S
O734   C735    1.408   .     S
C735   H736    1.108   .     S
C735   H737    1.115   .     S
C735   H738    1.105   .     S
O739   C740    1.409   .     S
C740   H743    1.104   .     S
C740   H742    1.109   .     S
C740   H741    1.107   .     S
O744   C745    1.408   .     S
C745   H748    1.105   .     S
C745   H746    1.108   .     S
C745   H747    1.115   .     S
O749   C753    1.307   .     A
O749   Cu761   1.986   .     S
O750   C754    1.304   .     A
O750   Cu762   1.986   .     S
O751   Cu761   1.986   .     S
O751   C754    1.307   .     A
O752   C753    1.304   .     A
O752   Cu762   1.986   .     S
C753   C770    1.471   .     S
C754   C769    1.471   .     S
O755   C759    1.300   .     A
O755   Cu761   1.940   .     S
O756   C760    1.298   .     A
O756   Cu762   1.940   .     S
O757   C760    1.300   .     A
O757   Cu761   1.940   .     S
O758   C759    1.298   .     A
O758   Cu762   1.940   .     S
C759   C763    1.416   .     S
C760   C764    1.416   .     S
Cu761  N775    2.037   .     S
Cu761  Cu762   2.710   .     S
Cu762  N776    2.037   .     S
C764   C1375   1.194   .     S
C765   O777    1.389   .     S
C765   C770    1.415   .     A
C766   C769    1.408   .     A
C766   O782    1.383   .     S
C766   C632    1.393   1_655 S
C767   C769    1.414   .     A
C767   O787    1.389   .     S
C767   C629    1.410   1_655 S
C768   O792    1.383   .     S
C768   C770    1.408   .     A
C771   N776    1.380   .     A
C771   O797    1.383   .     S
C771   C1182   1.437   1_545 S
C772   N775    1.371   .     A
C772   O802    1.383   .     S
C772   C977    1.437   .     S
C773   N776    1.380   .     A
C773   O807    1.383   .     S
C773   C1180   1.437   1_545 S
C774   N775    1.371   .     A
C774   O812    1.383   .     S
C774   C975    1.437   .     S
O777   C778    1.409   .     S
C778   H780    1.114   .     S
C778   H779    1.103   .     S
C778   H781    1.109   .     S
O782   C783    1.411   .     S
C783   H785    1.104   .     S
C783   H784    1.114   .     S
C783   H650    1.113   1_655 S
O787   C788    1.409   .     S
C788   H790    1.114   .     S
C788   H789    1.103   .     S
C788   H791    1.108   .     S
O792   C793    1.411   .     S
C793   H794    1.113   .     S
C793   H795    1.104   .     S
H796   C657    1.113   1_655 S
O797   C798    1.409   .     S
C798   H800    1.109   .     S
C798   H799    1.107   .     S
C798   H801    1.104   .     S
O802   C803    1.408   .     S
C803   H804    1.108   .     S
C803   H805    1.115   .     S
C803   H806    1.105   .     S
O807   C808    1.409   .     S
C808   H811    1.104   .     S
C808   H810    1.109   .     S
C808   H809    1.107   .     S
O812   C813    1.408   .     S
C813   H816    1.105   .     S
C813   H814    1.108   .     S
C813   H815    1.115   .     S
O817   C821    1.307   .     A
O817   Cu829   1.986   .     S
O818   C822    1.304   .     A
O818   Cu830   1.986   .     S
O819   Cu829   1.986   .     S
O819   C822    1.307   .     A
O820   C821    1.304   .     A
O820   Cu830   1.986   .     S
C821   C838    1.471   .     S
C822   C837    1.471   .     S
O823   C827    1.300   .     A
O823   Cu829   1.940   .     S
O824   C828    1.298   .     A
O824   Cu830   1.940   .     S
O825   C828    1.300   .     A
O825   Cu829   1.940   .     S
O826   C827    1.298   .     A
O826   Cu830   1.940   .     S
C827   C831    1.416   .     S
C828   C832    1.416   .     S
Cu829  N843    2.037   .     S
Cu829  Cu830   2.710   .     S
Cu830  N844    2.037   .     S
C832   C1443   1.194   .     S
C833   O845    1.389   .     S
C833   C838    1.415   .     A
C833   C971    1.410   1_455 S
C834   C837    1.408   .     A
C834   O850    1.383   .     S
C834   C904    1.393   .     S
C835   C837    1.414   .     A
C835   O855    1.389   .     S
C835   C901    1.410   .     S
C836   O860    1.383   .     S
C836   C838    1.408   .     A
C836   C970    1.393   1_455 S
C839   N844    1.380   .     A
C839   O865    1.383   .     S
C840   N843    1.371   .     A
C840   O870    1.383   .     S
C840   C1045   1.437   .     S
C841   N844    1.380   .     A
C841   O875    1.383   .     S
C842   N843    1.371   .     A
C842   O880    1.383   .     S
C842   C1043   1.437   .     S
O845   C846    1.409   .     S
C846   H848    1.114   .     S
C846   H847    1.103   .     S
C846   H849    1.109   .     S
O850   C851    1.411   .     S
C851   H853    1.104   .     S
C851   H852    1.114   .     S
C851   H922    1.113   .     S
H854   C987    1.113   1_455 S
O855   C856    1.409   .     S
C856   H858    1.114   .     S
C856   H857    1.103   .     S
C856   H859    1.108   .     S
O860   C861    1.411   .     S
C861   H862    1.113   .     S
C861   H863    1.104   .     S
C861   H1000   1.113   1_455 S
H864   C929    1.113   .     S
O865   C866    1.409   .     S
C866   H868    1.109   .     S
C866   H867    1.107   .     S
C866   H869    1.104   .     S
O870   C871    1.408   .     S
C871   H872    1.108   .     S
C871   H873    1.115   .     S
C871   H874    1.105   .     S
O875   C876    1.409   .     S
C876   H879    1.104   .     S
C876   H878    1.109   .     S
C876   H877    1.107   .     S
O880   C881    1.408   .     S
C881   H884    1.105   .     S
C881   H882    1.108   .     S
C881   H883    1.115   .     S
O885   C889    1.307   .     A
O885   Cu897   1.986   .     S
O886   C890    1.304   .     A
O886   Cu898   1.986   .     S
O887   Cu897   1.986   .     S
O887   C890    1.307   .     A
O888   C889    1.304   .     A
O888   Cu898   1.986   .     S
C889   C906    1.471   .     S
C890   C905    1.471   .     S
O891   C895    1.300   .     A
O891   Cu897   1.940   .     S
O892   C896    1.298   .     A
O892   Cu898   1.940   .     S
O893   C896    1.300   .     A
O893   Cu897   1.940   .     S
O894   C895    1.298   .     A
O894   Cu898   1.940   .     S
C895   C899    1.416   .     S
C896   C900    1.416   .     S
Cu897  N911    2.037   .     S
Cu897  Cu898   2.710   .     S
Cu898  N912    2.037   .     S
C900   C1511   1.194   .     S
C901   O913    1.389   .     S
C901   C906    1.415   .     A
C902   C905    1.408   .     A
C902   O918    1.383   .     S
C902   C972    1.393   .     S
C903   C905    1.414   .     A
C903   O923    1.389   .     S
C903   C969    1.410   .     S
C904   O928    1.383   .     S
C904   C906    1.408   .     A
C907   N912    1.380   .     A
C907   O933    1.383   .     S
C908   N911    1.371   .     A
C908   O938    1.383   .     S
C908   C1113   1.437   .     S
C909   N912    1.380   .     A
C909   O943    1.383   .     S
C910   N911    1.371   .     A
C910   O948    1.383   .     S
C910   C1111   1.437   .     S
O913   C914    1.409   .     S
C914   H916    1.114   .     S
C914   H915    1.103   .     S
C914   H917    1.109   .     S
O918   C919    1.411   .     S
C919   H921    1.104   .     S
C919   H920    1.114   .     S
C919   H990    1.113   .     S
O923   C924    1.409   .     S
C924   H926    1.114   .     S
C924   H925    1.103   .     S
C924   H927    1.108   .     S
O928   C929    1.411   .     S
C929   H930    1.113   .     S
C929   H931    1.104   .     S
H932   C997    1.113   .     S
O933   C934    1.409   .     S
C934   H936    1.109   .     S
C934   H935    1.107   .     S
C934   H937    1.104   .     S
O938   C939    1.408   .     S
C939   H940    1.108   .     S
C939   H941    1.115   .     S
C939   H942    1.105   .     S
O943   C944    1.409   .     S
C944   H947    1.104   .     S
C944   H946    1.109   .     S
C944   H945    1.107   .     S
O948   C949    1.408   .     S
C949   H952    1.105   .     S
C949   H950    1.108   .     S
C949   H951    1.115   .     S
O953   C957    1.307   .     A
O953   Cu965   1.986   .     S
O954   C958    1.304   .     A
O954   Cu966   1.986   .     S
O955   Cu965   1.986   .     S
O955   C958    1.307   .     A
O956   C957    1.304   .     A
O956   Cu966   1.986   .     S
C957   C974    1.471   .     S
C958   C973    1.471   .     S
O959   C963    1.300   .     A
O959   Cu965   1.940   .     S
O960   C964    1.298   .     A
O960   Cu966   1.940   .     S
O961   C964    1.300   .     A
O961   Cu965   1.940   .     S
O962   C963    1.298   .     A
O962   Cu966   1.940   .     S
C963   C967    1.416   .     S
C964   C968    1.416   .     S
Cu965  N979    2.037   .     S
Cu965  Cu966   2.710   .     S
Cu966  N980    2.037   .     S
C968   C1579   1.194   .     S
C969   O981    1.389   .     S
C969   C974    1.415   .     A
C970   C973    1.408   .     A
C970   O986    1.383   .     S
C970   C836    1.393   1_655 S
C971   C973    1.414   .     A
C971   O991    1.389   .     S
C971   C833    1.410   1_655 S
C972   O996    1.383   .     S
C972   C974    1.408   .     A
C975   N980    1.380   .     A
C975   O1001   1.383   .     S
C976   N979    1.371   .     A
C976   O1006   1.383   .     S
C976   C1181   1.437   .     S
C977   N980    1.380   .     A
C977   O1011   1.383   .     S
C978   N979    1.371   .     A
C978   O1016   1.383   .     S
C978   C1179   1.437   .     S
O981   C982    1.409   .     S
C982   H984    1.114   .     S
C982   H983    1.103   .     S
C982   H985    1.109   .     S
O986   C987    1.411   .     S
C987   H989    1.104   .     S
C987   H988    1.114   .     S
C987   H854    1.113   1_655 S
O991   C992    1.409   .     S
C992   H994    1.114   .     S
C992   H993    1.103   .     S
C992   H995    1.108   .     S
O996   C997    1.411   .     S
C997   H998    1.113   .     S
C997   H999    1.104   .     S
H1000  C861    1.113   1_655 S
O1001  C1002   1.409   .     S
C1002  H1004   1.109   .     S
C1002  H1003   1.107   .     S
C1002  H1005   1.104   .     S
O1006  C1007   1.408   .     S
C1007  H1008   1.108   .     S
C1007  H1009   1.115   .     S
C1007  H1010   1.105   .     S
O1011  C1012   1.409   .     S
C1012  H1015   1.104   .     S
C1012  H1014   1.109   .     S
C1012  H1013   1.107   .     S
O1016  C1017   1.408   .     S
C1017  H1020   1.105   .     S
C1017  H1018   1.108   .     S
C1017  H1019   1.115   .     S
O1021  C1025   1.307   .     A
O1021  Cu1033  1.986   .     S
O1022  C1026   1.304   .     A
O1022  Cu1034  1.986   .     S
O1023  Cu1033  1.986   .     S
O1023  C1026   1.307   .     A
O1024  C1025   1.304   .     A
O1024  Cu1034  1.986   .     S
C1025  C1042   1.471   .     S
C1026  C1041   1.471   .     S
O1027  C1031   1.300   .     A
O1027  Cu1033  1.940   .     S
O1028  C1032   1.298   .     A
O1028  Cu1034  1.940   .     S
O1029  C1032   1.300   .     A
O1029  Cu1033  1.940   .     S
O1030  C1031   1.298   .     A
O1030  Cu1034  1.940   .     S
C1031  C1035   1.416   .     S
C1032  C1036   1.416   .     S
Cu1033 N1047   2.037   .     S
Cu1033 Cu1034  2.710   .     S
Cu1034 N1048   2.037   .     S
C1036  C1647   1.194   .     S
C1037  O1049   1.389   .     S
C1037  C1042   1.415   .     A
C1037  C1175   1.410   1_455 S
C1038  C1041   1.408   .     A
C1038  O1054   1.383   .     S
C1038  C1108   1.393   .     S
C1039  C1041   1.414   .     A
C1039  O1059   1.389   .     S
C1039  C1105   1.410   .     S
C1040  O1064   1.383   .     S
C1040  C1042   1.408   .     A
C1040  C1174   1.393   1_455 S
C1043  N1048   1.380   .     A
C1043  O1069   1.383   .     S
C1044  N1047   1.371   .     A
C1044  O1074   1.383   .     S
C1044  C637    1.437   1_565 S
C1045  N1048   1.380   .     A
C1045  O1079   1.383   .     S
C1046  N1047   1.371   .     A
C1046  O1084   1.383   .     S
C1046  C635    1.437   1_565 S
O1049  C1050   1.409   .     S
C1050  H1052   1.114   .     S
C1050  H1051   1.103   .     S
C1050  H1053   1.109   .     S
O1054  C1055   1.411   .     S
C1055  H1057   1.104   .     S
C1055  H1056   1.114   .     S
C1055  H1126   1.113   .     S
H1058  C1191   1.113   1_455 S
O1059  C1060   1.409   .     S
C1060  H1062   1.114   .     S
C1060  H1061   1.103   .     S
C1060  H1063   1.108   .     S
O1064  C1065   1.411   .     S
C1065  H1066   1.113   .     S
C1065  H1067   1.104   .     S
C1065  H1204   1.113   1_455 S
H1068  C1133   1.113   .     S
O1069  C1070   1.409   .     S
C1070  H1072   1.109   .     S
C1070  H1071   1.107   .     S
C1070  H1073   1.104   .     S
O1074  C1075   1.408   .     S
C1075  H1076   1.108   .     S
C1075  H1077   1.115   .     S
C1075  H1078   1.105   .     S
O1079  C1080   1.409   .     S
C1080  H1083   1.104   .     S
C1080  H1082   1.109   .     S
C1080  H1081   1.107   .     S
O1084  C1085   1.408   .     S
C1085  H1088   1.105   .     S
C1085  H1086   1.108   .     S
C1085  H1087   1.115   .     S
O1089  C1093   1.307   .     A
O1089  Cu1101  1.986   .     S
O1090  C1094   1.304   .     A
O1090  Cu1102  1.986   .     S
O1091  Cu1101  1.986   .     S
O1091  C1094   1.307   .     A
O1092  C1093   1.304   .     A
O1092  Cu1102  1.986   .     S
C1093  C1110   1.471   .     S
C1094  C1109   1.471   .     S
O1095  C1099   1.300   .     A
O1095  Cu1101  1.940   .     S
O1096  C1100   1.298   .     A
O1096  Cu1102  1.940   .     S
O1097  C1100   1.300   .     A
O1097  Cu1101  1.940   .     S
O1098  C1099   1.298   .     A
O1098  Cu1102  1.940   .     S
C1099  C1103   1.416   .     S
C1100  C1104   1.416   .     S
Cu1101 N1115   2.037   .     S
Cu1101 Cu1102  2.710   .     S
Cu1102 N1116   2.037   .     S
C1104  C1715   1.194   .     S
C1105  O1117   1.389   .     S
C1105  C1110   1.415   .     A
C1106  C1109   1.408   .     A
C1106  O1122   1.383   .     S
C1106  C1176   1.393   .     S
C1107  C1109   1.414   .     A
C1107  O1127   1.389   .     S
C1107  C1173   1.410   .     S
C1108  O1132   1.383   .     S
C1108  C1110   1.408   .     A
C1111  N1116   1.380   .     A
C1111  O1137   1.383   .     S
C1112  N1115   1.371   .     A
C1112  O1142   1.383   .     S
C1112  C705    1.437   1_565 S
C1113  N1116   1.380   .     A
C1113  O1147   1.383   .     S
C1114  N1115   1.371   .     A
C1114  O1152   1.383   .     S
C1114  C703    1.437   1_565 S
O1117  C1118   1.409   .     S
C1118  H1120   1.114   .     S
C1118  H1119   1.103   .     S
C1118  H1121   1.109   .     S
O1122  C1123   1.411   .     S
C1123  H1125   1.104   .     S
C1123  H1124   1.114   .     S
C1123  H1194   1.113   .     S
O1127  C1128   1.409   .     S
C1128  H1130   1.114   .     S
C1128  H1129   1.103   .     S
C1128  H1131   1.108   .     S
O1132  C1133   1.411   .     S
C1133  H1134   1.113   .     S
C1133  H1135   1.104   .     S
H1136  C1201   1.113   .     S
O1137  C1138   1.409   .     S
C1138  H1140   1.109   .     S
C1138  H1139   1.107   .     S
C1138  H1141   1.104   .     S
O1142  C1143   1.408   .     S
C1143  H1144   1.108   .     S
C1143  H1145   1.115   .     S
C1143  H1146   1.105   .     S
O1147  C1148   1.409   .     S
C1148  H1151   1.104   .     S
C1148  H1150   1.109   .     S
C1148  H1149   1.107   .     S
O1152  C1153   1.408   .     S
C1153  H1156   1.105   .     S
C1153  H1154   1.108   .     S
C1153  H1155   1.115   .     S
O1157  C1161   1.307   .     A
O1157  Cu1169  1.986   .     S
O1158  C1162   1.304   .     A
O1158  Cu1170  1.986   .     S
O1159  Cu1169  1.986   .     S
O1159  C1162   1.307   .     A
O1160  C1161   1.304   .     A
O1160  Cu1170  1.986   .     S
C1161  C1178   1.471   .     S
C1162  C1177   1.471   .     S
O1163  C1167   1.300   .     A
O1163  Cu1169  1.940   .     S
O1164  C1168   1.298   .     A
O1164  Cu1170  1.940   .     S
O1165  C1168   1.300   .     A
O1165  Cu1169  1.940   .     S
O1166  C1167   1.298   .     A
O1166  Cu1170  1.940   .     S
C1167  C1171   1.416   .     S
C1168  C1172   1.416   .     S
Cu1169 N1183   2.037   .     S
Cu1169 Cu1170  2.710   .     S
Cu1170 N1184   2.037   .     S
C1172  C1783   1.194   .     S
C1173  O1185   1.389   .     S
C1173  C1178   1.415   .     A
C1174  C1177   1.408   .     A
C1174  O1190   1.383   .     S
C1174  C1040   1.393   1_655 S
C1175  C1177   1.414   .     A
C1175  O1195   1.389   .     S
C1175  C1037   1.410   1_655 S
C1176  O1200   1.383   .     S
C1176  C1178   1.408   .     A
C1179  N1184   1.380   .     A
C1179  O1205   1.383   .     S
C1180  N1183   1.371   .     A
C1180  O1210   1.383   .     S
C1180  C773    1.437   1_565 S
C1181  N1184   1.380   .     A
C1181  O1215   1.383   .     S
C1182  N1183   1.371   .     A
C1182  O1220   1.383   .     S
C1182  C771    1.437   1_565 S
O1185  C1186   1.409   .     S
C1186  H1188   1.114   .     S
C1186  H1187   1.103   .     S
C1186  H1189   1.109   .     S
O1190  C1191   1.411   .     S
C1191  H1193   1.104   .     S
C1191  H1192   1.114   .     S
C1191  H1058   1.113   1_655 S
O1195  C1196   1.409   .     S
C1196  H1198   1.114   .     S
C1196  H1197   1.103   .     S
C1196  H1199   1.108   .     S
O1200  C1201   1.411   .     S
C1201  H1202   1.113   .     S
C1201  H1203   1.104   .     S
H1204  C1065   1.113   1_655 S
O1205  C1206   1.409   .     S
C1206  H1208   1.109   .     S
C1206  H1207   1.107   .     S
C1206  H1209   1.104   .     S
O1210  C1211   1.408   .     S
C1211  H1212   1.108   .     S
C1211  H1213   1.115   .     S
C1211  H1214   1.105   .     S
O1215  C1216   1.409   .     S
C1216  H1219   1.104   .     S
C1216  H1218   1.109   .     S
C1216  H1217   1.107   .     S
O1220  C1221   1.408   .     S
C1221  H1224   1.105   .     S
C1221  H1222   1.108   .     S
C1221  H1223   1.115   .     S
O1225  C1229   1.307   .     A
O1225  Cu1237  1.986   .     S
O1226  C1230   1.304   .     A
O1226  Cu1238  1.986   .     S
O1227  Cu1237  1.986   .     S
O1227  C1230   1.307   .     A
O1228  C1229   1.304   .     A
O1228  Cu1238  1.986   .     S
C1229  C1246   1.471   .     S
C1230  C1245   1.471   .     S
O1231  C1235   1.300   .     A
O1231  Cu1237  1.940   .     S
O1232  C1236   1.298   .     A
O1232  Cu1238  1.940   .     S
O1233  C1236   1.300   .     A
O1233  Cu1237  1.940   .     S
O1234  C1235   1.298   .     A
O1234  Cu1238  1.940   .     S
C1235  C1239   1.416   .     S
C1236  C1240   1.416   .     S
Cu1237 N1251   2.037   .     S
Cu1237 Cu1238  2.710   .     S
Cu1238 N1252   2.037   .     S
C1240  C15     1.194   1_556 S
C1241  O1253   1.389   .     S
C1241  C1246   1.415   .     A
C1241  C1379   1.410   1_455 S
C1242  C1245   1.408   .     A
C1242  O1258   1.383   .     S
C1242  C1312   1.393   .     S
C1243  C1245   1.414   .     A
C1243  O1263   1.389   .     S
C1243  C1309   1.410   .     S
C1244  O1268   1.383   .     S
C1244  C1246   1.408   .     A
C1244  C1378   1.393   1_455 S
C1247  N1252   1.380   .     A
C1247  O1273   1.383   .     S
C1247  C1658   1.437   1_545 S
C1248  N1251   1.371   .     A
C1248  O1278   1.383   .     S
C1248  C1453   1.437   .     S
C1249  N1252   1.380   .     A
C1249  O1283   1.383   .     S
C1249  C1656   1.437   1_545 S
C1250  N1251   1.371   .     A
C1250  O1288   1.383   .     S
C1250  C1451   1.437   .     S
O1253  C1254   1.409   .     S
C1254  H1256   1.114   .     S
C1254  H1255   1.103   .     S
C1254  H1257   1.109   .     S
O1258  C1259   1.411   .     S
C1259  H1261   1.104   .     S
C1259  H1260   1.114   .     S
C1259  H1330   1.113   .     S
H1262  C1395   1.113   1_455 S
O1263  C1264   1.409   .     S
C1264  H1266   1.114   .     S
C1264  H1265   1.103   .     S
C1264  H1267   1.108   .     S
O1268  C1269   1.411   .     S
C1269  H1270   1.113   .     S
C1269  H1271   1.104   .     S
C1269  H1408   1.113   1_455 S
H1272  C1337   1.113   .     S
O1273  C1274   1.409   .     S
C1274  H1276   1.109   .     S
C1274  H1275   1.107   .     S
C1274  H1277   1.104   .     S
O1278  C1279   1.408   .     S
C1279  H1280   1.108   .     S
C1279  H1281   1.115   .     S
C1279  H1282   1.105   .     S
O1283  C1284   1.409   .     S
C1284  H1287   1.104   .     S
C1284  H1286   1.109   .     S
C1284  H1285   1.107   .     S
O1288  C1289   1.408   .     S
C1289  H1292   1.105   .     S
C1289  H1290   1.108   .     S
C1289  H1291   1.115   .     S
O1293  C1297   1.307   .     A
O1293  Cu1305  1.986   .     S
O1294  C1298   1.304   .     A
O1294  Cu1306  1.986   .     S
O1295  Cu1305  1.986   .     S
O1295  C1298   1.307   .     A
O1296  C1297   1.304   .     A
O1296  Cu1306  1.986   .     S
C1297  C1314   1.471   .     S
C1298  C1313   1.471   .     S
O1299  C1303   1.300   .     A
O1299  Cu1305  1.940   .     S
O1300  C1304   1.298   .     A
O1300  Cu1306  1.940   .     S
O1301  C1304   1.300   .     A
O1301  Cu1305  1.940   .     S
O1302  C1303   1.298   .     A
O1302  Cu1306  1.940   .     S
C1303  C1307   1.416   .     S
C1304  C1308   1.416   .     S
Cu1305 N1319   2.037   .     S
Cu1305 Cu1306  2.710   .     S
Cu1306 N1320   2.037   .     S
C1308  C83     1.194   1_556 S
C1309  O1321   1.389   .     S
C1309  C1314   1.415   .     A
C1310  C1313   1.408   .     A
C1310  O1326   1.383   .     S
C1310  C1380   1.393   .     S
C1311  C1313   1.414   .     A
C1311  O1331   1.389   .     S
C1311  C1377   1.410   .     S
C1312  O1336   1.383   .     S
C1312  C1314   1.408   .     A
C1315  N1320   1.380   .     A
C1315  O1341   1.383   .     S
C1315  C1726   1.437   1_545 S
C1316  N1319   1.371   .     A
C1316  O1346   1.383   .     S
C1316  C1521   1.437   .     S
C1317  N1320   1.380   .     A
C1317  O1351   1.383   .     S
C1317  C1724   1.437   1_545 S
C1318  N1319   1.371   .     A
C1318  O1356   1.383   .     S
C1318  C1519   1.437   .     S
O1321  C1322   1.409   .     S
C1322  H1324   1.114   .     S
C1322  H1323   1.103   .     S
C1322  H1325   1.109   .     S
O1326  C1327   1.411   .     S
C1327  H1329   1.104   .     S
C1327  H1328   1.114   .     S
C1327  H1398   1.113   .     S
O1331  C1332   1.409   .     S
C1332  H1334   1.114   .     S
C1332  H1333   1.103   .     S
C1332  H1335   1.108   .     S
O1336  C1337   1.411   .     S
C1337  H1338   1.113   .     S
C1337  H1339   1.104   .     S
H1340  C1405   1.113   .     S
O1341  C1342   1.409   .     S
C1342  H1344   1.109   .     S
C1342  H1343   1.107   .     S
C1342  H1345   1.104   .     S
O1346  C1347   1.408   .     S
C1347  H1348   1.108   .     S
C1347  H1349   1.115   .     S
C1347  H1350   1.105   .     S
O1351  C1352   1.409   .     S
C1352  H1355   1.104   .     S
C1352  H1354   1.109   .     S
C1352  H1353   1.107   .     S
O1356  C1357   1.408   .     S
C1357  H1360   1.105   .     S
C1357  H1358   1.108   .     S
C1357  H1359   1.115   .     S
O1361  C1365   1.307   .     A
O1361  Cu1373  1.986   .     S
O1362  C1366   1.304   .     A
O1362  Cu1374  1.986   .     S
O1363  Cu1373  1.986   .     S
O1363  C1366   1.307   .     A
O1364  C1365   1.304   .     A
O1364  Cu1374  1.986   .     S
C1365  C1382   1.471   .     S
C1366  C1381   1.471   .     S
O1367  C1371   1.300   .     A
O1367  Cu1373  1.940   .     S
O1368  C1372   1.298   .     A
O1368  Cu1374  1.940   .     S
O1369  C1372   1.300   .     A
O1369  Cu1373  1.940   .     S
O1370  C1371   1.298   .     A
O1370  Cu1374  1.940   .     S
C1371  C1375   1.416   .     S
C1372  C1376   1.416   .     S
Cu1373 N1387   2.037   .     S
Cu1373 Cu1374  2.710   .     S
Cu1374 N1388   2.037   .     S
C1376  C151    1.194   1_556 S
C1377  O1389   1.389   .     S
C1377  C1382   1.415   .     A
C1378  C1381   1.408   .     A
C1378  O1394   1.383   .     S
C1378  C1244   1.393   1_655 S
C1379  C1381   1.414   .     A
C1379  O1399   1.389   .     S
C1379  C1241   1.410   1_655 S
C1380  O1404   1.383   .     S
C1380  C1382   1.408   .     A
C1383  N1388   1.380   .     A
C1383  O1409   1.383   .     S
C1383  C1794   1.437   1_545 S
C1384  N1387   1.371   .     A
C1384  O1414   1.383   .     S
C1384  C1589   1.437   .     S
C1385  N1388   1.380   .     A
C1385  O1419   1.383   .     S
C1385  C1792   1.437   1_545 S
C1386  N1387   1.371   .     A
C1386  O1424   1.383   .     S
C1386  C1587   1.437   .     S
O1389  C1390   1.409   .     S
C1390  H1392   1.114   .     S
C1390  H1391   1.103   .     S
C1390  H1393   1.109   .     S
O1394  C1395   1.411   .     S
C1395  H1397   1.104   .     S
C1395  H1396   1.114   .     S
C1395  H1262   1.113   1_655 S
O1399  C1400   1.409   .     S
C1400  H1402   1.114   .     S
C1400  H1401   1.103   .     S
C1400  H1403   1.108   .     S
O1404  C1405   1.411   .     S
C1405  H1406   1.113   .     S
C1405  H1407   1.104   .     S
H1408  C1269   1.113   1_655 S
O1409  C1410   1.409   .     S
C1410  H1412   1.109   .     S
C1410  H1411   1.107   .     S
C1410  H1413   1.104   .     S
O1414  C1415   1.408   .     S
C1415  H1416   1.108   .     S
C1415  H1417   1.115   .     S
C1415  H1418   1.105   .     S
O1419  C1420   1.409   .     S
C1420  H1423   1.104   .     S
C1420  H1422   1.109   .     S
C1420  H1421   1.107   .     S
O1424  C1425   1.408   .     S
C1425  H1428   1.105   .     S
C1425  H1426   1.108   .     S
C1425  H1427   1.115   .     S
O1429  C1433   1.307   .     A
O1429  Cu1441  1.986   .     S
O1430  C1434   1.304   .     A
O1430  Cu1442  1.986   .     S
O1431  Cu1441  1.986   .     S
O1431  C1434   1.307   .     A
O1432  C1433   1.304   .     A
O1432  Cu1442  1.986   .     S
C1433  C1450   1.471   .     S
C1434  C1449   1.471   .     S
O1435  C1439   1.300   .     A
O1435  Cu1441  1.940   .     S
O1436  C1440   1.298   .     A
O1436  Cu1442  1.940   .     S
O1437  C1440   1.300   .     A
O1437  Cu1441  1.940   .     S
O1438  C1439   1.298   .     A
O1438  Cu1442  1.940   .     S
C1439  C1443   1.416   .     S
C1440  C1444   1.416   .     S
Cu1441 N1455   2.037   .     S
Cu1441 Cu1442  2.710   .     S
Cu1442 N1456   2.037   .     S
C1444  C219    1.194   1_556 S
C1445  O1457   1.389   .     S
C1445  C1450   1.415   .     A
C1445  C1583   1.410   1_455 S
C1446  C1449   1.408   .     A
C1446  O1462   1.383   .     S
C1446  C1516   1.393   .     S
C1447  C1449   1.414   .     A
C1447  O1467   1.389   .     S
C1447  C1513   1.410   .     S
C1448  O1472   1.383   .     S
C1448  C1450   1.408   .     A
C1448  C1582   1.393   1_455 S
C1451  N1456   1.380   .     A
C1451  O1477   1.383   .     S
C1452  N1455   1.371   .     A
C1452  O1482   1.383   .     S
C1452  C1657   1.437   .     S
C1453  N1456   1.380   .     A
C1453  O1487   1.383   .     S
C1454  N1455   1.371   .     A
C1454  O1492   1.383   .     S
C1454  C1655   1.437   .     S
O1457  C1458   1.409   .     S
C1458  H1460   1.114   .     S
C1458  H1459   1.103   .     S
C1458  H1461   1.109   .     S
O1462  C1463   1.411   .     S
C1463  H1465   1.104   .     S
C1463  H1464   1.114   .     S
C1463  H1534   1.113   .     S
H1466  C1599   1.113   1_455 S
O1467  C1468   1.409   .     S
C1468  H1470   1.114   .     S
C1468  H1469   1.103   .     S
C1468  H1471   1.108   .     S
O1472  C1473   1.411   .     S
C1473  H1474   1.113   .     S
C1473  H1475   1.104   .     S
C1473  H1612   1.113   1_455 S
H1476  C1541   1.113   .     S
O1477  C1478   1.409   .     S
C1478  H1480   1.109   .     S
C1478  H1479   1.107   .     S
C1478  H1481   1.104   .     S
O1482  C1483   1.408   .     S
C1483  H1484   1.108   .     S
C1483  H1485   1.115   .     S
C1483  H1486   1.105   .     S
O1487  C1488   1.409   .     S
C1488  H1491   1.104   .     S
C1488  H1490   1.109   .     S
C1488  H1489   1.107   .     S
O1492  C1493   1.408   .     S
C1493  H1496   1.105   .     S
C1493  H1494   1.108   .     S
C1493  H1495   1.115   .     S
O1497  C1501   1.307   .     A
O1497  Cu1509  1.986   .     S
O1498  C1502   1.304   .     A
O1498  Cu1510  1.986   .     S
O1499  Cu1509  1.986   .     S
O1499  C1502   1.307   .     A
O1500  C1501   1.304   .     A
O1500  Cu1510  1.986   .     S
C1501  C1518   1.471   .     S
C1502  C1517   1.471   .     S
O1503  C1507   1.300   .     A
O1503  Cu1509  1.940   .     S
O1504  C1508   1.298   .     A
O1504  Cu1510  1.940   .     S
O1505  C1508   1.300   .     A
O1505  Cu1509  1.940   .     S
O1506  C1507   1.298   .     A
O1506  Cu1510  1.940   .     S
C1507  C1511   1.416   .     S
C1508  C1512   1.416   .     S
Cu1509 N1523   2.037   .     S
Cu1509 Cu1510  2.710   .     S
Cu1510 N1524   2.037   .     S
C1512  C287    1.194   1_556 S
C1513  O1525   1.389   .     S
C1513  C1518   1.415   .     A
C1514  C1517   1.408   .     A
C1514  O1530   1.383   .     S
C1514  C1584   1.393   .     S
C1515  C1517   1.414   .     A
C1515  O1535   1.389   .     S
C1515  C1581   1.410   .     S
C1516  O1540   1.383   .     S
C1516  C1518   1.408   .     A
C1519  N1524   1.380   .     A
C1519  O1545   1.383   .     S
C1520  N1523   1.371   .     A
C1520  O1550   1.383   .     S
C1520  C1725   1.437   .     S
C1521  N1524   1.380   .     A
C1521  O1555   1.383   .     S
C1522  N1523   1.371   .     A
C1522  O1560   1.383   .     S
C1522  C1723   1.437   .     S
O1525  C1526   1.409   .     S
C1526  H1528   1.114   .     S
C1526  H1527   1.103   .     S
C1526  H1529   1.109   .     S
O1530  C1531   1.411   .     S
C1531  H1533   1.104   .     S
C1531  H1532   1.114   .     S
C1531  H1602   1.113   .     S
O1535  C1536   1.409   .     S
C1536  H1538   1.114   .     S
C1536  H1537   1.103   .     S
C1536  H1539   1.108   .     S
O1540  C1541   1.411   .     S
C1541  H1542   1.113   .     S
C1541  H1543   1.104   .     S
H1544  C1609   1.113   .     S
O1545  C1546   1.409   .     S
C1546  H1548   1.109   .     S
C1546  H1547   1.107   .     S
C1546  H1549   1.104   .     S
O1550  C1551   1.408   .     S
C1551  H1552   1.108   .     S
C1551  H1553   1.115   .     S
C1551  H1554   1.105   .     S
O1555  C1556   1.409   .     S
C1556  H1559   1.104   .     S
C1556  H1558   1.109   .     S
C1556  H1557   1.107   .     S
O1560  C1561   1.408   .     S
C1561  H1564   1.105   .     S
C1561  H1562   1.108   .     S
C1561  H1563   1.115   .     S
O1565  C1569   1.307   .     A
O1565  Cu1577  1.986   .     S
O1566  C1570   1.304   .     A
O1566  Cu1578  1.986   .     S
O1567  Cu1577  1.986   .     S
O1567  C1570   1.307   .     A
O1568  C1569   1.304   .     A
O1568  Cu1578  1.986   .     S
C1569  C1586   1.471   .     S
C1570  C1585   1.471   .     S
O1571  C1575   1.300   .     A
O1571  Cu1577  1.940   .     S
O1572  C1576   1.298   .     A
O1572  Cu1578  1.940   .     S
O1573  C1576   1.300   .     A
O1573  Cu1577  1.940   .     S
O1574  C1575   1.298   .     A
O1574  Cu1578  1.940   .     S
C1575  C1579   1.416   .     S
C1576  C1580   1.416   .     S
Cu1577 N1591   2.037   .     S
Cu1577 Cu1578  2.710   .     S
Cu1578 N1592   2.037   .     S
C1580  C355    1.194   1_556 S
C1581  O1593   1.389   .     S
C1581  C1586   1.415   .     A
C1582  C1585   1.408   .     A
C1582  O1598   1.383   .     S
C1582  C1448   1.393   1_655 S
C1583  C1585   1.414   .     A
C1583  O1603   1.389   .     S
C1583  C1445   1.410   1_655 S
C1584  O1608   1.383   .     S
C1584  C1586   1.408   .     A
C1587  N1592   1.380   .     A
C1587  O1613   1.383   .     S
C1588  N1591   1.371   .     A
C1588  O1618   1.383   .     S
C1588  C1793   1.437   .     S
C1589  N1592   1.380   .     A
C1589  O1623   1.383   .     S
C1590  N1591   1.371   .     A
C1590  O1628   1.383   .     S
C1590  C1791   1.437   .     S
O1593  C1594   1.409   .     S
C1594  H1596   1.114   .     S
C1594  H1595   1.103   .     S
C1594  H1597   1.109   .     S
O1598  C1599   1.411   .     S
C1599  H1601   1.104   .     S
C1599  H1600   1.114   .     S
C1599  H1466   1.113   1_655 S
O1603  C1604   1.409   .     S
C1604  H1606   1.114   .     S
C1604  H1605   1.103   .     S
C1604  H1607   1.108   .     S
O1608  C1609   1.411   .     S
C1609  H1610   1.113   .     S
C1609  H1611   1.104   .     S
H1612  C1473   1.113   1_655 S
O1613  C1614   1.409   .     S
C1614  H1616   1.109   .     S
C1614  H1615   1.107   .     S
C1614  H1617   1.104   .     S
O1618  C1619   1.408   .     S
C1619  H1620   1.108   .     S
C1619  H1621   1.115   .     S
C1619  H1622   1.105   .     S
O1623  C1624   1.409   .     S
C1624  H1627   1.104   .     S
C1624  H1626   1.109   .     S
C1624  H1625   1.107   .     S
O1628  C1629   1.408   .     S
C1629  H1632   1.105   .     S
C1629  H1630   1.108   .     S
C1629  H1631   1.115   .     S
O1633  C1637   1.307   .     A
O1633  Cu1645  1.986   .     S
O1634  C1638   1.304   .     A
O1634  Cu1646  1.986   .     S
O1635  Cu1645  1.986   .     S
O1635  C1638   1.307   .     A
O1636  C1637   1.304   .     A
O1636  Cu1646  1.986   .     S
C1637  C1654   1.471   .     S
C1638  C1653   1.471   .     S
O1639  C1643   1.300   .     A
O1639  Cu1645  1.940   .     S
O1640  C1644   1.298   .     A
O1640  Cu1646  1.940   .     S
O1641  C1644   1.300   .     A
O1641  Cu1645  1.940   .     S
O1642  C1643   1.298   .     A
O1642  Cu1646  1.940   .     S
C1643  C1647   1.416   .     S
C1644  C1648   1.416   .     S
Cu1645 N1659   2.037   .     S
Cu1645 Cu1646  2.710   .     S
Cu1646 N1660   2.037   .     S
C1648  C423    1.194   1_556 S
C1649  O1661   1.389   .     S
C1649  C1654   1.415   .     A
C1649  C1787   1.410   1_455 S
C1650  C1653   1.408   .     A
C1650  O1666   1.383   .     S
C1650  C1720   1.393   .     S
C1651  C1653   1.414   .     A
C1651  O1671   1.389   .     S
C1651  C1717   1.410   .     S
C1652  O1676   1.383   .     S
C1652  C1654   1.408   .     A
C1652  C1786   1.393   1_455 S
C1655  N1660   1.380   .     A
C1655  O1681   1.383   .     S
C1656  N1659   1.371   .     A
C1656  O1686   1.383   .     S
C1656  C1249   1.437   1_565 S
C1657  N1660   1.380   .     A
C1657  O1691   1.383   .     S
C1658  N1659   1.371   .     A
C1658  O1696   1.383   .     S
C1658  C1247   1.437   1_565 S
O1661  C1662   1.409   .     S
C1662  H1664   1.114   .     S
C1662  H1663   1.103   .     S
C1662  H1665   1.109   .     S
O1666  C1667   1.411   .     S
C1667  H1669   1.104   .     S
C1667  H1668   1.114   .     S
C1667  H1738   1.113   .     S
H1670  C1803   1.113   1_455 S
O1671  C1672   1.409   .     S
C1672  H1674   1.114   .     S
C1672  H1673   1.103   .     S
C1672  H1675   1.108   .     S
O1676  C1677   1.411   .     S
C1677  H1678   1.113   .     S
C1677  H1679   1.104   .     S
C1677  H1816   1.113   1_455 S
H1680  C1745   1.113   .     S
O1681  C1682   1.409   .     S
C1682  H1684   1.109   .     S
C1682  H1683   1.107   .     S
C1682  H1685   1.104   .     S
O1686  C1687   1.408   .     S
C1687  H1688   1.108   .     S
C1687  H1689   1.115   .     S
C1687  H1690   1.105   .     S
O1691  C1692   1.409   .     S
C1692  H1695   1.104   .     S
C1692  H1694   1.109   .     S
C1692  H1693   1.107   .     S
O1696  C1697   1.408   .     S
C1697  H1700   1.105   .     S
C1697  H1698   1.108   .     S
C1697  H1699   1.115   .     S
O1701  C1705   1.307   .     A
O1701  Cu1713  1.986   .     S
O1702  C1706   1.304   .     A
O1702  Cu1714  1.986   .     S
O1703  Cu1713  1.986   .     S
O1703  C1706   1.307   .     A
O1704  C1705   1.304   .     A
O1704  Cu1714  1.986   .     S
C1705  C1722   1.471   .     S
C1706  C1721   1.471   .     S
O1707  C1711   1.300   .     A
O1707  Cu1713  1.940   .     S
O1708  C1712   1.298   .     A
O1708  Cu1714  1.940   .     S
O1709  C1712   1.300   .     A
O1709  Cu1713  1.940   .     S
O1710  C1711   1.298   .     A
O1710  Cu1714  1.940   .     S
C1711  C1715   1.416   .     S
C1712  C1716   1.416   .     S
Cu1713 N1727   2.037   .     S
Cu1713 Cu1714  2.710   .     S
Cu1714 N1728   2.037   .     S
C1716  C491    1.194   1_556 S
C1717  O1729   1.389   .     S
C1717  C1722   1.415   .     A
C1718  C1721   1.408   .     A
C1718  O1734   1.383   .     S
C1718  C1788   1.393   .     S
C1719  C1721   1.414   .     A
C1719  O1739   1.389   .     S
C1719  C1785   1.410   .     S
C1720  O1744   1.383   .     S
C1720  C1722   1.408   .     A
C1723  N1728   1.380   .     A
C1723  O1749   1.383   .     S
C1724  N1727   1.371   .     A
C1724  O1754   1.383   .     S
C1724  C1317   1.437   1_565 S
C1725  N1728   1.380   .     A
C1725  O1759   1.383   .     S
C1726  N1727   1.371   .     A
C1726  O1764   1.383   .     S
C1726  C1315   1.437   1_565 S
O1729  C1730   1.409   .     S
C1730  H1732   1.114   .     S
C1730  H1731   1.103   .     S
C1730  H1733   1.109   .     S
O1734  C1735   1.411   .     S
C1735  H1737   1.104   .     S
C1735  H1736   1.114   .     S
C1735  H1806   1.113   .     S
O1739  C1740   1.409   .     S
C1740  H1742   1.114   .     S
C1740  H1741   1.103   .     S
C1740  H1743   1.108   .     S
O1744  C1745   1.411   .     S
C1745  H1746   1.113   .     S
C1745  H1747   1.104   .     S
H1748  C1813   1.113   .     S
O1749  C1750   1.409   .     S
C1750  H1752   1.109   .     S
C1750  H1751   1.107   .     S
C1750  H1753   1.104   .     S
O1754  C1755   1.408   .     S
C1755  H1756   1.108   .     S
C1755  H1757   1.115   .     S
C1755  H1758   1.105   .     S
O1759  C1760   1.409   .     S
C1760  H1763   1.104   .     S
C1760  H1762   1.109   .     S
C1760  H1761   1.107   .     S
O1764  C1765   1.408   .     S
C1765  H1768   1.105   .     S
C1765  H1766   1.108   .     S
C1765  H1767   1.115   .     S
O1769  C1773   1.307   .     A
O1769  Cu1781  1.986   .     S
O1770  C1774   1.304   .     A
O1770  Cu1782  1.986   .     S
O1771  Cu1781  1.986   .     S
O1771  C1774   1.307   .     A
O1772  C1773   1.304   .     A
O1772  Cu1782  1.986   .     S
C1773  C1790   1.471   .     S
C1774  C1789   1.471   .     S
O1775  C1779   1.300   .     A
O1775  Cu1781  1.940   .     S
O1776  C1780   1.298   .     A
O1776  Cu1782  1.940   .     S
O1777  C1780   1.300   .     A
O1777  Cu1781  1.940   .     S
O1778  C1779   1.298   .     A
O1778  Cu1782  1.940   .     S
C1779  C1783   1.416   .     S
C1780  C1784   1.416   .     S
Cu1781 N1795   2.037   .     S
Cu1781 Cu1782  2.710   .     S
Cu1782 N1796   2.037   .     S
C1784  C559    1.194   1_556 S
C1785  O1797   1.389   .     S
C1785  C1790   1.415   .     A
C1786  C1789   1.408   .     A
C1786  O1802   1.383   .     S
C1786  C1652   1.393   1_655 S
C1787  C1789   1.414   .     A
C1787  O1807   1.389   .     S
C1787  C1649   1.410   1_655 S
C1788  O1812   1.383   .     S
C1788  C1790   1.408   .     A
C1791  N1796   1.380   .     A
C1791  O1817   1.383   .     S
C1792  N1795   1.371   .     A
C1792  O1822   1.383   .     S
C1792  C1385   1.437   1_565 S
C1793  N1796   1.380   .     A
C1793  O1827   1.383   .     S
C1794  N1795   1.371   .     A
C1794  O1832   1.383   .     S
C1794  C1383   1.437   1_565 S
O1797  C1798   1.409   .     S
C1798  H1800   1.114   .     S
C1798  H1799   1.103   .     S
C1798  H1801   1.109   .     S
O1802  C1803   1.411   .     S
C1803  H1805   1.104   .     S
C1803  H1804   1.114   .     S
C1803  H1670   1.113   1_655 S
O1807  C1808   1.409   .     S
C1808  H1810   1.114   .     S
C1808  H1809   1.103   .     S
C1808  H1811   1.108   .     S
O1812  C1813   1.411   .     S
C1813  H1814   1.113   .     S
C1813  H1815   1.104   .     S
H1816  C1677   1.113   1_655 S
O1817  C1818   1.409   .     S
C1818  H1820   1.109   .     S
C1818  H1819   1.107   .     S
C1818  H1821   1.104   .     S
O1822  C1823   1.408   .     S
C1823  H1824   1.108   .     S
C1823  H1825   1.115   .     S
C1823  H1826   1.105   .     S
O1827  C1828   1.409   .     S
C1828  H1831   1.104   .     S
C1828  H1830   1.109   .     S
C1828  H1829   1.107   .     S
O1832  C1833   1.408   .     S
C1833  H1836   1.105   .     S
C1833  H1834   1.108   .     S
C1833  H1835   1.115   .     S
