data_str_m2_o1_o5_pcu_sym.61
_audit_creation_date              2020-01-03
_audit_creation_method            'Materials Studio'
_symmetry_space_group_name_H-M    'P1'
_symmetry_Int_Tables_number       1
_symmetry_cell_setting            triclinic
loop_
_symmetry_equiv_pos_as_xyz
  x,y,z
_cell_length_a                    32.6842
_cell_length_b                    28.8173
_cell_length_c                    27.2003
_cell_angle_alpha                 89.9999
_cell_angle_beta                  92.9280
_cell_angle_gamma                 90.0000
loop_
_atom_site_label
_atom_site_type_symbol
_atom_site_fract_x
_atom_site_fract_y
_atom_site_fract_z
_atom_site_U_iso_or_equiv
_atom_site_adp_type
_atom_site_occupancy
Br1    Br    0.04524   0.06623   0.19519   0.00000  Uiso   1.00
Br2    Br    0.28810   0.26710   0.13815   0.00000  Uiso   1.00
Br3    Br    0.28810   0.06623   0.13815   0.00000  Uiso   1.00
Br4    Br    0.04524   0.26710   0.19519   0.00000  Uiso   1.00
Br5    Br    0.10508   0.05617   0.08700   0.00000  Uiso   1.00
Br6    Br    0.22825   0.27717   0.24634   0.00000  Uiso   1.00
Br7    Br    0.22825   0.05617   0.24634   0.00000  Uiso   1.00
Br8    Br    0.10508   0.27717   0.08700   0.00000  Uiso   1.00
C9     C     0.08763   0.16667   0.17064   0.00000  Uiso   1.00
C10    C     0.02097   0.20902   0.17257   0.00000  Uiso   1.00
C11    C     0.29052   0.16667   0.15933   0.00000  Uiso   1.00
C12    C     0.04281   0.16667   0.17401   0.00000  Uiso   1.00
C13    C     0.14149   0.02469   0.13405   0.00000  Uiso   1.00
C14    C     0.19185   0.30865   0.19928   0.00000  Uiso   1.00
C15    C     0.19185   0.02469   0.19928   0.00000  Uiso   1.00
C16    C     0.14149   0.30865   0.13405   0.00000  Uiso   1.00
C17    C     0.24571   0.16667   0.16270   0.00000  Uiso   1.00
C18    C     0.16659   0.16667   0.07362   0.00000  Uiso   1.00
C19    C     0.16675   0.16667   0.25971   0.00000  Uiso   1.00
C20    C     0.16664   0.16667   0.02187   0.00000  Uiso   1.00
C21    C     0.16669   0.16667   0.31146   0.00000  Uiso   1.00
C22    C     0.02097   0.12431   0.17257   0.00000  Uiso   1.00
C23    C     0.31236   0.20902   0.16076   0.00000  Uiso   1.00
C24    C     0.31236   0.12431   0.16076   0.00000  Uiso   1.00
Cu25   Cu    0.16667   0.21355   0.16667   0.00000  Uiso   1.00
Cu26   Cu    0.16667   0.11978   0.16667   0.00000  Uiso   1.00
N27    N     0.16667   0.28402   0.16667   0.00000  Uiso   1.00
N28    N     0.16667   0.04931   0.16667   0.00000  Uiso   1.00
O29    O     0.10655   0.20625   0.16666   0.00000  Uiso   1.00
O30    O     0.22679   0.12709   0.16667   0.00000  Uiso   1.00
O31    O     0.22679   0.20625   0.16667   0.00000  Uiso   1.00
O32    O     0.10655   0.12709   0.16666   0.00000  Uiso   1.00
O33    O     0.16667   0.20625   0.09613   0.00000  Uiso   1.00
O34    O     0.16667   0.12708   0.23720   0.00000  Uiso   1.00
O35    O     0.16667   0.20625   0.23720   0.00000  Uiso   1.00
O36    O     0.16667   0.12708   0.09613   0.00000  Uiso   1.00
Br37   Br    0.37857   0.06623   0.19519   0.00000  Uiso   1.00
Br38   Br    0.62143   0.26710   0.13815   0.00000  Uiso   1.00
Br39   Br    0.62143   0.06623   0.13815   0.00000  Uiso   1.00
Br40   Br    0.37857   0.26710   0.19519   0.00000  Uiso   1.00
Br41   Br    0.43842   0.05617   0.08700   0.00000  Uiso   1.00
Br42   Br    0.56159   0.27717   0.24634   0.00000  Uiso   1.00
Br43   Br    0.56159   0.05617   0.24634   0.00000  Uiso   1.00
Br44   Br    0.43842   0.27717   0.08700   0.00000  Uiso   1.00
C45    C     0.42096   0.16667   0.17064   0.00000  Uiso   1.00
C46    C     0.35431   0.20902   0.17257   0.00000  Uiso   1.00
C47    C     0.62386   0.16667   0.15933   0.00000  Uiso   1.00
C48    C     0.37615   0.16667   0.17401   0.00000  Uiso   1.00
C49    C     0.47482   0.02469   0.13405   0.00000  Uiso   1.00
C50    C     0.52518   0.30865   0.19928   0.00000  Uiso   1.00
C51    C     0.52518   0.02469   0.19928   0.00000  Uiso   1.00
C52    C     0.47482   0.30865   0.13405   0.00000  Uiso   1.00
C53    C     0.57904   0.16667   0.16270   0.00000  Uiso   1.00
C54    C     0.49992   0.16667   0.07362   0.00000  Uiso   1.00
C55    C     0.50008   0.16667   0.25971   0.00000  Uiso   1.00
C56    C     0.49997   0.16667   0.02187   0.00000  Uiso   1.00
C57    C     0.50003   0.16667   0.31146   0.00000  Uiso   1.00
C58    C     0.35431   0.12431   0.17257   0.00000  Uiso   1.00
C59    C     0.64569   0.20902   0.16076   0.00000  Uiso   1.00
C60    C     0.64569   0.12431   0.16076   0.00000  Uiso   1.00
Cu61   Cu    0.50000   0.21355   0.16667   0.00000  Uiso   1.00
Cu62   Cu    0.50000   0.11978   0.16667   0.00000  Uiso   1.00
N63    N     0.50000   0.28402   0.16667   0.00000  Uiso   1.00
N64    N     0.50000   0.04931   0.16667   0.00000  Uiso   1.00
O65    O     0.43988   0.20625   0.16666   0.00000  Uiso   1.00
O66    O     0.56012   0.12709   0.16667   0.00000  Uiso   1.00
O67    O     0.56012   0.20625   0.16667   0.00000  Uiso   1.00
O68    O     0.43988   0.12709   0.16666   0.00000  Uiso   1.00
O69    O     0.50000   0.20625   0.09613   0.00000  Uiso   1.00
O70    O     0.50000   0.12708   0.23720   0.00000  Uiso   1.00
O71    O     0.50000   0.20625   0.23720   0.00000  Uiso   1.00
O72    O     0.50000   0.12708   0.09613   0.00000  Uiso   1.00
Br73   Br    0.71190   0.06623   0.19519   0.00000  Uiso   1.00
Br74   Br    0.95476   0.26710   0.13815   0.00000  Uiso   1.00
Br75   Br    0.95476   0.06623   0.13815   0.00000  Uiso   1.00
Br76   Br    0.71190   0.26710   0.19519   0.00000  Uiso   1.00
Br77   Br    0.77175   0.05617   0.08700   0.00000  Uiso   1.00
Br78   Br    0.89492   0.27717   0.24634   0.00000  Uiso   1.00
Br79   Br    0.89492   0.05617   0.24634   0.00000  Uiso   1.00
Br80   Br    0.77175   0.27717   0.08700   0.00000  Uiso   1.00
C81    C     0.75429   0.16667   0.17064   0.00000  Uiso   1.00
C82    C     0.68764   0.20902   0.17257   0.00000  Uiso   1.00
C83    C     0.95719   0.16667   0.15933   0.00000  Uiso   1.00
C84    C     0.70948   0.16667   0.17401   0.00000  Uiso   1.00
C85    C     0.80815   0.02469   0.13405   0.00000  Uiso   1.00
C86    C     0.85851   0.30865   0.19928   0.00000  Uiso   1.00
C87    C     0.85851   0.02469   0.19928   0.00000  Uiso   1.00
C88    C     0.80815   0.30865   0.13405   0.00000  Uiso   1.00
C89    C     0.91237   0.16667   0.16270   0.00000  Uiso   1.00
C90    C     0.83325   0.16667   0.07362   0.00000  Uiso   1.00
C91    C     0.83341   0.16667   0.25971   0.00000  Uiso   1.00
C92    C     0.83331   0.16667   0.02187   0.00000  Uiso   1.00
C93    C     0.83336   0.16667   0.31146   0.00000  Uiso   1.00
C94    C     0.68764   0.12431   0.17257   0.00000  Uiso   1.00
C95    C     0.97903   0.20902   0.16076   0.00000  Uiso   1.00
C96    C     0.97903   0.12431   0.16076   0.00000  Uiso   1.00
Cu97   Cu    0.83333   0.21355   0.16667   0.00000  Uiso   1.00
Cu98   Cu    0.83333   0.11978   0.16667   0.00000  Uiso   1.00
N99    N     0.83333   0.28402   0.16667   0.00000  Uiso   1.00
N100   N     0.83333   0.04931   0.16667   0.00000  Uiso   1.00
O101   O     0.77321   0.20625   0.16666   0.00000  Uiso   1.00
O102   O     0.89345   0.12709   0.16667   0.00000  Uiso   1.00
O103   O     0.89345   0.20625   0.16667   0.00000  Uiso   1.00
O104   O     0.77321   0.12709   0.16666   0.00000  Uiso   1.00
O105   O     0.83333   0.20625   0.09613   0.00000  Uiso   1.00
O106   O     0.83333   0.12708   0.23720   0.00000  Uiso   1.00
O107   O     0.83333   0.20625   0.23720   0.00000  Uiso   1.00
O108   O     0.83333   0.12708   0.09613   0.00000  Uiso   1.00
Br109  Br    0.04524   0.39957   0.19519   0.00000  Uiso   1.00
Br110  Br    0.28810   0.60043   0.13815   0.00000  Uiso   1.00
Br111  Br    0.28810   0.39957   0.13815   0.00000  Uiso   1.00
Br112  Br    0.04524   0.60043   0.19519   0.00000  Uiso   1.00
Br113  Br    0.10508   0.38950   0.08700   0.00000  Uiso   1.00
Br114  Br    0.22825   0.61050   0.24634   0.00000  Uiso   1.00
Br115  Br    0.22825   0.38950   0.24634   0.00000  Uiso   1.00
Br116  Br    0.10508   0.61050   0.08700   0.00000  Uiso   1.00
C117   C     0.08763   0.50000   0.17064   0.00000  Uiso   1.00
C118   C     0.02097   0.54235   0.17257   0.00000  Uiso   1.00
C119   C     0.29052   0.50000   0.15933   0.00000  Uiso   1.00
C120   C     0.04281   0.50000   0.17401   0.00000  Uiso   1.00
C121   C     0.14149   0.35802   0.13405   0.00000  Uiso   1.00
C122   C     0.19185   0.64198   0.19928   0.00000  Uiso   1.00
C123   C     0.19185   0.35802   0.19928   0.00000  Uiso   1.00
C124   C     0.14149   0.64198   0.13405   0.00000  Uiso   1.00
C125   C     0.24571   0.50000   0.16270   0.00000  Uiso   1.00
C126   C     0.16659   0.50000   0.07362   0.00000  Uiso   1.00
C127   C     0.16675   0.50000   0.25971   0.00000  Uiso   1.00
C128   C     0.16664   0.50000   0.02187   0.00000  Uiso   1.00
C129   C     0.16669   0.50000   0.31146   0.00000  Uiso   1.00
C130   C     0.02097   0.45765   0.17257   0.00000  Uiso   1.00
C131   C     0.31236   0.54235   0.16076   0.00000  Uiso   1.00
C132   C     0.31236   0.45765   0.16076   0.00000  Uiso   1.00
Cu133  Cu    0.16667   0.54689   0.16667   0.00000  Uiso   1.00
Cu134  Cu    0.16667   0.45311   0.16667   0.00000  Uiso   1.00
N135   N     0.16667   0.61736   0.16667   0.00000  Uiso   1.00
N136   N     0.16667   0.38264   0.16667   0.00000  Uiso   1.00
O137   O     0.10655   0.53958   0.16666   0.00000  Uiso   1.00
O138   O     0.22679   0.46042   0.16667   0.00000  Uiso   1.00
O139   O     0.22679   0.53958   0.16667   0.00000  Uiso   1.00
O140   O     0.10655   0.46042   0.16666   0.00000  Uiso   1.00
O141   O     0.16667   0.53959   0.09613   0.00000  Uiso   1.00
O142   O     0.16667   0.46041   0.23720   0.00000  Uiso   1.00
O143   O     0.16667   0.53959   0.23720   0.00000  Uiso   1.00
O144   O     0.16667   0.46041   0.09613   0.00000  Uiso   1.00
Br145  Br    0.37857   0.39957   0.19519   0.00000  Uiso   1.00
Br146  Br    0.62143   0.60043   0.13815   0.00000  Uiso   1.00
Br147  Br    0.62143   0.39957   0.13815   0.00000  Uiso   1.00
Br148  Br    0.37857   0.60043   0.19519   0.00000  Uiso   1.00
Br149  Br    0.43842   0.38950   0.08700   0.00000  Uiso   1.00
Br150  Br    0.56159   0.61050   0.24634   0.00000  Uiso   1.00
Br151  Br    0.56159   0.38950   0.24634   0.00000  Uiso   1.00
Br152  Br    0.43842   0.61050   0.08700   0.00000  Uiso   1.00
C153   C     0.42096   0.50000   0.17064   0.00000  Uiso   1.00
C154   C     0.35431   0.54235   0.17257   0.00000  Uiso   1.00
C155   C     0.62386   0.50000   0.15933   0.00000  Uiso   1.00
C156   C     0.37615   0.50000   0.17401   0.00000  Uiso   1.00
C157   C     0.47482   0.35802   0.13405   0.00000  Uiso   1.00
C158   C     0.52518   0.64198   0.19928   0.00000  Uiso   1.00
C159   C     0.52518   0.35802   0.19928   0.00000  Uiso   1.00
C160   C     0.47482   0.64198   0.13405   0.00000  Uiso   1.00
C161   C     0.57904   0.50000   0.16270   0.00000  Uiso   1.00
C162   C     0.49992   0.50000   0.07362   0.00000  Uiso   1.00
C163   C     0.50008   0.50000   0.25971   0.00000  Uiso   1.00
C164   C     0.49997   0.50000   0.02187   0.00000  Uiso   1.00
C165   C     0.50003   0.50000   0.31146   0.00000  Uiso   1.00
C166   C     0.35431   0.45765   0.17257   0.00000  Uiso   1.00
C167   C     0.64569   0.54235   0.16076   0.00000  Uiso   1.00
C168   C     0.64569   0.45765   0.16076   0.00000  Uiso   1.00
Cu169  Cu    0.50000   0.54689   0.16667   0.00000  Uiso   1.00
Cu170  Cu    0.50000   0.45311   0.16667   0.00000  Uiso   1.00
N171   N     0.50000   0.61736   0.16667   0.00000  Uiso   1.00
N172   N     0.50000   0.38264   0.16667   0.00000  Uiso   1.00
O173   O     0.43988   0.53958   0.16666   0.00000  Uiso   1.00
O174   O     0.56012   0.46042   0.16667   0.00000  Uiso   1.00
O175   O     0.56012   0.53958   0.16667   0.00000  Uiso   1.00
O176   O     0.43988   0.46042   0.16666   0.00000  Uiso   1.00
O177   O     0.50000   0.53959   0.09613   0.00000  Uiso   1.00
O178   O     0.50000   0.46041   0.23720   0.00000  Uiso   1.00
O179   O     0.50000   0.53959   0.23720   0.00000  Uiso   1.00
O180   O     0.50000   0.46041   0.09613   0.00000  Uiso   1.00
Br181  Br    0.71190   0.39957   0.19519   0.00000  Uiso   1.00
Br182  Br    0.95476   0.60043   0.13815   0.00000  Uiso   1.00
Br183  Br    0.95476   0.39957   0.13815   0.00000  Uiso   1.00
Br184  Br    0.71190   0.60043   0.19519   0.00000  Uiso   1.00
Br185  Br    0.77175   0.38950   0.08700   0.00000  Uiso   1.00
Br186  Br    0.89492   0.61050   0.24634   0.00000  Uiso   1.00
Br187  Br    0.89492   0.38950   0.24634   0.00000  Uiso   1.00
Br188  Br    0.77175   0.61050   0.08700   0.00000  Uiso   1.00
C189   C     0.75429   0.50000   0.17064   0.00000  Uiso   1.00
C190   C     0.68764   0.54235   0.17257   0.00000  Uiso   1.00
C191   C     0.95719   0.50000   0.15933   0.00000  Uiso   1.00
C192   C     0.70948   0.50000   0.17401   0.00000  Uiso   1.00
C193   C     0.80815   0.35802   0.13405   0.00000  Uiso   1.00
C194   C     0.85851   0.64198   0.19928   0.00000  Uiso   1.00
C195   C     0.85851   0.35802   0.19928   0.00000  Uiso   1.00
C196   C     0.80815   0.64198   0.13405   0.00000  Uiso   1.00
C197   C     0.91237   0.50000   0.16270   0.00000  Uiso   1.00
C198   C     0.83325   0.50000   0.07362   0.00000  Uiso   1.00
C199   C     0.83341   0.50000   0.25971   0.00000  Uiso   1.00
C200   C     0.83331   0.50000   0.02187   0.00000  Uiso   1.00
C201   C     0.83336   0.50000   0.31146   0.00000  Uiso   1.00
C202   C     0.68764   0.45765   0.17257   0.00000  Uiso   1.00
C203   C     0.97903   0.54235   0.16076   0.00000  Uiso   1.00
C204   C     0.97903   0.45765   0.16076   0.00000  Uiso   1.00
Cu205  Cu    0.83333   0.54689   0.16667   0.00000  Uiso   1.00
Cu206  Cu    0.83333   0.45311   0.16667   0.00000  Uiso   1.00
N207   N     0.83333   0.61736   0.16667   0.00000  Uiso   1.00
N208   N     0.83333   0.38264   0.16667   0.00000  Uiso   1.00
O209   O     0.77321   0.53958   0.16666   0.00000  Uiso   1.00
O210   O     0.89345   0.46042   0.16667   0.00000  Uiso   1.00
O211   O     0.89345   0.53958   0.16667   0.00000  Uiso   1.00
O212   O     0.77321   0.46042   0.16666   0.00000  Uiso   1.00
O213   O     0.83333   0.53959   0.09613   0.00000  Uiso   1.00
O214   O     0.83333   0.46041   0.23720   0.00000  Uiso   1.00
O215   O     0.83333   0.53959   0.23720   0.00000  Uiso   1.00
O216   O     0.83333   0.46041   0.09613   0.00000  Uiso   1.00
Br217  Br    0.04524   0.73290   0.19519   0.00000  Uiso   1.00
Br218  Br    0.28810   0.93377   0.13815   0.00000  Uiso   1.00
Br219  Br    0.28810   0.73290   0.13815   0.00000  Uiso   1.00
Br220  Br    0.04524   0.93377   0.19519   0.00000  Uiso   1.00
Br221  Br    0.10508   0.72283   0.08700   0.00000  Uiso   1.00
Br222  Br    0.22825   0.94383   0.24634   0.00000  Uiso   1.00
Br223  Br    0.22825   0.72283   0.24634   0.00000  Uiso   1.00
Br224  Br    0.10508   0.94383   0.08700   0.00000  Uiso   1.00
C225   C     0.08763   0.83333   0.17064   0.00000  Uiso   1.00
C226   C     0.02097   0.87569   0.17257   0.00000  Uiso   1.00
C227   C     0.29052   0.83333   0.15933   0.00000  Uiso   1.00
C228   C     0.04281   0.83333   0.17401   0.00000  Uiso   1.00
C229   C     0.14149   0.69135   0.13405   0.00000  Uiso   1.00
C230   C     0.19185   0.97531   0.19928   0.00000  Uiso   1.00
C231   C     0.19185   0.69135   0.19928   0.00000  Uiso   1.00
C232   C     0.14149   0.97531   0.13405   0.00000  Uiso   1.00
C233   C     0.24571   0.83333   0.16270   0.00000  Uiso   1.00
C234   C     0.16659   0.83333   0.07362   0.00000  Uiso   1.00
C235   C     0.16675   0.83333   0.25971   0.00000  Uiso   1.00
C236   C     0.16664   0.83333   0.02187   0.00000  Uiso   1.00
C237   C     0.16669   0.83333   0.31146   0.00000  Uiso   1.00
C238   C     0.02097   0.79098   0.17257   0.00000  Uiso   1.00
C239   C     0.31236   0.87569   0.16076   0.00000  Uiso   1.00
C240   C     0.31236   0.79098   0.16076   0.00000  Uiso   1.00
Cu241  Cu    0.16667   0.88022   0.16667   0.00000  Uiso   1.00
Cu242  Cu    0.16667   0.78645   0.16667   0.00000  Uiso   1.00
N243   N     0.16667   0.95069   0.16667   0.00000  Uiso   1.00
N244   N     0.16667   0.71598   0.16667   0.00000  Uiso   1.00
O245   O     0.10655   0.87291   0.16666   0.00000  Uiso   1.00
O246   O     0.22679   0.79375   0.16667   0.00000  Uiso   1.00
O247   O     0.22679   0.87291   0.16667   0.00000  Uiso   1.00
O248   O     0.10655   0.79375   0.16666   0.00000  Uiso   1.00
O249   O     0.16667   0.87292   0.09613   0.00000  Uiso   1.00
O250   O     0.16667   0.79375   0.23720   0.00000  Uiso   1.00
O251   O     0.16667   0.87292   0.23720   0.00000  Uiso   1.00
O252   O     0.16667   0.79375   0.09613   0.00000  Uiso   1.00
Br253  Br    0.37857   0.73290   0.19519   0.00000  Uiso   1.00
Br254  Br    0.62143   0.93377   0.13815   0.00000  Uiso   1.00
Br255  Br    0.62143   0.73290   0.13815   0.00000  Uiso   1.00
Br256  Br    0.37857   0.93377   0.19519   0.00000  Uiso   1.00
Br257  Br    0.43842   0.72283   0.08700   0.00000  Uiso   1.00
Br258  Br    0.56159   0.94383   0.24634   0.00000  Uiso   1.00
Br259  Br    0.56159   0.72283   0.24634   0.00000  Uiso   1.00
Br260  Br    0.43842   0.94383   0.08700   0.00000  Uiso   1.00
C261   C     0.42096   0.83333   0.17064   0.00000  Uiso   1.00
C262   C     0.35431   0.87569   0.17257   0.00000  Uiso   1.00
C263   C     0.62386   0.83333   0.15933   0.00000  Uiso   1.00
C264   C     0.37615   0.83333   0.17401   0.00000  Uiso   1.00
C265   C     0.47482   0.69135   0.13405   0.00000  Uiso   1.00
C266   C     0.52518   0.97531   0.19928   0.00000  Uiso   1.00
C267   C     0.52518   0.69135   0.19928   0.00000  Uiso   1.00
C268   C     0.47482   0.97531   0.13405   0.00000  Uiso   1.00
C269   C     0.57904   0.83333   0.16270   0.00000  Uiso   1.00
C270   C     0.49992   0.83333   0.07362   0.00000  Uiso   1.00
C271   C     0.50008   0.83333   0.25971   0.00000  Uiso   1.00
C272   C     0.49997   0.83333   0.02187   0.00000  Uiso   1.00
C273   C     0.50003   0.83333   0.31146   0.00000  Uiso   1.00
C274   C     0.35431   0.79098   0.17257   0.00000  Uiso   1.00
C275   C     0.64569   0.87569   0.16076   0.00000  Uiso   1.00
C276   C     0.64569   0.79098   0.16076   0.00000  Uiso   1.00
Cu277  Cu    0.50000   0.88022   0.16667   0.00000  Uiso   1.00
Cu278  Cu    0.50000   0.78645   0.16667   0.00000  Uiso   1.00
N279   N     0.50000   0.95069   0.16667   0.00000  Uiso   1.00
N280   N     0.50000   0.71598   0.16667   0.00000  Uiso   1.00
O281   O     0.43988   0.87291   0.16666   0.00000  Uiso   1.00
O282   O     0.56012   0.79375   0.16667   0.00000  Uiso   1.00
O283   O     0.56012   0.87291   0.16667   0.00000  Uiso   1.00
O284   O     0.43988   0.79375   0.16666   0.00000  Uiso   1.00
O285   O     0.50000   0.87292   0.09613   0.00000  Uiso   1.00
O286   O     0.50000   0.79375   0.23720   0.00000  Uiso   1.00
O287   O     0.50000   0.87292   0.23720   0.00000  Uiso   1.00
O288   O     0.50000   0.79375   0.09613   0.00000  Uiso   1.00
Br289  Br    0.71190   0.73290   0.19519   0.00000  Uiso   1.00
Br290  Br    0.95476   0.93377   0.13815   0.00000  Uiso   1.00
Br291  Br    0.95476   0.73290   0.13815   0.00000  Uiso   1.00
Br292  Br    0.71190   0.93377   0.19519   0.00000  Uiso   1.00
Br293  Br    0.77175   0.72283   0.08700   0.00000  Uiso   1.00
Br294  Br    0.89492   0.94383   0.24634   0.00000  Uiso   1.00
Br295  Br    0.89492   0.72283   0.24634   0.00000  Uiso   1.00
Br296  Br    0.77175   0.94383   0.08700   0.00000  Uiso   1.00
C297   C     0.75429   0.83333   0.17064   0.00000  Uiso   1.00
C298   C     0.68764   0.87569   0.17257   0.00000  Uiso   1.00
C299   C     0.95719   0.83333   0.15933   0.00000  Uiso   1.00
C300   C     0.70948   0.83333   0.17401   0.00000  Uiso   1.00
C301   C     0.80815   0.69135   0.13405   0.00000  Uiso   1.00
C302   C     0.85851   0.97531   0.19928   0.00000  Uiso   1.00
C303   C     0.85851   0.69135   0.19928   0.00000  Uiso   1.00
C304   C     0.80815   0.97531   0.13405   0.00000  Uiso   1.00
C305   C     0.91237   0.83333   0.16270   0.00000  Uiso   1.00
C306   C     0.83325   0.83333   0.07362   0.00000  Uiso   1.00
C307   C     0.83341   0.83333   0.25971   0.00000  Uiso   1.00
C308   C     0.83331   0.83333   0.02187   0.00000  Uiso   1.00
C309   C     0.83336   0.83333   0.31146   0.00000  Uiso   1.00
C310   C     0.68764   0.79098   0.17257   0.00000  Uiso   1.00
C311   C     0.97903   0.87569   0.16076   0.00000  Uiso   1.00
C312   C     0.97903   0.79098   0.16076   0.00000  Uiso   1.00
Cu313  Cu    0.83333   0.88022   0.16667   0.00000  Uiso   1.00
Cu314  Cu    0.83333   0.78645   0.16667   0.00000  Uiso   1.00
N315   N     0.83333   0.95069   0.16667   0.00000  Uiso   1.00
N316   N     0.83333   0.71598   0.16667   0.00000  Uiso   1.00
O317   O     0.77321   0.87291   0.16666   0.00000  Uiso   1.00
O318   O     0.89345   0.79375   0.16667   0.00000  Uiso   1.00
O319   O     0.89345   0.87291   0.16667   0.00000  Uiso   1.00
O320   O     0.77321   0.79375   0.16666   0.00000  Uiso   1.00
O321   O     0.83333   0.87292   0.09613   0.00000  Uiso   1.00
O322   O     0.83333   0.79375   0.23720   0.00000  Uiso   1.00
O323   O     0.83333   0.87292   0.23720   0.00000  Uiso   1.00
O324   O     0.83333   0.79375   0.09613   0.00000  Uiso   1.00
Br325  Br    0.04524   0.06623   0.52852   0.00000  Uiso   1.00
Br326  Br    0.28810   0.26710   0.47148   0.00000  Uiso   1.00
Br327  Br    0.28810   0.06623   0.47148   0.00000  Uiso   1.00
Br328  Br    0.04524   0.26710   0.52852   0.00000  Uiso   1.00
Br329  Br    0.10508   0.05617   0.42033   0.00000  Uiso   1.00
Br330  Br    0.22825   0.27717   0.57967   0.00000  Uiso   1.00
Br331  Br    0.22825   0.05617   0.57967   0.00000  Uiso   1.00
Br332  Br    0.10508   0.27717   0.42033   0.00000  Uiso   1.00
C333   C     0.08763   0.16667   0.50397   0.00000  Uiso   1.00
C334   C     0.02097   0.20902   0.50591   0.00000  Uiso   1.00
C335   C     0.29052   0.16667   0.49266   0.00000  Uiso   1.00
C336   C     0.04281   0.16667   0.50734   0.00000  Uiso   1.00
C337   C     0.14149   0.02469   0.46738   0.00000  Uiso   1.00
C338   C     0.19185   0.30865   0.53262   0.00000  Uiso   1.00
C339   C     0.19185   0.02469   0.53262   0.00000  Uiso   1.00
C340   C     0.14149   0.30865   0.46738   0.00000  Uiso   1.00
C341   C     0.24571   0.16667   0.49603   0.00000  Uiso   1.00
C342   C     0.16659   0.16667   0.40695   0.00000  Uiso   1.00
C343   C     0.16675   0.16667   0.59305   0.00000  Uiso   1.00
C344   C     0.16664   0.16667   0.35520   0.00000  Uiso   1.00
C345   C     0.16669   0.16667   0.64480   0.00000  Uiso   1.00
C346   C     0.02097   0.12431   0.50591   0.00000  Uiso   1.00
C347   C     0.31236   0.20902   0.49409   0.00000  Uiso   1.00
C348   C     0.31236   0.12431   0.49409   0.00000  Uiso   1.00
Cu349  Cu    0.16667   0.21355   0.50000   0.00000  Uiso   1.00
Cu350  Cu    0.16667   0.11978   0.50000   0.00000  Uiso   1.00
N351   N     0.16667   0.28402   0.50000   0.00000  Uiso   1.00
N352   N     0.16667   0.04931   0.50000   0.00000  Uiso   1.00
O353   O     0.10655   0.20625   0.50000   0.00000  Uiso   1.00
O354   O     0.22679   0.12709   0.50000   0.00000  Uiso   1.00
O355   O     0.22679   0.20625   0.50000   0.00000  Uiso   1.00
O356   O     0.10655   0.12709   0.50000   0.00000  Uiso   1.00
O357   O     0.16667   0.20625   0.42946   0.00000  Uiso   1.00
O358   O     0.16667   0.12708   0.57054   0.00000  Uiso   1.00
O359   O     0.16667   0.20625   0.57054   0.00000  Uiso   1.00
O360   O     0.16667   0.12708   0.42946   0.00000  Uiso   1.00
Br361  Br    0.37857   0.06623   0.52852   0.00000  Uiso   1.00
Br362  Br    0.62143   0.26710   0.47148   0.00000  Uiso   1.00
Br363  Br    0.62143   0.06623   0.47148   0.00000  Uiso   1.00
Br364  Br    0.37857   0.26710   0.52852   0.00000  Uiso   1.00
Br365  Br    0.43842   0.05617   0.42033   0.00000  Uiso   1.00
Br366  Br    0.56159   0.27717   0.57967   0.00000  Uiso   1.00
Br367  Br    0.56159   0.05617   0.57967   0.00000  Uiso   1.00
Br368  Br    0.43842   0.27717   0.42033   0.00000  Uiso   1.00
C369   C     0.42096   0.16667   0.50397   0.00000  Uiso   1.00
C370   C     0.35431   0.20902   0.50591   0.00000  Uiso   1.00
C371   C     0.62386   0.16667   0.49266   0.00000  Uiso   1.00
C372   C     0.37615   0.16667   0.50734   0.00000  Uiso   1.00
C373   C     0.47482   0.02469   0.46738   0.00000  Uiso   1.00
C374   C     0.52518   0.30865   0.53262   0.00000  Uiso   1.00
C375   C     0.52518   0.02469   0.53262   0.00000  Uiso   1.00
C376   C     0.47482   0.30865   0.46738   0.00000  Uiso   1.00
C377   C     0.57904   0.16667   0.49603   0.00000  Uiso   1.00
C378   C     0.49992   0.16667   0.40695   0.00000  Uiso   1.00
C379   C     0.50008   0.16667   0.59305   0.00000  Uiso   1.00
C380   C     0.49997   0.16667   0.35520   0.00000  Uiso   1.00
C381   C     0.50003   0.16667   0.64480   0.00000  Uiso   1.00
C382   C     0.35431   0.12431   0.50591   0.00000  Uiso   1.00
C383   C     0.64569   0.20902   0.49409   0.00000  Uiso   1.00
C384   C     0.64569   0.12431   0.49409   0.00000  Uiso   1.00
Cu385  Cu    0.50000   0.21355   0.50000   0.00000  Uiso   1.00
Cu386  Cu    0.50000   0.11978   0.50000   0.00000  Uiso   1.00
N387   N     0.50000   0.28402   0.50000   0.00000  Uiso   1.00
N388   N     0.50000   0.04931   0.50000   0.00000  Uiso   1.00
O389   O     0.43988   0.20625   0.50000   0.00000  Uiso   1.00
O390   O     0.56012   0.12709   0.50000   0.00000  Uiso   1.00
O391   O     0.56012   0.20625   0.50000   0.00000  Uiso   1.00
O392   O     0.43988   0.12709   0.50000   0.00000  Uiso   1.00
O393   O     0.50000   0.20625   0.42946   0.00000  Uiso   1.00
O394   O     0.50000   0.12708   0.57054   0.00000  Uiso   1.00
O395   O     0.50000   0.20625   0.57054   0.00000  Uiso   1.00
O396   O     0.50000   0.12708   0.42946   0.00000  Uiso   1.00
Br397  Br    0.71190   0.06623   0.52852   0.00000  Uiso   1.00
Br398  Br    0.95476   0.26710   0.47148   0.00000  Uiso   1.00
Br399  Br    0.95476   0.06623   0.47148   0.00000  Uiso   1.00
Br400  Br    0.71190   0.26710   0.52852   0.00000  Uiso   1.00
Br401  Br    0.77175   0.05617   0.42033   0.00000  Uiso   1.00
Br402  Br    0.89492   0.27717   0.57967   0.00000  Uiso   1.00
Br403  Br    0.89492   0.05617   0.57967   0.00000  Uiso   1.00
Br404  Br    0.77175   0.27717   0.42033   0.00000  Uiso   1.00
C405   C     0.75429   0.16667   0.50397   0.00000  Uiso   1.00
C406   C     0.68764   0.20902   0.50591   0.00000  Uiso   1.00
C407   C     0.95719   0.16667   0.49266   0.00000  Uiso   1.00
C408   C     0.70948   0.16667   0.50734   0.00000  Uiso   1.00
C409   C     0.80815   0.02469   0.46738   0.00000  Uiso   1.00
C410   C     0.85851   0.30865   0.53262   0.00000  Uiso   1.00
C411   C     0.85851   0.02469   0.53262   0.00000  Uiso   1.00
C412   C     0.80815   0.30865   0.46738   0.00000  Uiso   1.00
C413   C     0.91237   0.16667   0.49603   0.00000  Uiso   1.00
C414   C     0.83325   0.16667   0.40695   0.00000  Uiso   1.00
C415   C     0.83341   0.16667   0.59305   0.00000  Uiso   1.00
C416   C     0.83331   0.16667   0.35520   0.00000  Uiso   1.00
C417   C     0.83336   0.16667   0.64480   0.00000  Uiso   1.00
C418   C     0.68764   0.12431   0.50591   0.00000  Uiso   1.00
C419   C     0.97903   0.20902   0.49409   0.00000  Uiso   1.00
C420   C     0.97903   0.12431   0.49409   0.00000  Uiso   1.00
Cu421  Cu    0.83333   0.21355   0.50000   0.00000  Uiso   1.00
Cu422  Cu    0.83333   0.11978   0.50000   0.00000  Uiso   1.00
N423   N     0.83333   0.28402   0.50000   0.00000  Uiso   1.00
N424   N     0.83333   0.04931   0.50000   0.00000  Uiso   1.00
O425   O     0.77321   0.20625   0.50000   0.00000  Uiso   1.00
O426   O     0.89345   0.12709   0.50000   0.00000  Uiso   1.00
O427   O     0.89345   0.20625   0.50000   0.00000  Uiso   1.00
O428   O     0.77321   0.12709   0.50000   0.00000  Uiso   1.00
O429   O     0.83333   0.20625   0.42946   0.00000  Uiso   1.00
O430   O     0.83333   0.12708   0.57054   0.00000  Uiso   1.00
O431   O     0.83333   0.20625   0.57054   0.00000  Uiso   1.00
O432   O     0.83333   0.12708   0.42946   0.00000  Uiso   1.00
Br433  Br    0.04524   0.39957   0.52852   0.00000  Uiso   1.00
Br434  Br    0.28810   0.60043   0.47148   0.00000  Uiso   1.00
Br435  Br    0.28810   0.39957   0.47148   0.00000  Uiso   1.00
Br436  Br    0.04524   0.60043   0.52852   0.00000  Uiso   1.00
Br437  Br    0.10508   0.38950   0.42033   0.00000  Uiso   1.00
Br438  Br    0.22825   0.61050   0.57967   0.00000  Uiso   1.00
Br439  Br    0.22825   0.38950   0.57967   0.00000  Uiso   1.00
Br440  Br    0.10508   0.61050   0.42033   0.00000  Uiso   1.00
C441   C     0.08763   0.50000   0.50397   0.00000  Uiso   1.00
C442   C     0.02097   0.54235   0.50591   0.00000  Uiso   1.00
C443   C     0.29052   0.50000   0.49266   0.00000  Uiso   1.00
C444   C     0.04281   0.50000   0.50734   0.00000  Uiso   1.00
C445   C     0.14149   0.35802   0.46738   0.00000  Uiso   1.00
C446   C     0.19185   0.64198   0.53262   0.00000  Uiso   1.00
C447   C     0.19185   0.35802   0.53262   0.00000  Uiso   1.00
C448   C     0.14149   0.64198   0.46738   0.00000  Uiso   1.00
C449   C     0.24571   0.50000   0.49603   0.00000  Uiso   1.00
C450   C     0.16659   0.50000   0.40695   0.00000  Uiso   1.00
C451   C     0.16675   0.50000   0.59305   0.00000  Uiso   1.00
C452   C     0.16664   0.50000   0.35520   0.00000  Uiso   1.00
C453   C     0.16669   0.50000   0.64480   0.00000  Uiso   1.00
C454   C     0.02097   0.45765   0.50591   0.00000  Uiso   1.00
C455   C     0.31236   0.54235   0.49409   0.00000  Uiso   1.00
C456   C     0.31236   0.45765   0.49409   0.00000  Uiso   1.00
Cu457  Cu    0.16667   0.54689   0.50000   0.00000  Uiso   1.00
Cu458  Cu    0.16667   0.45311   0.50000   0.00000  Uiso   1.00
N459   N     0.16667   0.61736   0.50000   0.00000  Uiso   1.00
N460   N     0.16667   0.38264   0.50000   0.00000  Uiso   1.00
O461   O     0.10655   0.53958   0.50000   0.00000  Uiso   1.00
O462   O     0.22679   0.46042   0.50000   0.00000  Uiso   1.00
O463   O     0.22679   0.53958   0.50000   0.00000  Uiso   1.00
O464   O     0.10655   0.46042   0.50000   0.00000  Uiso   1.00
O465   O     0.16667   0.53959   0.42946   0.00000  Uiso   1.00
O466   O     0.16667   0.46041   0.57054   0.00000  Uiso   1.00
O467   O     0.16667   0.53959   0.57054   0.00000  Uiso   1.00
O468   O     0.16667   0.46041   0.42946   0.00000  Uiso   1.00
Br469  Br    0.37857   0.39957   0.52852   0.00000  Uiso   1.00
Br470  Br    0.62143   0.60043   0.47148   0.00000  Uiso   1.00
Br471  Br    0.62143   0.39957   0.47148   0.00000  Uiso   1.00
Br472  Br    0.37857   0.60043   0.52852   0.00000  Uiso   1.00
Br473  Br    0.43842   0.38950   0.42033   0.00000  Uiso   1.00
Br474  Br    0.56159   0.61050   0.57967   0.00000  Uiso   1.00
Br475  Br    0.56159   0.38950   0.57967   0.00000  Uiso   1.00
Br476  Br    0.43842   0.61050   0.42033   0.00000  Uiso   1.00
C477   C     0.42096   0.50000   0.50397   0.00000  Uiso   1.00
C478   C     0.35431   0.54235   0.50591   0.00000  Uiso   1.00
C479   C     0.62386   0.50000   0.49266   0.00000  Uiso   1.00
C480   C     0.37615   0.50000   0.50734   0.00000  Uiso   1.00
C481   C     0.47482   0.35802   0.46738   0.00000  Uiso   1.00
C482   C     0.52518   0.64198   0.53262   0.00000  Uiso   1.00
C483   C     0.52518   0.35802   0.53262   0.00000  Uiso   1.00
C484   C     0.47482   0.64198   0.46738   0.00000  Uiso   1.00
C485   C     0.57904   0.50000   0.49603   0.00000  Uiso   1.00
C486   C     0.49992   0.50000   0.40695   0.00000  Uiso   1.00
C487   C     0.50008   0.50000   0.59305   0.00000  Uiso   1.00
C488   C     0.49997   0.50000   0.35520   0.00000  Uiso   1.00
C489   C     0.50003   0.50000   0.64480   0.00000  Uiso   1.00
C490   C     0.35431   0.45765   0.50591   0.00000  Uiso   1.00
C491   C     0.64569   0.54235   0.49409   0.00000  Uiso   1.00
C492   C     0.64569   0.45765   0.49409   0.00000  Uiso   1.00
Cu493  Cu    0.50000   0.54689   0.50000   0.00000  Uiso   1.00
Cu494  Cu    0.50000   0.45311   0.50000   0.00000  Uiso   1.00
N495   N     0.50000   0.61736   0.50000   0.00000  Uiso   1.00
N496   N     0.50000   0.38264   0.50000   0.00000  Uiso   1.00
O497   O     0.43988   0.53958   0.50000   0.00000  Uiso   1.00
O498   O     0.56012   0.46042   0.50000   0.00000  Uiso   1.00
O499   O     0.56012   0.53958   0.50000   0.00000  Uiso   1.00
O500   O     0.43988   0.46042   0.50000   0.00000  Uiso   1.00
O501   O     0.50000   0.53959   0.42946   0.00000  Uiso   1.00
O502   O     0.50000   0.46041   0.57054   0.00000  Uiso   1.00
O503   O     0.50000   0.53959   0.57054   0.00000  Uiso   1.00
O504   O     0.50000   0.46041   0.42946   0.00000  Uiso   1.00
Br505  Br    0.71190   0.39957   0.52852   0.00000  Uiso   1.00
Br506  Br    0.95476   0.60043   0.47148   0.00000  Uiso   1.00
Br507  Br    0.95476   0.39957   0.47148   0.00000  Uiso   1.00
Br508  Br    0.71190   0.60043   0.52852   0.00000  Uiso   1.00
Br509  Br    0.77175   0.38950   0.42033   0.00000  Uiso   1.00
Br510  Br    0.89492   0.61050   0.57967   0.00000  Uiso   1.00
Br511  Br    0.89492   0.38950   0.57967   0.00000  Uiso   1.00
Br512  Br    0.77175   0.61050   0.42033   0.00000  Uiso   1.00
C513   C     0.75429   0.50000   0.50397   0.00000  Uiso   1.00
C514   C     0.68764   0.54235   0.50591   0.00000  Uiso   1.00
C515   C     0.95719   0.50000   0.49266   0.00000  Uiso   1.00
C516   C     0.70948   0.50000   0.50734   0.00000  Uiso   1.00
C517   C     0.80815   0.35802   0.46738   0.00000  Uiso   1.00
C518   C     0.85851   0.64198   0.53262   0.00000  Uiso   1.00
C519   C     0.85851   0.35802   0.53262   0.00000  Uiso   1.00
C520   C     0.80815   0.64198   0.46738   0.00000  Uiso   1.00
C521   C     0.91237   0.50000   0.49603   0.00000  Uiso   1.00
C522   C     0.83325   0.50000   0.40695   0.00000  Uiso   1.00
C523   C     0.83341   0.50000   0.59305   0.00000  Uiso   1.00
C524   C     0.83331   0.50000   0.35520   0.00000  Uiso   1.00
C525   C     0.83336   0.50000   0.64480   0.00000  Uiso   1.00
C526   C     0.68764   0.45765   0.50591   0.00000  Uiso   1.00
C527   C     0.97903   0.54235   0.49409   0.00000  Uiso   1.00
C528   C     0.97903   0.45765   0.49409   0.00000  Uiso   1.00
Cu529  Cu    0.83333   0.54689   0.50000   0.00000  Uiso   1.00
Cu530  Cu    0.83333   0.45311   0.50000   0.00000  Uiso   1.00
N531   N     0.83333   0.61736   0.50000   0.00000  Uiso   1.00
N532   N     0.83333   0.38264   0.50000   0.00000  Uiso   1.00
O533   O     0.77321   0.53958   0.50000   0.00000  Uiso   1.00
O534   O     0.89345   0.46042   0.50000   0.00000  Uiso   1.00
O535   O     0.89345   0.53958   0.50000   0.00000  Uiso   1.00
O536   O     0.77321   0.46042   0.50000   0.00000  Uiso   1.00
O537   O     0.83333   0.53959   0.42946   0.00000  Uiso   1.00
O538   O     0.83333   0.46041   0.57054   0.00000  Uiso   1.00
O539   O     0.83333   0.53959   0.57054   0.00000  Uiso   1.00
O540   O     0.83333   0.46041   0.42946   0.00000  Uiso   1.00
Br541  Br    0.04524   0.73290   0.52852   0.00000  Uiso   1.00
Br542  Br    0.28810   0.93377   0.47148   0.00000  Uiso   1.00
Br543  Br    0.28810   0.73290   0.47148   0.00000  Uiso   1.00
Br544  Br    0.04524   0.93377   0.52852   0.00000  Uiso   1.00
Br545  Br    0.10508   0.72283   0.42033   0.00000  Uiso   1.00
Br546  Br    0.22825   0.94383   0.57967   0.00000  Uiso   1.00
Br547  Br    0.22825   0.72283   0.57967   0.00000  Uiso   1.00
Br548  Br    0.10508   0.94383   0.42033   0.00000  Uiso   1.00
C549   C     0.08763   0.83333   0.50397   0.00000  Uiso   1.00
C550   C     0.02097   0.87569   0.50591   0.00000  Uiso   1.00
C551   C     0.29052   0.83333   0.49266   0.00000  Uiso   1.00
C552   C     0.04281   0.83333   0.50734   0.00000  Uiso   1.00
C553   C     0.14149   0.69135   0.46738   0.00000  Uiso   1.00
C554   C     0.19185   0.97531   0.53262   0.00000  Uiso   1.00
C555   C     0.19185   0.69135   0.53262   0.00000  Uiso   1.00
C556   C     0.14149   0.97531   0.46738   0.00000  Uiso   1.00
C557   C     0.24571   0.83333   0.49603   0.00000  Uiso   1.00
C558   C     0.16659   0.83333   0.40695   0.00000  Uiso   1.00
C559   C     0.16675   0.83333   0.59305   0.00000  Uiso   1.00
C560   C     0.16664   0.83333   0.35520   0.00000  Uiso   1.00
C561   C     0.16669   0.83333   0.64480   0.00000  Uiso   1.00
C562   C     0.02097   0.79098   0.50591   0.00000  Uiso   1.00
C563   C     0.31236   0.87569   0.49409   0.00000  Uiso   1.00
C564   C     0.31236   0.79098   0.49409   0.00000  Uiso   1.00
Cu565  Cu    0.16667   0.88022   0.50000   0.00000  Uiso   1.00
Cu566  Cu    0.16667   0.78645   0.50000   0.00000  Uiso   1.00
N567   N     0.16667   0.95069   0.50000   0.00000  Uiso   1.00
N568   N     0.16667   0.71598   0.50000   0.00000  Uiso   1.00
O569   O     0.10655   0.87291   0.50000   0.00000  Uiso   1.00
O570   O     0.22679   0.79375   0.50000   0.00000  Uiso   1.00
O571   O     0.22679   0.87291   0.50000   0.00000  Uiso   1.00
O572   O     0.10655   0.79375   0.50000   0.00000  Uiso   1.00
O573   O     0.16667   0.87292   0.42946   0.00000  Uiso   1.00
O574   O     0.16667   0.79375   0.57054   0.00000  Uiso   1.00
O575   O     0.16667   0.87292   0.57054   0.00000  Uiso   1.00
O576   O     0.16667   0.79375   0.42946   0.00000  Uiso   1.00
Br577  Br    0.37857   0.73290   0.52852   0.00000  Uiso   1.00
Br578  Br    0.62143   0.93377   0.47148   0.00000  Uiso   1.00
Br579  Br    0.62143   0.73290   0.47148   0.00000  Uiso   1.00
Br580  Br    0.37857   0.93377   0.52852   0.00000  Uiso   1.00
Br581  Br    0.43842   0.72283   0.42033   0.00000  Uiso   1.00
Br582  Br    0.56159   0.94383   0.57967   0.00000  Uiso   1.00
Br583  Br    0.56159   0.72283   0.57967   0.00000  Uiso   1.00
Br584  Br    0.43842   0.94383   0.42033   0.00000  Uiso   1.00
C585   C     0.42096   0.83333   0.50397   0.00000  Uiso   1.00
C586   C     0.35431   0.87569   0.50591   0.00000  Uiso   1.00
C587   C     0.62386   0.83333   0.49266   0.00000  Uiso   1.00
C588   C     0.37615   0.83333   0.50734   0.00000  Uiso   1.00
C589   C     0.47482   0.69135   0.46738   0.00000  Uiso   1.00
C590   C     0.52518   0.97531   0.53262   0.00000  Uiso   1.00
C591   C     0.52518   0.69135   0.53262   0.00000  Uiso   1.00
C592   C     0.47482   0.97531   0.46738   0.00000  Uiso   1.00
C593   C     0.57904   0.83333   0.49603   0.00000  Uiso   1.00
C594   C     0.49992   0.83333   0.40695   0.00000  Uiso   1.00
C595   C     0.50008   0.83333   0.59305   0.00000  Uiso   1.00
C596   C     0.49997   0.83333   0.35520   0.00000  Uiso   1.00
C597   C     0.50003   0.83333   0.64480   0.00000  Uiso   1.00
C598   C     0.35431   0.79098   0.50591   0.00000  Uiso   1.00
C599   C     0.64569   0.87569   0.49409   0.00000  Uiso   1.00
C600   C     0.64569   0.79098   0.49409   0.00000  Uiso   1.00
Cu601  Cu    0.50000   0.88022   0.50000   0.00000  Uiso   1.00
Cu602  Cu    0.50000   0.78645   0.50000   0.00000  Uiso   1.00
N603   N     0.50000   0.95069   0.50000   0.00000  Uiso   1.00
N604   N     0.50000   0.71598   0.50000   0.00000  Uiso   1.00
O605   O     0.43988   0.87291   0.50000   0.00000  Uiso   1.00
O606   O     0.56012   0.79375   0.50000   0.00000  Uiso   1.00
O607   O     0.56012   0.87291   0.50000   0.00000  Uiso   1.00
O608   O     0.43988   0.79375   0.50000   0.00000  Uiso   1.00
O609   O     0.50000   0.87292   0.42946   0.00000  Uiso   1.00
O610   O     0.50000   0.79375   0.57054   0.00000  Uiso   1.00
O611   O     0.50000   0.87292   0.57054   0.00000  Uiso   1.00
O612   O     0.50000   0.79375   0.42946   0.00000  Uiso   1.00
Br613  Br    0.71190   0.73290   0.52852   0.00000  Uiso   1.00
Br614  Br    0.95476   0.93377   0.47148   0.00000  Uiso   1.00
Br615  Br    0.95476   0.73290   0.47148   0.00000  Uiso   1.00
Br616  Br    0.71190   0.93377   0.52852   0.00000  Uiso   1.00
Br617  Br    0.77175   0.72283   0.42033   0.00000  Uiso   1.00
Br618  Br    0.89492   0.94383   0.57967   0.00000  Uiso   1.00
Br619  Br    0.89492   0.72283   0.57967   0.00000  Uiso   1.00
Br620  Br    0.77175   0.94383   0.42033   0.00000  Uiso   1.00
C621   C     0.75429   0.83333   0.50397   0.00000  Uiso   1.00
C622   C     0.68764   0.87569   0.50591   0.00000  Uiso   1.00
C623   C     0.95719   0.83333   0.49266   0.00000  Uiso   1.00
C624   C     0.70948   0.83333   0.50734   0.00000  Uiso   1.00
C625   C     0.80815   0.69135   0.46738   0.00000  Uiso   1.00
C626   C     0.85851   0.97531   0.53262   0.00000  Uiso   1.00
C627   C     0.85851   0.69135   0.53262   0.00000  Uiso   1.00
C628   C     0.80815   0.97531   0.46738   0.00000  Uiso   1.00
C629   C     0.91237   0.83333   0.49603   0.00000  Uiso   1.00
C630   C     0.83325   0.83333   0.40695   0.00000  Uiso   1.00
C631   C     0.83341   0.83333   0.59305   0.00000  Uiso   1.00
C632   C     0.83331   0.83333   0.35520   0.00000  Uiso   1.00
C633   C     0.83336   0.83333   0.64480   0.00000  Uiso   1.00
C634   C     0.68764   0.79098   0.50591   0.00000  Uiso   1.00
C635   C     0.97903   0.87569   0.49409   0.00000  Uiso   1.00
C636   C     0.97903   0.79098   0.49409   0.00000  Uiso   1.00
Cu637  Cu    0.83333   0.88022   0.50000   0.00000  Uiso   1.00
Cu638  Cu    0.83333   0.78645   0.50000   0.00000  Uiso   1.00
N639   N     0.83333   0.95069   0.50000   0.00000  Uiso   1.00
N640   N     0.83333   0.71598   0.50000   0.00000  Uiso   1.00
O641   O     0.77321   0.87291   0.50000   0.00000  Uiso   1.00
O642   O     0.89345   0.79375   0.50000   0.00000  Uiso   1.00
O643   O     0.89345   0.87291   0.50000   0.00000  Uiso   1.00
O644   O     0.77321   0.79375   0.50000   0.00000  Uiso   1.00
O645   O     0.83333   0.87292   0.42946   0.00000  Uiso   1.00
O646   O     0.83333   0.79375   0.57054   0.00000  Uiso   1.00
O647   O     0.83333   0.87292   0.57054   0.00000  Uiso   1.00
O648   O     0.83333   0.79375   0.42946   0.00000  Uiso   1.00
Br649  Br    0.04524   0.06623   0.86186   0.00000  Uiso   1.00
Br650  Br    0.28810   0.26710   0.80481   0.00000  Uiso   1.00
Br651  Br    0.28810   0.06623   0.80481   0.00000  Uiso   1.00
Br652  Br    0.04524   0.26710   0.86185   0.00000  Uiso   1.00
Br653  Br    0.10508   0.05617   0.75366   0.00000  Uiso   1.00
Br654  Br    0.22825   0.27717   0.91300   0.00000  Uiso   1.00
Br655  Br    0.22825   0.05617   0.91300   0.00000  Uiso   1.00
Br656  Br    0.10508   0.27717   0.75366   0.00000  Uiso   1.00
C657   C     0.08763   0.16667   0.83730   0.00000  Uiso   1.00
C658   C     0.02097   0.20902   0.83924   0.00000  Uiso   1.00
C659   C     0.29052   0.16667   0.82599   0.00000  Uiso   1.00
C660   C     0.04281   0.16667   0.84067   0.00000  Uiso   1.00
C661   C     0.14149   0.02469   0.80072   0.00000  Uiso   1.00
C662   C     0.19185   0.30865   0.86595   0.00000  Uiso   1.00
C663   C     0.19185   0.02469   0.86595   0.00000  Uiso   1.00
C664   C     0.14149   0.30865   0.80072   0.00000  Uiso   1.00
C665   C     0.24571   0.16667   0.82936   0.00000  Uiso   1.00
C666   C     0.16659   0.16667   0.74029   0.00000  Uiso   1.00
C667   C     0.16675   0.16667   0.92638   0.00000  Uiso   1.00
C668   C     0.16664   0.16667   0.68854   0.00000  Uiso   1.00
C669   C     0.16669   0.16667   0.97813   0.00000  Uiso   1.00
C670   C     0.02097   0.12431   0.83924   0.00000  Uiso   1.00
C671   C     0.31236   0.20902   0.82743   0.00000  Uiso   1.00
C672   C     0.31236   0.12431   0.82743   0.00000  Uiso   1.00
Cu673  Cu    0.16667   0.21355   0.83333   0.00000  Uiso   1.00
Cu674  Cu    0.16667   0.11978   0.83333   0.00000  Uiso   1.00
N675   N     0.16667   0.28402   0.83333   0.00000  Uiso   1.00
N676   N     0.16667   0.04931   0.83333   0.00000  Uiso   1.00
O677   O     0.10655   0.20625   0.83333   0.00000  Uiso   1.00
O678   O     0.22679   0.12709   0.83334   0.00000  Uiso   1.00
O679   O     0.22679   0.20625   0.83334   0.00000  Uiso   1.00
O680   O     0.10655   0.12709   0.83333   0.00000  Uiso   1.00
O681   O     0.16667   0.20625   0.76280   0.00000  Uiso   1.00
O682   O     0.16667   0.12708   0.90387   0.00000  Uiso   1.00
O683   O     0.16667   0.20625   0.90387   0.00000  Uiso   1.00
O684   O     0.16667   0.12708   0.76280   0.00000  Uiso   1.00
Br685  Br    0.37857   0.06623   0.86186   0.00000  Uiso   1.00
Br686  Br    0.62143   0.26710   0.80481   0.00000  Uiso   1.00
Br687  Br    0.62143   0.06623   0.80481   0.00000  Uiso   1.00
Br688  Br    0.37857   0.26710   0.86185   0.00000  Uiso   1.00
Br689  Br    0.43842   0.05617   0.75366   0.00000  Uiso   1.00
Br690  Br    0.56159   0.27717   0.91300   0.00000  Uiso   1.00
Br691  Br    0.56159   0.05617   0.91300   0.00000  Uiso   1.00
Br692  Br    0.43842   0.27717   0.75366   0.00000  Uiso   1.00
C693   C     0.42096   0.16667   0.83730   0.00000  Uiso   1.00
C694   C     0.35431   0.20902   0.83924   0.00000  Uiso   1.00
C695   C     0.62386   0.16667   0.82599   0.00000  Uiso   1.00
C696   C     0.37615   0.16667   0.84067   0.00000  Uiso   1.00
C697   C     0.47482   0.02469   0.80072   0.00000  Uiso   1.00
C698   C     0.52518   0.30865   0.86595   0.00000  Uiso   1.00
C699   C     0.52518   0.02469   0.86595   0.00000  Uiso   1.00
C700   C     0.47482   0.30865   0.80072   0.00000  Uiso   1.00
C701   C     0.57904   0.16667   0.82936   0.00000  Uiso   1.00
C702   C     0.49992   0.16667   0.74029   0.00000  Uiso   1.00
C703   C     0.50008   0.16667   0.92638   0.00000  Uiso   1.00
C704   C     0.49997   0.16667   0.68854   0.00000  Uiso   1.00
C705   C     0.50003   0.16667   0.97813   0.00000  Uiso   1.00
C706   C     0.35431   0.12431   0.83924   0.00000  Uiso   1.00
C707   C     0.64569   0.20902   0.82743   0.00000  Uiso   1.00
C708   C     0.64569   0.12431   0.82743   0.00000  Uiso   1.00
Cu709  Cu    0.50000   0.21355   0.83333   0.00000  Uiso   1.00
Cu710  Cu    0.50000   0.11978   0.83333   0.00000  Uiso   1.00
N711   N     0.50000   0.28402   0.83333   0.00000  Uiso   1.00
N712   N     0.50000   0.04931   0.83333   0.00000  Uiso   1.00
O713   O     0.43988   0.20625   0.83333   0.00000  Uiso   1.00
O714   O     0.56012   0.12709   0.83334   0.00000  Uiso   1.00
O715   O     0.56012   0.20625   0.83334   0.00000  Uiso   1.00
O716   O     0.43988   0.12709   0.83333   0.00000  Uiso   1.00
O717   O     0.50000   0.20625   0.76280   0.00000  Uiso   1.00
O718   O     0.50000   0.12708   0.90387   0.00000  Uiso   1.00
O719   O     0.50000   0.20625   0.90387   0.00000  Uiso   1.00
O720   O     0.50000   0.12708   0.76280   0.00000  Uiso   1.00
Br721  Br    0.71190   0.06623   0.86186   0.00000  Uiso   1.00
Br722  Br    0.95476   0.26710   0.80481   0.00000  Uiso   1.00
Br723  Br    0.95476   0.06623   0.80481   0.00000  Uiso   1.00
Br724  Br    0.71190   0.26710   0.86185   0.00000  Uiso   1.00
Br725  Br    0.77175   0.05617   0.75366   0.00000  Uiso   1.00
Br726  Br    0.89492   0.27717   0.91300   0.00000  Uiso   1.00
Br727  Br    0.89492   0.05617   0.91300   0.00000  Uiso   1.00
Br728  Br    0.77175   0.27717   0.75366   0.00000  Uiso   1.00
C729   C     0.75429   0.16667   0.83730   0.00000  Uiso   1.00
C730   C     0.68764   0.20902   0.83924   0.00000  Uiso   1.00
C731   C     0.95719   0.16667   0.82599   0.00000  Uiso   1.00
C732   C     0.70948   0.16667   0.84067   0.00000  Uiso   1.00
C733   C     0.80815   0.02469   0.80072   0.00000  Uiso   1.00
C734   C     0.85851   0.30865   0.86595   0.00000  Uiso   1.00
C735   C     0.85851   0.02469   0.86595   0.00000  Uiso   1.00
C736   C     0.80815   0.30865   0.80072   0.00000  Uiso   1.00
C737   C     0.91237   0.16667   0.82936   0.00000  Uiso   1.00
C738   C     0.83325   0.16667   0.74029   0.00000  Uiso   1.00
C739   C     0.83341   0.16667   0.92638   0.00000  Uiso   1.00
C740   C     0.83331   0.16667   0.68854   0.00000  Uiso   1.00
C741   C     0.83336   0.16667   0.97813   0.00000  Uiso   1.00
C742   C     0.68764   0.12431   0.83924   0.00000  Uiso   1.00
C743   C     0.97903   0.20902   0.82743   0.00000  Uiso   1.00
C744   C     0.97903   0.12431   0.82743   0.00000  Uiso   1.00
Cu745  Cu    0.83333   0.21355   0.83333   0.00000  Uiso   1.00
Cu746  Cu    0.83333   0.11978   0.83333   0.00000  Uiso   1.00
N747   N     0.83333   0.28402   0.83333   0.00000  Uiso   1.00
N748   N     0.83333   0.04931   0.83333   0.00000  Uiso   1.00
O749   O     0.77321   0.20625   0.83333   0.00000  Uiso   1.00
O750   O     0.89345   0.12709   0.83334   0.00000  Uiso   1.00
O751   O     0.89345   0.20625   0.83334   0.00000  Uiso   1.00
O752   O     0.77321   0.12709   0.83333   0.00000  Uiso   1.00
O753   O     0.83333   0.20625   0.76280   0.00000  Uiso   1.00
O754   O     0.83333   0.12708   0.90387   0.00000  Uiso   1.00
O755   O     0.83333   0.20625   0.90387   0.00000  Uiso   1.00
O756   O     0.83333   0.12708   0.76280   0.00000  Uiso   1.00
Br757  Br    0.04524   0.39957   0.86186   0.00000  Uiso   1.00
Br758  Br    0.28810   0.60043   0.80481   0.00000  Uiso   1.00
Br759  Br    0.28810   0.39957   0.80481   0.00000  Uiso   1.00
Br760  Br    0.04524   0.60043   0.86185   0.00000  Uiso   1.00
Br761  Br    0.10508   0.38950   0.75366   0.00000  Uiso   1.00
Br762  Br    0.22825   0.61050   0.91300   0.00000  Uiso   1.00
Br763  Br    0.22825   0.38950   0.91300   0.00000  Uiso   1.00
Br764  Br    0.10508   0.61050   0.75366   0.00000  Uiso   1.00
C765   C     0.08763   0.50000   0.83730   0.00000  Uiso   1.00
C766   C     0.02097   0.54235   0.83924   0.00000  Uiso   1.00
C767   C     0.29052   0.50000   0.82599   0.00000  Uiso   1.00
C768   C     0.04281   0.50000   0.84067   0.00000  Uiso   1.00
C769   C     0.14149   0.35802   0.80072   0.00000  Uiso   1.00
C770   C     0.19185   0.64198   0.86595   0.00000  Uiso   1.00
C771   C     0.19185   0.35802   0.86595   0.00000  Uiso   1.00
C772   C     0.14149   0.64198   0.80072   0.00000  Uiso   1.00
C773   C     0.24571   0.50000   0.82936   0.00000  Uiso   1.00
C774   C     0.16659   0.50000   0.74029   0.00000  Uiso   1.00
C775   C     0.16675   0.50000   0.92638   0.00000  Uiso   1.00
C776   C     0.16664   0.50000   0.68854   0.00000  Uiso   1.00
C777   C     0.16669   0.50000   0.97813   0.00000  Uiso   1.00
C778   C     0.02097   0.45765   0.83924   0.00000  Uiso   1.00
C779   C     0.31236   0.54235   0.82743   0.00000  Uiso   1.00
C780   C     0.31236   0.45765   0.82743   0.00000  Uiso   1.00
Cu781  Cu    0.16667   0.54689   0.83333   0.00000  Uiso   1.00
Cu782  Cu    0.16667   0.45311   0.83333   0.00000  Uiso   1.00
N783   N     0.16667   0.61736   0.83333   0.00000  Uiso   1.00
N784   N     0.16667   0.38264   0.83333   0.00000  Uiso   1.00
O785   O     0.10655   0.53958   0.83333   0.00000  Uiso   1.00
O786   O     0.22679   0.46042   0.83334   0.00000  Uiso   1.00
O787   O     0.22679   0.53958   0.83334   0.00000  Uiso   1.00
O788   O     0.10655   0.46042   0.83333   0.00000  Uiso   1.00
O789   O     0.16667   0.53959   0.76280   0.00000  Uiso   1.00
O790   O     0.16667   0.46041   0.90387   0.00000  Uiso   1.00
O791   O     0.16667   0.53959   0.90387   0.00000  Uiso   1.00
O792   O     0.16667   0.46041   0.76280   0.00000  Uiso   1.00
Br793  Br    0.37857   0.39957   0.86186   0.00000  Uiso   1.00
Br794  Br    0.62143   0.60043   0.80481   0.00000  Uiso   1.00
Br795  Br    0.62143   0.39957   0.80481   0.00000  Uiso   1.00
Br796  Br    0.37857   0.60043   0.86185   0.00000  Uiso   1.00
Br797  Br    0.43842   0.38950   0.75366   0.00000  Uiso   1.00
Br798  Br    0.56159   0.61050   0.91300   0.00000  Uiso   1.00
Br799  Br    0.56159   0.38950   0.91300   0.00000  Uiso   1.00
Br800  Br    0.43842   0.61050   0.75366   0.00000  Uiso   1.00
C801   C     0.42096   0.50000   0.83730   0.00000  Uiso   1.00
C802   C     0.35431   0.54235   0.83924   0.00000  Uiso   1.00
C803   C     0.62386   0.50000   0.82599   0.00000  Uiso   1.00
C804   C     0.37615   0.50000   0.84067   0.00000  Uiso   1.00
C805   C     0.47482   0.35802   0.80072   0.00000  Uiso   1.00
C806   C     0.52518   0.64198   0.86595   0.00000  Uiso   1.00
C807   C     0.52518   0.35802   0.86595   0.00000  Uiso   1.00
C808   C     0.47482   0.64198   0.80072   0.00000  Uiso   1.00
C809   C     0.57904   0.50000   0.82936   0.00000  Uiso   1.00
C810   C     0.49992   0.50000   0.74029   0.00000  Uiso   1.00
C811   C     0.50008   0.50000   0.92638   0.00000  Uiso   1.00
C812   C     0.49997   0.50000   0.68854   0.00000  Uiso   1.00
C813   C     0.50003   0.50000   0.97813   0.00000  Uiso   1.00
C814   C     0.35431   0.45765   0.83924   0.00000  Uiso   1.00
C815   C     0.64569   0.54235   0.82743   0.00000  Uiso   1.00
C816   C     0.64569   0.45765   0.82743   0.00000  Uiso   1.00
Cu817  Cu    0.50000   0.54689   0.83333   0.00000  Uiso   1.00
Cu818  Cu    0.50000   0.45311   0.83333   0.00000  Uiso   1.00
N819   N     0.50000   0.61736   0.83333   0.00000  Uiso   1.00
N820   N     0.50000   0.38264   0.83333   0.00000  Uiso   1.00
O821   O     0.43988   0.53958   0.83333   0.00000  Uiso   1.00
O822   O     0.56012   0.46042   0.83334   0.00000  Uiso   1.00
O823   O     0.56012   0.53958   0.83334   0.00000  Uiso   1.00
O824   O     0.43988   0.46042   0.83333   0.00000  Uiso   1.00
O825   O     0.50000   0.53959   0.76280   0.00000  Uiso   1.00
O826   O     0.50000   0.46041   0.90387   0.00000  Uiso   1.00
O827   O     0.50000   0.53959   0.90387   0.00000  Uiso   1.00
O828   O     0.50000   0.46041   0.76280   0.00000  Uiso   1.00
Br829  Br    0.71190   0.39957   0.86186   0.00000  Uiso   1.00
Br830  Br    0.95476   0.60043   0.80481   0.00000  Uiso   1.00
Br831  Br    0.95476   0.39957   0.80481   0.00000  Uiso   1.00
Br832  Br    0.71190   0.60043   0.86185   0.00000  Uiso   1.00
Br833  Br    0.77175   0.38950   0.75366   0.00000  Uiso   1.00
Br834  Br    0.89492   0.61050   0.91300   0.00000  Uiso   1.00
Br835  Br    0.89492   0.38950   0.91300   0.00000  Uiso   1.00
Br836  Br    0.77175   0.61050   0.75366   0.00000  Uiso   1.00
C837   C     0.75429   0.50000   0.83730   0.00000  Uiso   1.00
C838   C     0.68764   0.54235   0.83924   0.00000  Uiso   1.00
C839   C     0.95719   0.50000   0.82599   0.00000  Uiso   1.00
C840   C     0.70948   0.50000   0.84067   0.00000  Uiso   1.00
C841   C     0.80815   0.35802   0.80072   0.00000  Uiso   1.00
C842   C     0.85851   0.64198   0.86595   0.00000  Uiso   1.00
C843   C     0.85851   0.35802   0.86595   0.00000  Uiso   1.00
C844   C     0.80815   0.64198   0.80072   0.00000  Uiso   1.00
C845   C     0.91237   0.50000   0.82936   0.00000  Uiso   1.00
C846   C     0.83325   0.50000   0.74029   0.00000  Uiso   1.00
C847   C     0.83341   0.50000   0.92638   0.00000  Uiso   1.00
C848   C     0.83331   0.50000   0.68854   0.00000  Uiso   1.00
C849   C     0.83336   0.50000   0.97813   0.00000  Uiso   1.00
C850   C     0.68764   0.45765   0.83924   0.00000  Uiso   1.00
C851   C     0.97903   0.54235   0.82743   0.00000  Uiso   1.00
C852   C     0.97903   0.45765   0.82743   0.00000  Uiso   1.00
Cu853  Cu    0.83333   0.54689   0.83333   0.00000  Uiso   1.00
Cu854  Cu    0.83333   0.45311   0.83333   0.00000  Uiso   1.00
N855   N     0.83333   0.61736   0.83333   0.00000  Uiso   1.00
N856   N     0.83333   0.38264   0.83333   0.00000  Uiso   1.00
O857   O     0.77321   0.53958   0.83333   0.00000  Uiso   1.00
O858   O     0.89345   0.46042   0.83334   0.00000  Uiso   1.00
O859   O     0.89345   0.53958   0.83334   0.00000  Uiso   1.00
O860   O     0.77321   0.46042   0.83333   0.00000  Uiso   1.00
O861   O     0.83333   0.53959   0.76280   0.00000  Uiso   1.00
O862   O     0.83333   0.46041   0.90387   0.00000  Uiso   1.00
O863   O     0.83333   0.53959   0.90387   0.00000  Uiso   1.00
O864   O     0.83333   0.46041   0.76280   0.00000  Uiso   1.00
Br865  Br    0.04524   0.73290   0.86186   0.00000  Uiso   1.00
Br866  Br    0.28810   0.93377   0.80481   0.00000  Uiso   1.00
Br867  Br    0.28810   0.73290   0.80481   0.00000  Uiso   1.00
Br868  Br    0.04524   0.93377   0.86185   0.00000  Uiso   1.00
Br869  Br    0.10508   0.72283   0.75366   0.00000  Uiso   1.00
Br870  Br    0.22825   0.94383   0.91300   0.00000  Uiso   1.00
Br871  Br    0.22825   0.72283   0.91300   0.00000  Uiso   1.00
Br872  Br    0.10508   0.94383   0.75366   0.00000  Uiso   1.00
C873   C     0.08763   0.83333   0.83730   0.00000  Uiso   1.00
C874   C     0.02097   0.87569   0.83924   0.00000  Uiso   1.00
C875   C     0.29052   0.83333   0.82599   0.00000  Uiso   1.00
C876   C     0.04281   0.83333   0.84067   0.00000  Uiso   1.00
C877   C     0.14149   0.69135   0.80072   0.00000  Uiso   1.00
C878   C     0.19185   0.97531   0.86595   0.00000  Uiso   1.00
C879   C     0.19185   0.69135   0.86595   0.00000  Uiso   1.00
C880   C     0.14149   0.97531   0.80072   0.00000  Uiso   1.00
C881   C     0.24571   0.83333   0.82936   0.00000  Uiso   1.00
C882   C     0.16659   0.83333   0.74029   0.00000  Uiso   1.00
C883   C     0.16675   0.83333   0.92638   0.00000  Uiso   1.00
C884   C     0.16664   0.83333   0.68854   0.00000  Uiso   1.00
C885   C     0.16669   0.83333   0.97813   0.00000  Uiso   1.00
C886   C     0.02097   0.79098   0.83924   0.00000  Uiso   1.00
C887   C     0.31236   0.87569   0.82743   0.00000  Uiso   1.00
C888   C     0.31236   0.79098   0.82743   0.00000  Uiso   1.00
Cu889  Cu    0.16667   0.88022   0.83333   0.00000  Uiso   1.00
Cu890  Cu    0.16667   0.78645   0.83333   0.00000  Uiso   1.00
N891   N     0.16667   0.95069   0.83333   0.00000  Uiso   1.00
N892   N     0.16667   0.71598   0.83333   0.00000  Uiso   1.00
O893   O     0.10655   0.87291   0.83333   0.00000  Uiso   1.00
O894   O     0.22679   0.79375   0.83334   0.00000  Uiso   1.00
O895   O     0.22679   0.87291   0.83334   0.00000  Uiso   1.00
O896   O     0.10655   0.79375   0.83333   0.00000  Uiso   1.00
O897   O     0.16667   0.87292   0.76280   0.00000  Uiso   1.00
O898   O     0.16667   0.79375   0.90387   0.00000  Uiso   1.00
O899   O     0.16667   0.87292   0.90387   0.00000  Uiso   1.00
O900   O     0.16667   0.79375   0.76280   0.00000  Uiso   1.00
Br901  Br    0.37857   0.73290   0.86186   0.00000  Uiso   1.00
Br902  Br    0.62143   0.93377   0.80481   0.00000  Uiso   1.00
Br903  Br    0.62143   0.73290   0.80481   0.00000  Uiso   1.00
Br904  Br    0.37857   0.93377   0.86185   0.00000  Uiso   1.00
Br905  Br    0.43842   0.72283   0.75366   0.00000  Uiso   1.00
Br906  Br    0.56159   0.94383   0.91300   0.00000  Uiso   1.00
Br907  Br    0.56159   0.72283   0.91300   0.00000  Uiso   1.00
Br908  Br    0.43842   0.94383   0.75366   0.00000  Uiso   1.00
C909   C     0.42096   0.83333   0.83730   0.00000  Uiso   1.00
C910   C     0.35431   0.87569   0.83924   0.00000  Uiso   1.00
C911   C     0.62386   0.83333   0.82599   0.00000  Uiso   1.00
C912   C     0.37615   0.83333   0.84067   0.00000  Uiso   1.00
C913   C     0.47482   0.69135   0.80072   0.00000  Uiso   1.00
C914   C     0.52518   0.97531   0.86595   0.00000  Uiso   1.00
C915   C     0.52518   0.69135   0.86595   0.00000  Uiso   1.00
C916   C     0.47482   0.97531   0.80072   0.00000  Uiso   1.00
C917   C     0.57904   0.83333   0.82936   0.00000  Uiso   1.00
C918   C     0.49992   0.83333   0.74029   0.00000  Uiso   1.00
C919   C     0.50008   0.83333   0.92638   0.00000  Uiso   1.00
C920   C     0.49997   0.83333   0.68854   0.00000  Uiso   1.00
C921   C     0.50003   0.83333   0.97813   0.00000  Uiso   1.00
C922   C     0.35431   0.79098   0.83924   0.00000  Uiso   1.00
C923   C     0.64569   0.87569   0.82743   0.00000  Uiso   1.00
C924   C     0.64569   0.79098   0.82743   0.00000  Uiso   1.00
Cu925  Cu    0.50000   0.88022   0.83333   0.00000  Uiso   1.00
Cu926  Cu    0.50000   0.78645   0.83333   0.00000  Uiso   1.00
N927   N     0.50000   0.95069   0.83333   0.00000  Uiso   1.00
N928   N     0.50000   0.71598   0.83333   0.00000  Uiso   1.00
O929   O     0.43988   0.87291   0.83333   0.00000  Uiso   1.00
O930   O     0.56012   0.79375   0.83334   0.00000  Uiso   1.00
O931   O     0.56012   0.87291   0.83334   0.00000  Uiso   1.00
O932   O     0.43988   0.79375   0.83333   0.00000  Uiso   1.00
O933   O     0.50000   0.87292   0.76280   0.00000  Uiso   1.00
O934   O     0.50000   0.79375   0.90387   0.00000  Uiso   1.00
O935   O     0.50000   0.87292   0.90387   0.00000  Uiso   1.00
O936   O     0.50000   0.79375   0.76280   0.00000  Uiso   1.00
Br937  Br    0.71190   0.73290   0.86186   0.00000  Uiso   1.00
Br938  Br    0.95476   0.93377   0.80481   0.00000  Uiso   1.00
Br939  Br    0.95476   0.73290   0.80481   0.00000  Uiso   1.00
Br940  Br    0.71190   0.93377   0.86185   0.00000  Uiso   1.00
Br941  Br    0.77175   0.72283   0.75366   0.00000  Uiso   1.00
Br942  Br    0.89492   0.94383   0.91300   0.00000  Uiso   1.00
Br943  Br    0.89492   0.72283   0.91300   0.00000  Uiso   1.00
Br944  Br    0.77175   0.94383   0.75366   0.00000  Uiso   1.00
C945   C     0.75429   0.83333   0.83730   0.00000  Uiso   1.00
C946   C     0.68764   0.87569   0.83924   0.00000  Uiso   1.00
C947   C     0.95719   0.83333   0.82599   0.00000  Uiso   1.00
C948   C     0.70948   0.83333   0.84067   0.00000  Uiso   1.00
C949   C     0.80815   0.69135   0.80072   0.00000  Uiso   1.00
C950   C     0.85851   0.97531   0.86595   0.00000  Uiso   1.00
C951   C     0.85851   0.69135   0.86595   0.00000  Uiso   1.00
C952   C     0.80815   0.97531   0.80072   0.00000  Uiso   1.00
C953   C     0.91237   0.83333   0.82936   0.00000  Uiso   1.00
C954   C     0.83325   0.83333   0.74029   0.00000  Uiso   1.00
C955   C     0.83341   0.83333   0.92638   0.00000  Uiso   1.00
C956   C     0.83331   0.83333   0.68854   0.00000  Uiso   1.00
C957   C     0.83336   0.83333   0.97813   0.00000  Uiso   1.00
C958   C     0.68764   0.79098   0.83924   0.00000  Uiso   1.00
C959   C     0.97903   0.87569   0.82743   0.00000  Uiso   1.00
C960   C     0.97903   0.79098   0.82743   0.00000  Uiso   1.00
Cu961  Cu    0.83333   0.88022   0.83333   0.00000  Uiso   1.00
Cu962  Cu    0.83333   0.78645   0.83333   0.00000  Uiso   1.00
N963   N     0.83333   0.95069   0.83333   0.00000  Uiso   1.00
N964   N     0.83333   0.71598   0.83333   0.00000  Uiso   1.00
O965   O     0.77321   0.87291   0.83333   0.00000  Uiso   1.00
O966   O     0.89345   0.79375   0.83334   0.00000  Uiso   1.00
O967   O     0.89345   0.87291   0.83334   0.00000  Uiso   1.00
O968   O     0.77321   0.79375   0.83333   0.00000  Uiso   1.00
O969   O     0.83333   0.87292   0.76280   0.00000  Uiso   1.00
O970   O     0.83333   0.79375   0.90387   0.00000  Uiso   1.00
O971   O     0.83333   0.87292   0.90387   0.00000  Uiso   1.00
O972   O     0.83333   0.79375   0.76280   0.00000  Uiso   1.00
loop_
_geom_bond_atom_site_label_1
_geom_bond_atom_site_label_2
_geom_bond_distance
_geom_bond_site_symmetry_2
_ccdc_geom_bond_type
Br1    C22     1.939   .     S
Br2    C23     1.939   .     S
Br3    C24     1.939   .     S
Br4    C10     1.939   .     S
Br5    C13     1.929   .     S
Br6    C14     1.929   .     S
Br7    C15     1.929   .     S
Br8    C16     1.929   .     S
C9     O29     1.305   .     A
C9     C12     1.472   .     S
C9     O32     1.305   .     A
C10    C12     1.413   .     A
C10    C95     1.392   1_455 S
C11    C24     1.413   .     A
C11    C23     1.413   .     A
C11    C17     1.472   .     S
C12    C22     1.413   .     A
C13    N28     1.376   .     A
C13    C232    1.423   1_545 S
C14    N27     1.376   .     A
C14    C123    1.423   .     S
C15    N28     1.376   .     A
C15    C230    1.423   1_545 S
C16    N27     1.376   .     A
C16    C121    1.423   .     S
C17    O30     1.305   .     A
C17    O31     1.305   .     A
C18    O33     1.295   .     A
C18    C20     1.408   .     S
C18    O36     1.295   .     A
C19    O35     1.295   .     A
C19    C21     1.408   .     S
C19    O34     1.295   .     A
C20    C669    1.190   1_554 S
C21    C344    1.190   .     S
C22    C96     1.392   1_455 S
C23    C46     1.392   .     S
C24    C58     1.392   .     S
Cu25   O31     1.976   .     S
Cu25   N27     2.031   .     S
Cu25   O35     1.930   .     S
Cu25   O29     1.976   .     S
Cu25   Cu26    2.702   .     S
Cu25   O33     1.930   .     S
Cu26   O32     1.976   .     S
Cu26   N28     2.031   .     S
Cu26   O36     1.930   .     S
Cu26   O30     1.976   .     S
Cu26   O34     1.930   .     S
Br37   C58     1.939   .     S
Br38   C59     1.939   .     S
Br39   C60     1.939   .     S
Br40   C46     1.939   .     S
Br41   C49     1.929   .     S
Br42   C50     1.929   .     S
Br43   C51     1.929   .     S
Br44   C52     1.929   .     S
C45    O65     1.305   .     A
C45    C48     1.472   .     S
C45    O68     1.305   .     A
C46    C48     1.413   .     A
C47    C60     1.413   .     A
C47    C59     1.413   .     A
C47    C53     1.472   .     S
C48    C58     1.413   .     A
C49    N64     1.376   .     A
C49    C268    1.423   1_545 S
C50    N63     1.376   .     A
C50    C159    1.423   .     S
C51    N64     1.376   .     A
C51    C266    1.423   1_545 S
C52    N63     1.376   .     A
C52    C157    1.423   .     S
C53    O66     1.305   .     A
C53    O67     1.305   .     A
C54    O69     1.295   .     A
C54    C56     1.408   .     S
C54    O72     1.295   .     A
C55    O71     1.295   .     A
C55    C57     1.408   .     S
C55    O70     1.295   .     A
C56    C705    1.190   1_554 S
C57    C380    1.190   .     S
C59    C82     1.392   .     S
C60    C94     1.392   .     S
Cu61   O67     1.976   .     S
Cu61   N63     2.031   .     S
Cu61   O71     1.930   .     S
Cu61   O65     1.976   .     S
Cu61   Cu62    2.702   .     S
Cu61   O69     1.930   .     S
Cu62   O68     1.976   .     S
Cu62   N64     2.031   .     S
Cu62   O72     1.930   .     S
Cu62   O66     1.976   .     S
Cu62   O70     1.930   .     S
Br73   C94     1.939   .     S
Br74   C95     1.939   .     S
Br75   C96     1.939   .     S
Br76   C82     1.939   .     S
Br77   C85     1.929   .     S
Br78   C86     1.929   .     S
Br79   C87     1.929   .     S
Br80   C88     1.929   .     S
C81    O101    1.305   .     A
C81    C84     1.472   .     S
C81    O104    1.305   .     A
C82    C84     1.413   .     A
C83    C96     1.413   .     A
C83    C95     1.413   .     A
C83    C89     1.472   .     S
C84    C94     1.413   .     A
C85    N100    1.376   .     A
C85    C304    1.423   1_545 S
C86    N99     1.376   .     A
C86    C195    1.423   .     S
C87    N100    1.376   .     A
C87    C302    1.423   1_545 S
C88    N99     1.376   .     A
C88    C193    1.423   .     S
C89    O102    1.305   .     A
C89    O103    1.305   .     A
C90    O105    1.295   .     A
C90    C92     1.408   .     S
C90    O108    1.295   .     A
C91    O107    1.295   .     A
C91    C93     1.408   .     S
C91    O106    1.295   .     A
C92    C741    1.190   1_554 S
C93    C416    1.190   .     S
C95    C10     1.392   1_655 S
C96    C22     1.392   1_655 S
Cu97   O103    1.976   .     S
Cu97   N99     2.031   .     S
Cu97   O107    1.930   .     S
Cu97   O101    1.976   .     S
Cu97   Cu98    2.702   .     S
Cu97   O105    1.930   .     S
Cu98   O104    1.976   .     S
Cu98   N100    2.031   .     S
Cu98   O108    1.930   .     S
Cu98   O102    1.976   .     S
Cu98   O106    1.930   .     S
Br109  C130    1.939   .     S
Br110  C131    1.939   .     S
Br111  C132    1.939   .     S
Br112  C118    1.939   .     S
Br113  C121    1.929   .     S
Br114  C122    1.929   .     S
Br115  C123    1.929   .     S
Br116  C124    1.929   .     S
C117   O137    1.305   .     A
C117   C120    1.472   .     S
C117   O140    1.305   .     A
C118   C120    1.413   .     A
C118   C203    1.392   1_455 S
C119   C132    1.413   .     A
C119   C131    1.413   .     A
C119   C125    1.472   .     S
C120   C130    1.413   .     A
C121   N136    1.376   .     A
C122   N135    1.376   .     A
C122   C231    1.423   .     S
C123   N136    1.376   .     A
C124   N135    1.376   .     A
C124   C229    1.423   .     S
C125   O138    1.305   .     A
C125   O139    1.305   .     A
C126   O141    1.295   .     A
C126   C128    1.408   .     S
C126   O144    1.295   .     A
C127   O143    1.295   .     A
C127   C129    1.408   .     S
C127   O142    1.295   .     A
C128   C777    1.190   1_554 S
C129   C452    1.190   .     S
C130   C204    1.392   1_455 S
C131   C154    1.392   .     S
C132   C166    1.392   .     S
Cu133  O139    1.976   .     S
Cu133  N135    2.031   .     S
Cu133  O143    1.930   .     S
Cu133  O137    1.976   .     S
Cu133  Cu134   2.702   .     S
Cu133  O141    1.930   .     S
Cu134  O140    1.976   .     S
Cu134  N136    2.031   .     S
Cu134  O144    1.930   .     S
Cu134  O138    1.976   .     S
Cu134  O142    1.930   .     S
Br145  C166    1.939   .     S
Br146  C167    1.939   .     S
Br147  C168    1.939   .     S
Br148  C154    1.939   .     S
Br149  C157    1.929   .     S
Br150  C158    1.929   .     S
Br151  C159    1.929   .     S
Br152  C160    1.929   .     S
C153   O173    1.305   .     A
C153   C156    1.472   .     S
C153   O176    1.305   .     A
C154   C156    1.413   .     A
C155   C168    1.413   .     A
C155   C167    1.413   .     A
C155   C161    1.472   .     S
C156   C166    1.413   .     A
C157   N172    1.376   .     A
C158   N171    1.376   .     A
C158   C267    1.423   .     S
C159   N172    1.376   .     A
C160   N171    1.376   .     A
C160   C265    1.423   .     S
C161   O174    1.305   .     A
C161   O175    1.305   .     A
C162   O177    1.295   .     A
C162   C164    1.408   .     S
C162   O180    1.295   .     A
C163   O179    1.295   .     A
C163   C165    1.408   .     S
C163   O178    1.295   .     A
C164   C813    1.190   1_554 S
C165   C488    1.190   .     S
C167   C190    1.392   .     S
C168   C202    1.392   .     S
Cu169  O175    1.976   .     S
Cu169  N171    2.031   .     S
Cu169  O179    1.930   .     S
Cu169  O173    1.976   .     S
Cu169  Cu170   2.702   .     S
Cu169  O177    1.930   .     S
Cu170  O176    1.976   .     S
Cu170  N172    2.031   .     S
Cu170  O180    1.930   .     S
Cu170  O174    1.976   .     S
Cu170  O178    1.930   .     S
Br181  C202    1.939   .     S
Br182  C203    1.939   .     S
Br183  C204    1.939   .     S
Br184  C190    1.939   .     S
Br185  C193    1.929   .     S
Br186  C194    1.929   .     S
Br187  C195    1.929   .     S
Br188  C196    1.929   .     S
C189   O209    1.305   .     A
C189   C192    1.472   .     S
C189   O212    1.305   .     A
C190   C192    1.413   .     A
C191   C204    1.413   .     A
C191   C203    1.413   .     A
C191   C197    1.472   .     S
C192   C202    1.413   .     A
C193   N208    1.376   .     A
C194   N207    1.376   .     A
C194   C303    1.423   .     S
C195   N208    1.376   .     A
C196   N207    1.376   .     A
C196   C301    1.423   .     S
C197   O210    1.305   .     A
C197   O211    1.305   .     A
C198   O213    1.295   .     A
C198   C200    1.408   .     S
C198   O216    1.295   .     A
C199   O215    1.295   .     A
C199   C201    1.408   .     S
C199   O214    1.295   .     A
C200   C849    1.190   1_554 S
C201   C524    1.190   .     S
C203   C118    1.392   1_655 S
C204   C130    1.392   1_655 S
Cu205  O211    1.976   .     S
Cu205  N207    2.031   .     S
Cu205  O215    1.930   .     S
Cu205  O209    1.976   .     S
Cu205  Cu206   2.702   .     S
Cu205  O213    1.930   .     S
Cu206  O212    1.976   .     S
Cu206  N208    2.031   .     S
Cu206  O216    1.930   .     S
Cu206  O210    1.976   .     S
Cu206  O214    1.930   .     S
Br217  C238    1.939   .     S
Br218  C239    1.939   .     S
Br219  C240    1.939   .     S
Br220  C226    1.939   .     S
Br221  C229    1.929   .     S
Br222  C230    1.929   .     S
Br223  C231    1.929   .     S
Br224  C232    1.929   .     S
C225   O245    1.305   .     A
C225   C228    1.472   .     S
C225   O248    1.305   .     A
C226   C228    1.413   .     A
C226   C311    1.392   1_455 S
C227   C240    1.413   .     A
C227   C239    1.413   .     A
C227   C233    1.472   .     S
C228   C238    1.413   .     A
C229   N244    1.376   .     A
C230   N243    1.376   .     A
C230   C15     1.423   1_565 S
C231   N244    1.376   .     A
C232   N243    1.376   .     A
C232   C13     1.423   1_565 S
C233   O246    1.305   .     A
C233   O247    1.305   .     A
C234   O249    1.295   .     A
C234   C236    1.408   .     S
C234   O252    1.295   .     A
C235   O251    1.295   .     A
C235   C237    1.408   .     S
C235   O250    1.295   .     A
C236   C885    1.190   1_554 S
C237   C560    1.190   .     S
C238   C312    1.392   1_455 S
C239   C262    1.392   .     S
C240   C274    1.392   .     S
Cu241  O247    1.976   .     S
Cu241  N243    2.031   .     S
Cu241  O251    1.930   .     S
Cu241  O245    1.976   .     S
Cu241  Cu242   2.702   .     S
Cu241  O249    1.930   .     S
Cu242  O248    1.976   .     S
Cu242  N244    2.031   .     S
Cu242  O252    1.930   .     S
Cu242  O246    1.976   .     S
Cu242  O250    1.930   .     S
Br253  C274    1.939   .     S
Br254  C275    1.939   .     S
Br255  C276    1.939   .     S
Br256  C262    1.939   .     S
Br257  C265    1.929   .     S
Br258  C266    1.929   .     S
Br259  C267    1.929   .     S
Br260  C268    1.929   .     S
C261   O281    1.305   .     A
C261   C264    1.472   .     S
C261   O284    1.305   .     A
C262   C264    1.413   .     A
C263   C276    1.413   .     A
C263   C275    1.413   .     A
C263   C269    1.472   .     S
C264   C274    1.413   .     A
C265   N280    1.376   .     A
C266   N279    1.376   .     A
C266   C51     1.423   1_565 S
C267   N280    1.376   .     A
C268   N279    1.376   .     A
C268   C49     1.423   1_565 S
C269   O282    1.305   .     A
C269   O283    1.305   .     A
C270   O285    1.295   .     A
C270   C272    1.408   .     S
C270   O288    1.295   .     A
C271   O287    1.295   .     A
C271   C273    1.408   .     S
C271   O286    1.295   .     A
C272   C921    1.190   1_554 S
C273   C596    1.190   .     S
C275   C298    1.392   .     S
C276   C310    1.392   .     S
Cu277  O283    1.976   .     S
Cu277  N279    2.031   .     S
Cu277  O287    1.930   .     S
Cu277  O281    1.976   .     S
Cu277  Cu278   2.702   .     S
Cu277  O285    1.930   .     S
Cu278  O284    1.976   .     S
Cu278  N280    2.031   .     S
Cu278  O288    1.930   .     S
Cu278  O282    1.976   .     S
Cu278  O286    1.930   .     S
Br289  C310    1.939   .     S
Br290  C311    1.939   .     S
Br291  C312    1.939   .     S
Br292  C298    1.939   .     S
Br293  C301    1.929   .     S
Br294  C302    1.929   .     S
Br295  C303    1.929   .     S
Br296  C304    1.929   .     S
C297   O317    1.305   .     A
C297   C300    1.472   .     S
C297   O320    1.305   .     A
C298   C300    1.413   .     A
C299   C312    1.413   .     A
C299   C311    1.413   .     A
C299   C305    1.472   .     S
C300   C310    1.413   .     A
C301   N316    1.376   .     A
C302   N315    1.376   .     A
C302   C87     1.423   1_565 S
C303   N316    1.376   .     A
C304   N315    1.376   .     A
C304   C85     1.423   1_565 S
C305   O318    1.305   .     A
C305   O319    1.305   .     A
C306   O321    1.295   .     A
C306   C308    1.408   .     S
C306   O324    1.295   .     A
C307   O323    1.295   .     A
C307   C309    1.408   .     S
C307   O322    1.295   .     A
C308   C957    1.190   1_554 S
C309   C632    1.190   .     S
C311   C226    1.392   1_655 S
C312   C238    1.392   1_655 S
Cu313  O319    1.976   .     S
Cu313  N315    2.031   .     S
Cu313  O323    1.930   .     S
Cu313  O317    1.976   .     S
Cu313  Cu314   2.702   .     S
Cu313  O321    1.930   .     S
Cu314  O320    1.976   .     S
Cu314  N316    2.031   .     S
Cu314  O324    1.930   .     S
Cu314  O318    1.976   .     S
Cu314  O322    1.930   .     S
Br325  C346    1.939   .     S
Br326  C347    1.939   .     S
Br327  C348    1.939   .     S
Br328  C334    1.939   .     S
Br329  C337    1.929   .     S
Br330  C338    1.929   .     S
Br331  C339    1.929   .     S
Br332  C340    1.929   .     S
C333   O353    1.305   .     A
C333   C336    1.472   .     S
C333   O356    1.305   .     A
C334   C336    1.413   .     A
C334   C419    1.392   1_455 S
C335   C348    1.413   .     A
C335   C347    1.413   .     A
C335   C341    1.472   .     S
C336   C346    1.413   .     A
C337   N352    1.376   .     A
C337   C556    1.423   1_545 S
C338   N351    1.376   .     A
C338   C447    1.423   .     S
C339   N352    1.376   .     A
C339   C554    1.423   1_545 S
C340   N351    1.376   .     A
C340   C445    1.423   .     S
C341   O354    1.305   .     A
C341   O355    1.305   .     A
C342   O357    1.295   .     A
C342   C344    1.408   .     S
C342   O360    1.295   .     A
C343   O359    1.295   .     A
C343   C345    1.408   .     S
C343   O358    1.295   .     A
C345   C668    1.190   .     S
C346   C420    1.392   1_455 S
C347   C370    1.392   .     S
C348   C382    1.392   .     S
Cu349  O355    1.976   .     S
Cu349  N351    2.031   .     S
Cu349  O359    1.930   .     S
Cu349  O353    1.976   .     S
Cu349  Cu350   2.702   .     S
Cu349  O357    1.930   .     S
Cu350  O356    1.976   .     S
Cu350  N352    2.031   .     S
Cu350  O360    1.930   .     S
Cu350  O354    1.976   .     S
Cu350  O358    1.930   .     S
Br361  C382    1.939   .     S
Br362  C383    1.939   .     S
Br363  C384    1.939   .     S
Br364  C370    1.939   .     S
Br365  C373    1.929   .     S
Br366  C374    1.929   .     S
Br367  C375    1.929   .     S
Br368  C376    1.929   .     S
C369   O389    1.305   .     A
C369   C372    1.472   .     S
C369   O392    1.305   .     A
C370   C372    1.413   .     A
C371   C384    1.413   .     A
C371   C383    1.413   .     A
C371   C377    1.472   .     S
C372   C382    1.413   .     A
C373   N388    1.376   .     A
C373   C592    1.423   1_545 S
C374   N387    1.376   .     A
C374   C483    1.423   .     S
C375   N388    1.376   .     A
C375   C590    1.423   1_545 S
C376   N387    1.376   .     A
C376   C481    1.423   .     S
C377   O390    1.305   .     A
C377   O391    1.305   .     A
C378   O393    1.295   .     A
C378   C380    1.408   .     S
C378   O396    1.295   .     A
C379   O395    1.295   .     A
C379   C381    1.408   .     S
C379   O394    1.295   .     A
C381   C704    1.190   .     S
C383   C406    1.392   .     S
C384   C418    1.392   .     S
Cu385  O391    1.976   .     S
Cu385  N387    2.031   .     S
Cu385  O395    1.930   .     S
Cu385  O389    1.976   .     S
Cu385  Cu386   2.702   .     S
Cu385  O393    1.930   .     S
Cu386  O392    1.976   .     S
Cu386  N388    2.031   .     S
Cu386  O396    1.930   .     S
Cu386  O390    1.976   .     S
Cu386  O394    1.930   .     S
Br397  C418    1.939   .     S
Br398  C419    1.939   .     S
Br399  C420    1.939   .     S
Br400  C406    1.939   .     S
Br401  C409    1.929   .     S
Br402  C410    1.929   .     S
Br403  C411    1.929   .     S
Br404  C412    1.929   .     S
C405   O425    1.305   .     A
C405   C408    1.472   .     S
C405   O428    1.305   .     A
C406   C408    1.413   .     A
C407   C420    1.413   .     A
C407   C419    1.413   .     A
C407   C413    1.472   .     S
C408   C418    1.413   .     A
C409   N424    1.376   .     A
C409   C628    1.423   1_545 S
C410   N423    1.376   .     A
C410   C519    1.423   .     S
C411   N424    1.376   .     A
C411   C626    1.423   1_545 S
C412   N423    1.376   .     A
C412   C517    1.423   .     S
C413   O426    1.305   .     A
C413   O427    1.305   .     A
C414   O429    1.295   .     A
C414   C416    1.408   .     S
C414   O432    1.295   .     A
C415   O431    1.295   .     A
C415   C417    1.408   .     S
C415   O430    1.295   .     A
C417   C740    1.190   .     S
C419   C334    1.392   1_655 S
C420   C346    1.392   1_655 S
Cu421  O427    1.976   .     S
Cu421  N423    2.031   .     S
Cu421  O431    1.930   .     S
Cu421  O425    1.976   .     S
Cu421  Cu422   2.702   .     S
Cu421  O429    1.930   .     S
Cu422  O428    1.976   .     S
Cu422  N424    2.031   .     S
Cu422  O432    1.930   .     S
Cu422  O426    1.976   .     S
Cu422  O430    1.930   .     S
Br433  C454    1.939   .     S
Br434  C455    1.939   .     S
Br435  C456    1.939   .     S
Br436  C442    1.939   .     S
Br437  C445    1.929   .     S
Br438  C446    1.929   .     S
Br439  C447    1.929   .     S
Br440  C448    1.929   .     S
C441   O461    1.305   .     A
C441   C444    1.472   .     S
C441   O464    1.305   .     A
C442   C444    1.413   .     A
C442   C527    1.392   1_455 S
C443   C456    1.413   .     A
C443   C455    1.413   .     A
C443   C449    1.472   .     S
C444   C454    1.413   .     A
C445   N460    1.376   .     A
C446   N459    1.376   .     A
C446   C555    1.423   .     S
C447   N460    1.376   .     A
C448   N459    1.376   .     A
C448   C553    1.423   .     S
C449   O462    1.305   .     A
C449   O463    1.305   .     A
C450   O465    1.295   .     A
C450   C452    1.408   .     S
C450   O468    1.295   .     A
C451   O467    1.295   .     A
C451   C453    1.408   .     S
C451   O466    1.295   .     A
C453   C776    1.190   .     S
C454   C528    1.392   1_455 S
C455   C478    1.392   .     S
C456   C490    1.392   .     S
Cu457  O463    1.976   .     S
Cu457  N459    2.031   .     S
Cu457  O467    1.930   .     S
Cu457  O461    1.976   .     S
Cu457  Cu458   2.702   .     S
Cu457  O465    1.930   .     S
Cu458  O464    1.976   .     S
Cu458  N460    2.031   .     S
Cu458  O468    1.930   .     S
Cu458  O462    1.976   .     S
Cu458  O466    1.930   .     S
Br469  C490    1.939   .     S
Br470  C491    1.939   .     S
Br471  C492    1.939   .     S
Br472  C478    1.939   .     S
Br473  C481    1.929   .     S
Br474  C482    1.929   .     S
Br475  C483    1.929   .     S
Br476  C484    1.929   .     S
C477   O497    1.305   .     A
C477   C480    1.472   .     S
C477   O500    1.305   .     A
C478   C480    1.413   .     A
C479   C492    1.413   .     A
C479   C491    1.413   .     A
C479   C485    1.472   .     S
C480   C490    1.413   .     A
C481   N496    1.376   .     A
C482   N495    1.376   .     A
C482   C591    1.423   .     S
C483   N496    1.376   .     A
C484   N495    1.376   .     A
C484   C589    1.423   .     S
C485   O498    1.305   .     A
C485   O499    1.305   .     A
C486   O501    1.295   .     A
C486   C488    1.408   .     S
C486   O504    1.295   .     A
C487   O503    1.295   .     A
C487   C489    1.408   .     S
C487   O502    1.295   .     A
C489   C812    1.190   .     S
C491   C514    1.392   .     S
C492   C526    1.392   .     S
Cu493  O499    1.976   .     S
Cu493  N495    2.031   .     S
Cu493  O503    1.930   .     S
Cu493  O497    1.976   .     S
Cu493  Cu494   2.702   .     S
Cu493  O501    1.930   .     S
Cu494  O500    1.976   .     S
Cu494  N496    2.031   .     S
Cu494  O504    1.930   .     S
Cu494  O498    1.976   .     S
Cu494  O502    1.930   .     S
Br505  C526    1.939   .     S
Br506  C527    1.939   .     S
Br507  C528    1.939   .     S
Br508  C514    1.939   .     S
Br509  C517    1.929   .     S
Br510  C518    1.929   .     S
Br511  C519    1.929   .     S
Br512  C520    1.929   .     S
C513   O533    1.305   .     A
C513   C516    1.472   .     S
C513   O536    1.305   .     A
C514   C516    1.413   .     A
C515   C528    1.413   .     A
C515   C527    1.413   .     A
C515   C521    1.472   .     S
C516   C526    1.413   .     A
C517   N532    1.376   .     A
C518   N531    1.376   .     A
C518   C627    1.423   .     S
C519   N532    1.376   .     A
C520   N531    1.376   .     A
C520   C625    1.423   .     S
C521   O534    1.305   .     A
C521   O535    1.305   .     A
C522   O537    1.295   .     A
C522   C524    1.408   .     S
C522   O540    1.295   .     A
C523   O539    1.295   .     A
C523   C525    1.408   .     S
C523   O538    1.295   .     A
C525   C848    1.190   .     S
C527   C442    1.392   1_655 S
C528   C454    1.392   1_655 S
Cu529  O535    1.976   .     S
Cu529  N531    2.031   .     S
Cu529  O539    1.930   .     S
Cu529  O533    1.976   .     S
Cu529  Cu530   2.702   .     S
Cu529  O537    1.930   .     S
Cu530  O536    1.976   .     S
Cu530  N532    2.031   .     S
Cu530  O540    1.930   .     S
Cu530  O534    1.976   .     S
Cu530  O538    1.930   .     S
Br541  C562    1.939   .     S
Br542  C563    1.939   .     S
Br543  C564    1.939   .     S
Br544  C550    1.939   .     S
Br545  C553    1.929   .     S
Br546  C554    1.929   .     S
Br547  C555    1.929   .     S
Br548  C556    1.929   .     S
C549   O569    1.305   .     A
C549   C552    1.472   .     S
C549   O572    1.305   .     A
C550   C552    1.413   .     A
C550   C635    1.392   1_455 S
C551   C564    1.413   .     A
C551   C563    1.413   .     A
C551   C557    1.472   .     S
C552   C562    1.413   .     A
C553   N568    1.376   .     A
C554   N567    1.376   .     A
C554   C339    1.423   1_565 S
C555   N568    1.376   .     A
C556   N567    1.376   .     A
C556   C337    1.423   1_565 S
C557   O570    1.305   .     A
C557   O571    1.305   .     A
C558   O573    1.295   .     A
C558   C560    1.408   .     S
C558   O576    1.295   .     A
C559   O575    1.295   .     A
C559   C561    1.408   .     S
C559   O574    1.295   .     A
C561   C884    1.190   .     S
C562   C636    1.392   1_455 S
C563   C586    1.392   .     S
C564   C598    1.392   .     S
Cu565  O571    1.976   .     S
Cu565  N567    2.031   .     S
Cu565  O575    1.930   .     S
Cu565  O569    1.976   .     S
Cu565  Cu566   2.702   .     S
Cu565  O573    1.930   .     S
Cu566  O572    1.976   .     S
Cu566  N568    2.031   .     S
Cu566  O576    1.930   .     S
Cu566  O570    1.976   .     S
Cu566  O574    1.930   .     S
Br577  C598    1.939   .     S
Br578  C599    1.939   .     S
Br579  C600    1.939   .     S
Br580  C586    1.939   .     S
Br581  C589    1.929   .     S
Br582  C590    1.929   .     S
Br583  C591    1.929   .     S
Br584  C592    1.929   .     S
C585   O605    1.305   .     A
C585   C588    1.472   .     S
C585   O608    1.305   .     A
C586   C588    1.413   .     A
C587   C600    1.413   .     A
C587   C599    1.413   .     A
C587   C593    1.472   .     S
C588   C598    1.413   .     A
C589   N604    1.376   .     A
C590   N603    1.376   .     A
C590   C375    1.423   1_565 S
C591   N604    1.376   .     A
C592   N603    1.376   .     A
C592   C373    1.423   1_565 S
C593   O606    1.305   .     A
C593   O607    1.305   .     A
C594   O609    1.295   .     A
C594   C596    1.408   .     S
C594   O612    1.295   .     A
C595   O611    1.295   .     A
C595   C597    1.408   .     S
C595   O610    1.295   .     A
C597   C920    1.190   .     S
C599   C622    1.392   .     S
C600   C634    1.392   .     S
Cu601  O607    1.976   .     S
Cu601  N603    2.031   .     S
Cu601  O611    1.930   .     S
Cu601  O605    1.976   .     S
Cu601  Cu602   2.702   .     S
Cu601  O609    1.930   .     S
Cu602  O608    1.976   .     S
Cu602  N604    2.031   .     S
Cu602  O612    1.930   .     S
Cu602  O606    1.976   .     S
Cu602  O610    1.930   .     S
Br613  C634    1.939   .     S
Br614  C635    1.939   .     S
Br615  C636    1.939   .     S
Br616  C622    1.939   .     S
Br617  C625    1.929   .     S
Br618  C626    1.929   .     S
Br619  C627    1.929   .     S
Br620  C628    1.929   .     S
C621   O641    1.305   .     A
C621   C624    1.472   .     S
C621   O644    1.305   .     A
C622   C624    1.413   .     A
C623   C636    1.413   .     A
C623   C635    1.413   .     A
C623   C629    1.472   .     S
C624   C634    1.413   .     A
C625   N640    1.376   .     A
C626   N639    1.376   .     A
C626   C411    1.423   1_565 S
C627   N640    1.376   .     A
C628   N639    1.376   .     A
C628   C409    1.423   1_565 S
C629   O642    1.305   .     A
C629   O643    1.305   .     A
C630   O645    1.295   .     A
C630   C632    1.408   .     S
C630   O648    1.295   .     A
C631   O647    1.295   .     A
C631   C633    1.408   .     S
C631   O646    1.295   .     A
C633   C956    1.190   .     S
C635   C550    1.392   1_655 S
C636   C562    1.392   1_655 S
Cu637  O643    1.976   .     S
Cu637  N639    2.031   .     S
Cu637  O647    1.930   .     S
Cu637  O641    1.976   .     S
Cu637  Cu638   2.702   .     S
Cu637  O645    1.930   .     S
Cu638  O644    1.976   .     S
Cu638  N640    2.031   .     S
Cu638  O648    1.930   .     S
Cu638  O642    1.976   .     S
Cu638  O646    1.930   .     S
Br649  C670    1.939   .     S
Br650  C671    1.939   .     S
Br651  C672    1.939   .     S
Br652  C658    1.939   .     S
Br653  C661    1.929   .     S
Br654  C662    1.929   .     S
Br655  C663    1.929   .     S
Br656  C664    1.929   .     S
C657   O677    1.305   .     A
C657   C660    1.472   .     S
C657   O680    1.305   .     A
C658   C660    1.413   .     A
C658   C743    1.392   1_455 S
C659   C672    1.413   .     A
C659   C671    1.413   .     A
C659   C665    1.472   .     S
C660   C670    1.413   .     A
C661   N676    1.376   .     A
C661   C880    1.423   1_545 S
C662   N675    1.376   .     A
C662   C771    1.423   .     S
C663   N676    1.376   .     A
C663   C878    1.423   1_545 S
C664   N675    1.376   .     A
C664   C769    1.423   .     S
C665   O678    1.305   .     A
C665   O679    1.305   .     A
C666   O681    1.295   .     A
C666   C668    1.408   .     S
C666   O684    1.295   .     A
C667   O683    1.295   .     A
C667   C669    1.408   .     S
C667   O682    1.295   .     A
C669   C20     1.190   1_556 S
C670   C744    1.392   1_455 S
C671   C694    1.392   .     S
C672   C706    1.392   .     S
Cu673  O679    1.976   .     S
Cu673  N675    2.031   .     S
Cu673  O683    1.930   .     S
Cu673  O677    1.976   .     S
Cu673  Cu674   2.702   .     S
Cu673  O681    1.930   .     S
Cu674  O680    1.976   .     S
Cu674  N676    2.031   .     S
Cu674  O684    1.930   .     S
Cu674  O678    1.976   .     S
Cu674  O682    1.930   .     S
Br685  C706    1.939   .     S
Br686  C707    1.939   .     S
Br687  C708    1.939   .     S
Br688  C694    1.939   .     S
Br689  C697    1.929   .     S
Br690  C698    1.929   .     S
Br691  C699    1.929   .     S
Br692  C700    1.929   .     S
C693   O713    1.305   .     A
C693   C696    1.472   .     S
C693   O716    1.305   .     A
C694   C696    1.413   .     A
C695   C708    1.413   .     A
C695   C707    1.413   .     A
C695   C701    1.472   .     S
C696   C706    1.413   .     A
C697   N712    1.376   .     A
C697   C916    1.423   1_545 S
C698   N711    1.376   .     A
C698   C807    1.423   .     S
C699   N712    1.376   .     A
C699   C914    1.423   1_545 S
C700   N711    1.376   .     A
C700   C805    1.423   .     S
C701   O714    1.305   .     A
C701   O715    1.305   .     A
C702   O717    1.295   .     A
C702   C704    1.408   .     S
C702   O720    1.295   .     A
C703   O719    1.295   .     A
C703   C705    1.408   .     S
C703   O718    1.295   .     A
C705   C56     1.190   1_556 S
C707   C730    1.392   .     S
C708   C742    1.392   .     S
Cu709  O715    1.976   .     S
Cu709  N711    2.031   .     S
Cu709  O719    1.930   .     S
Cu709  O713    1.976   .     S
Cu709  Cu710   2.702   .     S
Cu709  O717    1.930   .     S
Cu710  O716    1.976   .     S
Cu710  N712    2.031   .     S
Cu710  O720    1.930   .     S
Cu710  O714    1.976   .     S
Cu710  O718    1.930   .     S
Br721  C742    1.939   .     S
Br722  C743    1.939   .     S
Br723  C744    1.939   .     S
Br724  C730    1.939   .     S
Br725  C733    1.929   .     S
Br726  C734    1.929   .     S
Br727  C735    1.929   .     S
Br728  C736    1.929   .     S
C729   O749    1.305   .     A
C729   C732    1.472   .     S
C729   O752    1.305   .     A
C730   C732    1.413   .     A
C731   C744    1.413   .     A
C731   C743    1.413   .     A
C731   C737    1.472   .     S
C732   C742    1.413   .     A
C733   N748    1.376   .     A
C733   C952    1.423   1_545 S
C734   N747    1.376   .     A
C734   C843    1.423   .     S
C735   N748    1.376   .     A
C735   C950    1.423   1_545 S
C736   N747    1.376   .     A
C736   C841    1.423   .     S
C737   O750    1.305   .     A
C737   O751    1.305   .     A
C738   O753    1.295   .     A
C738   C740    1.408   .     S
C738   O756    1.295   .     A
C739   O755    1.295   .     A
C739   C741    1.408   .     S
C739   O754    1.295   .     A
C741   C92     1.190   1_556 S
C743   C658    1.392   1_655 S
C744   C670    1.392   1_655 S
Cu745  O751    1.976   .     S
Cu745  N747    2.031   .     S
Cu745  O755    1.930   .     S
Cu745  O749    1.976   .     S
Cu745  Cu746   2.702   .     S
Cu745  O753    1.930   .     S
Cu746  O752    1.976   .     S
Cu746  N748    2.031   .     S
Cu746  O756    1.930   .     S
Cu746  O750    1.976   .     S
Cu746  O754    1.930   .     S
Br757  C778    1.939   .     S
Br758  C779    1.939   .     S
Br759  C780    1.939   .     S
Br760  C766    1.939   .     S
Br761  C769    1.929   .     S
Br762  C770    1.929   .     S
Br763  C771    1.929   .     S
Br764  C772    1.929   .     S
C765   O785    1.305   .     A
C765   C768    1.472   .     S
C765   O788    1.305   .     A
C766   C768    1.413   .     A
C766   C851    1.392   1_455 S
C767   C780    1.413   .     A
C767   C779    1.413   .     A
C767   C773    1.472   .     S
C768   C778    1.413   .     A
C769   N784    1.376   .     A
C770   N783    1.376   .     A
C770   C879    1.423   .     S
C771   N784    1.376   .     A
C772   N783    1.376   .     A
C772   C877    1.423   .     S
C773   O786    1.305   .     A
C773   O787    1.305   .     A
C774   O789    1.295   .     A
C774   C776    1.408   .     S
C774   O792    1.295   .     A
C775   O791    1.295   .     A
C775   C777    1.408   .     S
C775   O790    1.295   .     A
C777   C128    1.190   1_556 S
C778   C852    1.392   1_455 S
C779   C802    1.392   .     S
C780   C814    1.392   .     S
Cu781  O787    1.976   .     S
Cu781  N783    2.031   .     S
Cu781  O791    1.930   .     S
Cu781  O785    1.976   .     S
Cu781  Cu782   2.702   .     S
Cu781  O789    1.930   .     S
Cu782  O788    1.976   .     S
Cu782  N784    2.031   .     S
Cu782  O792    1.930   .     S
Cu782  O786    1.976   .     S
Cu782  O790    1.930   .     S
Br793  C814    1.939   .     S
Br794  C815    1.939   .     S
Br795  C816    1.939   .     S
Br796  C802    1.939   .     S
Br797  C805    1.929   .     S
Br798  C806    1.929   .     S
Br799  C807    1.929   .     S
Br800  C808    1.929   .     S
C801   O821    1.305   .     A
C801   C804    1.472   .     S
C801   O824    1.305   .     A
C802   C804    1.413   .     A
C803   C816    1.413   .     A
C803   C815    1.413   .     A
C803   C809    1.472   .     S
C804   C814    1.413   .     A
C805   N820    1.376   .     A
C806   N819    1.376   .     A
C806   C915    1.423   .     S
C807   N820    1.376   .     A
C808   N819    1.376   .     A
C808   C913    1.423   .     S
C809   O822    1.305   .     A
C809   O823    1.305   .     A
C810   O825    1.295   .     A
C810   C812    1.408   .     S
C810   O828    1.295   .     A
C811   O827    1.295   .     A
C811   C813    1.408   .     S
C811   O826    1.295   .     A
C813   C164    1.190   1_556 S
C815   C838    1.392   .     S
C816   C850    1.392   .     S
Cu817  O823    1.976   .     S
Cu817  N819    2.031   .     S
Cu817  O827    1.930   .     S
Cu817  O821    1.976   .     S
Cu817  Cu818   2.702   .     S
Cu817  O825    1.930   .     S
Cu818  O824    1.976   .     S
Cu818  N820    2.031   .     S
Cu818  O828    1.930   .     S
Cu818  O822    1.976   .     S
Cu818  O826    1.930   .     S
Br829  C850    1.939   .     S
Br830  C851    1.939   .     S
Br831  C852    1.939   .     S
Br832  C838    1.939   .     S
Br833  C841    1.929   .     S
Br834  C842    1.929   .     S
Br835  C843    1.929   .     S
Br836  C844    1.929   .     S
C837   O857    1.305   .     A
C837   C840    1.472   .     S
C837   O860    1.305   .     A
C838   C840    1.413   .     A
C839   C852    1.413   .     A
C839   C851    1.413   .     A
C839   C845    1.472   .     S
C840   C850    1.413   .     A
C841   N856    1.376   .     A
C842   N855    1.376   .     A
C842   C951    1.423   .     S
C843   N856    1.376   .     A
C844   N855    1.376   .     A
C844   C949    1.423   .     S
C845   O858    1.305   .     A
C845   O859    1.305   .     A
C846   O861    1.295   .     A
C846   C848    1.408   .     S
C846   O864    1.295   .     A
C847   O863    1.295   .     A
C847   C849    1.408   .     S
C847   O862    1.295   .     A
C849   C200    1.190   1_556 S
C851   C766    1.392   1_655 S
C852   C778    1.392   1_655 S
Cu853  O859    1.976   .     S
Cu853  N855    2.031   .     S
Cu853  O863    1.930   .     S
Cu853  O857    1.976   .     S
Cu853  Cu854   2.702   .     S
Cu853  O861    1.930   .     S
Cu854  O860    1.976   .     S
Cu854  N856    2.031   .     S
Cu854  O864    1.930   .     S
Cu854  O858    1.976   .     S
Cu854  O862    1.930   .     S
Br865  C886    1.939   .     S
Br866  C887    1.939   .     S
Br867  C888    1.939   .     S
Br868  C874    1.939   .     S
Br869  C877    1.929   .     S
Br870  C878    1.929   .     S
Br871  C879    1.929   .     S
Br872  C880    1.929   .     S
C873   O893    1.305   .     A
C873   C876    1.472   .     S
C873   O896    1.305   .     A
C874   C876    1.413   .     A
C874   C959    1.392   1_455 S
C875   C888    1.413   .     A
C875   C887    1.413   .     A
C875   C881    1.472   .     S
C876   C886    1.413   .     A
C877   N892    1.376   .     A
C878   N891    1.376   .     A
C878   C663    1.423   1_565 S
C879   N892    1.376   .     A
C880   N891    1.376   .     A
C880   C661    1.423   1_565 S
C881   O894    1.305   .     A
C881   O895    1.305   .     A
C882   O897    1.295   .     A
C882   C884    1.408   .     S
C882   O900    1.295   .     A
C883   O899    1.295   .     A
C883   C885    1.408   .     S
C883   O898    1.295   .     A
C885   C236    1.190   1_556 S
C886   C960    1.392   1_455 S
C887   C910    1.392   .     S
C888   C922    1.392   .     S
Cu889  O895    1.976   .     S
Cu889  N891    2.031   .     S
Cu889  O899    1.930   .     S
Cu889  O893    1.976   .     S
Cu889  Cu890   2.702   .     S
Cu889  O897    1.930   .     S
Cu890  O896    1.976   .     S
Cu890  N892    2.031   .     S
Cu890  O900    1.930   .     S
Cu890  O894    1.976   .     S
Cu890  O898    1.930   .     S
Br901  C922    1.939   .     S
Br902  C923    1.939   .     S
Br903  C924    1.939   .     S
Br904  C910    1.939   .     S
Br905  C913    1.929   .     S
Br906  C914    1.929   .     S
Br907  C915    1.929   .     S
Br908  C916    1.929   .     S
C909   O929    1.305   .     A
C909   C912    1.472   .     S
C909   O932    1.305   .     A
C910   C912    1.413   .     A
C911   C924    1.413   .     A
C911   C923    1.413   .     A
C911   C917    1.472   .     S
C912   C922    1.413   .     A
C913   N928    1.376   .     A
C914   N927    1.376   .     A
C914   C699    1.423   1_565 S
C915   N928    1.376   .     A
C916   N927    1.376   .     A
C916   C697    1.423   1_565 S
C917   O930    1.305   .     A
C917   O931    1.305   .     A
C918   O933    1.295   .     A
C918   C920    1.408   .     S
C918   O936    1.295   .     A
C919   O935    1.295   .     A
C919   C921    1.408   .     S
C919   O934    1.295   .     A
C921   C272    1.190   1_556 S
C923   C946    1.392   .     S
C924   C958    1.392   .     S
Cu925  O931    1.976   .     S
Cu925  N927    2.031   .     S
Cu925  O935    1.930   .     S
Cu925  O929    1.976   .     S
Cu925  Cu926   2.702   .     S
Cu925  O933    1.930   .     S
Cu926  O932    1.976   .     S
Cu926  N928    2.031   .     S
Cu926  O936    1.930   .     S
Cu926  O930    1.976   .     S
Cu926  O934    1.930   .     S
Br937  C958    1.939   .     S
Br938  C959    1.939   .     S
Br939  C960    1.939   .     S
Br940  C946    1.939   .     S
Br941  C949    1.929   .     S
Br942  C950    1.929   .     S
Br943  C951    1.929   .     S
Br944  C952    1.929   .     S
C945   O965    1.305   .     A
C945   C948    1.472   .     S
C945   O968    1.305   .     A
C946   C948    1.413   .     A
C947   C960    1.413   .     A
C947   C959    1.413   .     A
C947   C953    1.472   .     S
C948   C958    1.413   .     A
C949   N964    1.376   .     A
C950   N963    1.376   .     A
C950   C735    1.423   1_565 S
C951   N964    1.376   .     A
C952   N963    1.376   .     A
C952   C733    1.423   1_565 S
C953   O966    1.305   .     A
C953   O967    1.305   .     A
C954   O969    1.295   .     A
C954   C956    1.408   .     S
C954   O972    1.295   .     A
C955   O971    1.295   .     A
C955   C957    1.408   .     S
C955   O970    1.295   .     A
C957   C308    1.190   1_556 S
C959   C874    1.392   1_655 S
C960   C886    1.392   1_655 S
Cu961  O967    1.976   .     S
Cu961  N963    2.031   .     S
Cu961  O971    1.930   .     S
Cu961  O965    1.976   .     S
Cu961  Cu962   2.702   .     S
Cu961  O969    1.930   .     S
Cu962  O968    1.976   .     S
Cu962  N964    2.031   .     S
Cu962  O972    1.930   .     S
Cu962  O966    1.976   .     S
Cu962  O970    1.930   .     S
