data_str_m2_o10_o17_pcu_sym.216
_audit_creation_date              2020-01-03
_audit_creation_method            'Materials Studio'
_symmetry_space_group_name_H-M    'P1'
_symmetry_Int_Tables_number       1
_symmetry_cell_setting            triclinic
loop_
_symmetry_equiv_pos_as_xyz
  x,y,z
_cell_length_a                    29.9101
_cell_length_b                    26.1570
_cell_length_c                    22.3373
_cell_angle_alpha                 102.8562
_cell_angle_beta                  93.7646
_cell_angle_gamma                 92.3456
loop_
_atom_site_label
_atom_site_type_symbol
_atom_site_fract_x
_atom_site_fract_y
_atom_site_fract_z
_atom_site_U_iso_or_equiv
_atom_site_adp_type
_atom_site_occupancy
O1     O     0.25326   0.09538   0.20659   0.00000  Uiso   1.00
O2     O     0.24675   0.23796   0.12674   0.00000  Uiso   1.00
O3     O     0.24480   0.08559   0.10279   0.00000  Uiso   1.00
O4     O     0.25520   0.24774   0.23055   0.00000  Uiso   1.00
C5     C     0.24867   0.06672   0.15123   0.00000  Uiso   1.00
C6     C     0.25133   0.26661   0.18210   0.00000  Uiso   1.00
O7     O     0.18936   0.17155   0.21857   0.00000  Uiso   1.00
O8     O     0.31065   0.16179   0.11476   0.00000  Uiso   1.00
O9     O     0.18090   0.16176   0.11477   0.00000  Uiso   1.00
O10    O     0.31910   0.17157   0.21857   0.00000  Uiso   1.00
C11    C     0.16456   0.16655   0.16771   0.00000  Uiso   1.00
C12    C     0.33544   0.16678   0.16563   0.00000  Uiso   1.00
Cu13   Cu    0.25501   0.17246   0.22813   0.00000  Uiso   1.00
Cu14   Cu    0.24500   0.16087   0.10521   0.00000  Uiso   1.00
C15    C     0.40924   0.21344   0.19010   0.00000  Uiso   1.00
C16    C     0.09076   0.11990   0.14324   0.00000  Uiso   1.00
C17    C     0.38350   0.16739   0.16335   0.00000  Uiso   1.00
C18    C     0.11650   0.16594   0.16998   0.00000  Uiso   1.00
C19    C     0.40348   0.12160   0.13645   0.00000  Uiso   1.00
C20    C     0.09652   0.21173   0.19688   0.00000  Uiso   1.00
C21    C     0.45007   0.12085   0.13842   0.00000  Uiso   1.00
C22    C     0.04993   0.21248   0.19492   0.00000  Uiso   1.00
C23    C     0.47655   0.16726   0.16528   0.00000  Uiso   1.00
C24    C     0.02345   0.16607   0.16806   0.00000  Uiso   1.00
C25    C     0.45604   0.21474   0.18939   0.00000  Uiso   1.00
C26    C     0.04396   0.11858   0.14395   0.00000  Uiso   1.00
C27    C     0.47033   0.07394   0.11558   0.00000  Uiso   1.00
C28    C     0.02967   0.25939   0.21777   0.00000  Uiso   1.00
C29    C     0.01707   0.07177   0.11954   0.00000  Uiso   1.00
C30    C     0.48293   0.26156   0.21381   0.00000  Uiso   1.00
H31    H     0.39224   0.24757   0.21201   0.00000  Uiso   1.00
H32    H     0.10776   0.08576   0.12132   0.00000  Uiso   1.00
H33    H     0.38271   0.08617   0.11633   0.00000  Uiso   1.00
H34    H     0.11729   0.24716   0.21701   0.00000  Uiso   1.00
H35    H     0.44960   0.03832   0.09651   0.00000  Uiso   1.00
H36    H     0.05040   0.29501   0.23684   0.00000  Uiso   1.00
C37    C     0.24808   0.01103   0.14242   0.00000  Uiso   1.00
C38    C     0.25192   0.32230   0.19091   0.00000  Uiso   1.00
N39    N     0.23745   0.15214   0.01284   0.00000  Uiso   1.00
N40    N     0.26256   0.18119   0.32049   0.00000  Uiso   1.00
H41    H     0.21510   0.12609   0.31627   0.00000  Uiso   1.00
H42    H     0.28491   0.20725   0.01707   0.00000  Uiso   1.00
N43    N     0.03627   0.02157   0.10131   0.00000  Uiso   1.00
O44    O     0.01638   0.31887   0.05671   0.00000  Uiso   1.00
O45    O     0.06794   0.00812   0.13655   0.00000  Uiso   1.00
N46    N     0.46373   0.31175   0.23205   0.00000  Uiso   1.00
O47    O     0.48360   0.01443   0.27670   0.00000  Uiso   1.00
O48    O     0.43208   0.32522   0.19680   0.00000  Uiso   1.00
F49    F     0.24356   0.31558   0.08319   0.00000  Uiso   1.00
F50    F     0.25644   0.01776   0.25014   0.00000  Uiso   1.00
O51    O     0.75326   0.09538   0.20659   0.00000  Uiso   1.00
O52    O     0.74675   0.23796   0.12674   0.00000  Uiso   1.00
O53    O     0.74480   0.08559   0.10279   0.00000  Uiso   1.00
O54    O     0.75520   0.24774   0.23055   0.00000  Uiso   1.00
C55    C     0.74867   0.06672   0.15123   0.00000  Uiso   1.00
C56    C     0.75133   0.26661   0.18210   0.00000  Uiso   1.00
O57    O     0.68936   0.17155   0.21857   0.00000  Uiso   1.00
O58    O     0.81065   0.16179   0.11476   0.00000  Uiso   1.00
O59    O     0.68090   0.16176   0.11477   0.00000  Uiso   1.00
O60    O     0.81910   0.17157   0.21857   0.00000  Uiso   1.00
C61    C     0.66456   0.16655   0.16771   0.00000  Uiso   1.00
C62    C     0.83544   0.16678   0.16563   0.00000  Uiso   1.00
Cu63   Cu    0.75501   0.17246   0.22813   0.00000  Uiso   1.00
Cu64   Cu    0.74500   0.16087   0.10521   0.00000  Uiso   1.00
C65    C     0.90924   0.21344   0.19010   0.00000  Uiso   1.00
C66    C     0.59076   0.11990   0.14324   0.00000  Uiso   1.00
C67    C     0.88350   0.16739   0.16335   0.00000  Uiso   1.00
C68    C     0.61650   0.16594   0.16998   0.00000  Uiso   1.00
C69    C     0.90348   0.12160   0.13645   0.00000  Uiso   1.00
C70    C     0.59652   0.21173   0.19688   0.00000  Uiso   1.00
C71    C     0.95007   0.12085   0.13842   0.00000  Uiso   1.00
C72    C     0.54993   0.21248   0.19492   0.00000  Uiso   1.00
C73    C     0.97655   0.16726   0.16528   0.00000  Uiso   1.00
C74    C     0.52345   0.16607   0.16806   0.00000  Uiso   1.00
C75    C     0.95604   0.21474   0.18939   0.00000  Uiso   1.00
C76    C     0.54396   0.11858   0.14395   0.00000  Uiso   1.00
C77    C     0.97033   0.07394   0.11558   0.00000  Uiso   1.00
C78    C     0.52967   0.25939   0.21777   0.00000  Uiso   1.00
C79    C     0.51707   0.07177   0.11954   0.00000  Uiso   1.00
C80    C     0.98293   0.26156   0.21381   0.00000  Uiso   1.00
H81    H     0.89224   0.24757   0.21201   0.00000  Uiso   1.00
H82    H     0.60776   0.08576   0.12132   0.00000  Uiso   1.00
H83    H     0.88271   0.08617   0.11633   0.00000  Uiso   1.00
H84    H     0.61729   0.24716   0.21701   0.00000  Uiso   1.00
H85    H     0.94960   0.03832   0.09651   0.00000  Uiso   1.00
H86    H     0.55040   0.29501   0.23684   0.00000  Uiso   1.00
C87    C     0.74808   0.01103   0.14242   0.00000  Uiso   1.00
C88    C     0.75192   0.32230   0.19091   0.00000  Uiso   1.00
N89    N     0.73745   0.15214   0.01284   0.00000  Uiso   1.00
N90    N     0.76256   0.18119   0.32049   0.00000  Uiso   1.00
H91    H     0.71510   0.12609   0.31627   0.00000  Uiso   1.00
H92    H     0.78491   0.20725   0.01707   0.00000  Uiso   1.00
N93    N     0.53627   0.02157   0.10131   0.00000  Uiso   1.00
O94    O     0.51638   0.31887   0.05671   0.00000  Uiso   1.00
O95    O     0.56794   0.00812   0.13655   0.00000  Uiso   1.00
N96    N     0.96373   0.31175   0.23205   0.00000  Uiso   1.00
O97    O     0.98360   0.01443   0.27670   0.00000  Uiso   1.00
O98    O     0.93208   0.32522   0.19680   0.00000  Uiso   1.00
F99    F     0.74356   0.31558   0.08319   0.00000  Uiso   1.00
F100   F     0.75644   0.01776   0.25014   0.00000  Uiso   1.00
O101   O     0.25326   0.42871   0.20659   0.00000  Uiso   1.00
O102   O     0.24675   0.57129   0.12674   0.00000  Uiso   1.00
O103   O     0.24480   0.41892   0.10279   0.00000  Uiso   1.00
O104   O     0.25520   0.58108   0.23055   0.00000  Uiso   1.00
C105   C     0.24867   0.40006   0.15123   0.00000  Uiso   1.00
C106   C     0.25133   0.59994   0.18210   0.00000  Uiso   1.00
O107   O     0.18936   0.50488   0.21857   0.00000  Uiso   1.00
O108   O     0.31065   0.49512   0.11476   0.00000  Uiso   1.00
O109   O     0.18090   0.49510   0.11477   0.00000  Uiso   1.00
O110   O     0.31910   0.50490   0.21857   0.00000  Uiso   1.00
C111   C     0.16456   0.49989   0.16771   0.00000  Uiso   1.00
C112   C     0.33544   0.50011   0.16563   0.00000  Uiso   1.00
Cu113  Cu    0.25501   0.50579   0.22813   0.00000  Uiso   1.00
Cu114  Cu    0.24500   0.49421   0.10521   0.00000  Uiso   1.00
C115   C     0.40924   0.54677   0.19010   0.00000  Uiso   1.00
C116   C     0.09076   0.45323   0.14324   0.00000  Uiso   1.00
C117   C     0.38350   0.50072   0.16335   0.00000  Uiso   1.00
C118   C     0.11650   0.49928   0.16998   0.00000  Uiso   1.00
C119   C     0.40348   0.45494   0.13645   0.00000  Uiso   1.00
C120   C     0.09652   0.54506   0.19688   0.00000  Uiso   1.00
C121   C     0.45007   0.45418   0.13842   0.00000  Uiso   1.00
C122   C     0.04993   0.54582   0.19492   0.00000  Uiso   1.00
C123   C     0.47655   0.50060   0.16528   0.00000  Uiso   1.00
C124   C     0.02345   0.49940   0.16806   0.00000  Uiso   1.00
C125   C     0.45604   0.54808   0.18939   0.00000  Uiso   1.00
C126   C     0.04396   0.45192   0.14395   0.00000  Uiso   1.00
C127   C     0.47033   0.40727   0.11558   0.00000  Uiso   1.00
C128   C     0.02967   0.59273   0.21777   0.00000  Uiso   1.00
C129   C     0.01707   0.40510   0.11954   0.00000  Uiso   1.00
C130   C     0.48293   0.59489   0.21381   0.00000  Uiso   1.00
H131   H     0.39224   0.58091   0.21201   0.00000  Uiso   1.00
H132   H     0.10776   0.41909   0.12132   0.00000  Uiso   1.00
H133   H     0.38271   0.41950   0.11633   0.00000  Uiso   1.00
H134   H     0.11729   0.58049   0.21701   0.00000  Uiso   1.00
H135   H     0.44960   0.37165   0.09651   0.00000  Uiso   1.00
H136   H     0.05040   0.62834   0.23684   0.00000  Uiso   1.00
C137   C     0.24808   0.34437   0.14242   0.00000  Uiso   1.00
C138   C     0.25192   0.65563   0.19091   0.00000  Uiso   1.00
N139   N     0.23745   0.48547   0.01284   0.00000  Uiso   1.00
N140   N     0.26256   0.51453   0.32049   0.00000  Uiso   1.00
H141   H     0.21510   0.45942   0.31627   0.00000  Uiso   1.00
H142   H     0.28491   0.54058   0.01707   0.00000  Uiso   1.00
N143   N     0.03627   0.35490   0.10131   0.00000  Uiso   1.00
O144   O     0.01638   0.65220   0.05671   0.00000  Uiso   1.00
O145   O     0.06794   0.34145   0.13655   0.00000  Uiso   1.00
N146   N     0.46373   0.64509   0.23205   0.00000  Uiso   1.00
O147   O     0.48360   0.34777   0.27670   0.00000  Uiso   1.00
O148   O     0.43208   0.65856   0.19680   0.00000  Uiso   1.00
F149   F     0.24356   0.64891   0.08319   0.00000  Uiso   1.00
F150   F     0.25644   0.35109   0.25014   0.00000  Uiso   1.00
O151   O     0.75326   0.42871   0.20659   0.00000  Uiso   1.00
O152   O     0.74675   0.57129   0.12674   0.00000  Uiso   1.00
O153   O     0.74480   0.41892   0.10279   0.00000  Uiso   1.00
O154   O     0.75520   0.58108   0.23055   0.00000  Uiso   1.00
C155   C     0.74867   0.40006   0.15123   0.00000  Uiso   1.00
C156   C     0.75133   0.59994   0.18210   0.00000  Uiso   1.00
O157   O     0.68936   0.50488   0.21857   0.00000  Uiso   1.00
O158   O     0.81065   0.49512   0.11476   0.00000  Uiso   1.00
O159   O     0.68090   0.49510   0.11477   0.00000  Uiso   1.00
O160   O     0.81910   0.50490   0.21857   0.00000  Uiso   1.00
C161   C     0.66456   0.49989   0.16771   0.00000  Uiso   1.00
C162   C     0.83544   0.50011   0.16563   0.00000  Uiso   1.00
Cu163  Cu    0.75501   0.50579   0.22813   0.00000  Uiso   1.00
Cu164  Cu    0.74500   0.49421   0.10521   0.00000  Uiso   1.00
C165   C     0.90924   0.54677   0.19010   0.00000  Uiso   1.00
C166   C     0.59076   0.45323   0.14324   0.00000  Uiso   1.00
C167   C     0.88350   0.50072   0.16335   0.00000  Uiso   1.00
C168   C     0.61650   0.49928   0.16998   0.00000  Uiso   1.00
C169   C     0.90348   0.45494   0.13645   0.00000  Uiso   1.00
C170   C     0.59652   0.54506   0.19688   0.00000  Uiso   1.00
C171   C     0.95007   0.45418   0.13842   0.00000  Uiso   1.00
C172   C     0.54993   0.54582   0.19492   0.00000  Uiso   1.00
C173   C     0.97655   0.50060   0.16528   0.00000  Uiso   1.00
C174   C     0.52345   0.49940   0.16806   0.00000  Uiso   1.00
C175   C     0.95604   0.54808   0.18939   0.00000  Uiso   1.00
C176   C     0.54396   0.45192   0.14395   0.00000  Uiso   1.00
C177   C     0.97033   0.40727   0.11558   0.00000  Uiso   1.00
C178   C     0.52967   0.59273   0.21777   0.00000  Uiso   1.00
C179   C     0.51707   0.40510   0.11954   0.00000  Uiso   1.00
C180   C     0.98293   0.59489   0.21381   0.00000  Uiso   1.00
H181   H     0.89224   0.58091   0.21201   0.00000  Uiso   1.00
H182   H     0.60776   0.41909   0.12132   0.00000  Uiso   1.00
H183   H     0.88271   0.41950   0.11633   0.00000  Uiso   1.00
H184   H     0.61729   0.58049   0.21701   0.00000  Uiso   1.00
H185   H     0.94960   0.37165   0.09651   0.00000  Uiso   1.00
H186   H     0.55040   0.62834   0.23684   0.00000  Uiso   1.00
C187   C     0.74808   0.34437   0.14242   0.00000  Uiso   1.00
C188   C     0.75192   0.65563   0.19091   0.00000  Uiso   1.00
N189   N     0.73745   0.48547   0.01284   0.00000  Uiso   1.00
N190   N     0.76256   0.51453   0.32049   0.00000  Uiso   1.00
H191   H     0.71510   0.45942   0.31627   0.00000  Uiso   1.00
H192   H     0.78491   0.54058   0.01707   0.00000  Uiso   1.00
N193   N     0.53627   0.35490   0.10131   0.00000  Uiso   1.00
O194   O     0.51638   0.65220   0.05671   0.00000  Uiso   1.00
O195   O     0.56794   0.34145   0.13655   0.00000  Uiso   1.00
N196   N     0.96373   0.64509   0.23205   0.00000  Uiso   1.00
O197   O     0.98360   0.34777   0.27670   0.00000  Uiso   1.00
O198   O     0.93208   0.65856   0.19680   0.00000  Uiso   1.00
F199   F     0.74356   0.64891   0.08319   0.00000  Uiso   1.00
F200   F     0.75644   0.35109   0.25014   0.00000  Uiso   1.00
O201   O     0.25326   0.76204   0.20659   0.00000  Uiso   1.00
O202   O     0.24675   0.90462   0.12674   0.00000  Uiso   1.00
O203   O     0.24480   0.75226   0.10279   0.00000  Uiso   1.00
O204   O     0.25520   0.91441   0.23055   0.00000  Uiso   1.00
C205   C     0.24867   0.73339   0.15123   0.00000  Uiso   1.00
C206   C     0.25133   0.93328   0.18210   0.00000  Uiso   1.00
O207   O     0.18936   0.83821   0.21857   0.00000  Uiso   1.00
O208   O     0.31065   0.82845   0.11476   0.00000  Uiso   1.00
O209   O     0.18090   0.82843   0.11477   0.00000  Uiso   1.00
O210   O     0.31910   0.83824   0.21857   0.00000  Uiso   1.00
C211   C     0.16456   0.83322   0.16771   0.00000  Uiso   1.00
C212   C     0.33544   0.83345   0.16563   0.00000  Uiso   1.00
Cu213  Cu    0.25501   0.83913   0.22813   0.00000  Uiso   1.00
Cu214  Cu    0.24500   0.82754   0.10521   0.00000  Uiso   1.00
C215   C     0.40924   0.88010   0.19010   0.00000  Uiso   1.00
C216   C     0.09076   0.78656   0.14324   0.00000  Uiso   1.00
C217   C     0.38350   0.83405   0.16335   0.00000  Uiso   1.00
C218   C     0.11650   0.83261   0.16998   0.00000  Uiso   1.00
C219   C     0.40348   0.78827   0.13645   0.00000  Uiso   1.00
C220   C     0.09652   0.87840   0.19688   0.00000  Uiso   1.00
C221   C     0.45007   0.78751   0.13842   0.00000  Uiso   1.00
C222   C     0.04993   0.87915   0.19492   0.00000  Uiso   1.00
C223   C     0.47655   0.83393   0.16528   0.00000  Uiso   1.00
C224   C     0.02345   0.83273   0.16806   0.00000  Uiso   1.00
C225   C     0.45604   0.88141   0.18939   0.00000  Uiso   1.00
C226   C     0.04396   0.78525   0.14395   0.00000  Uiso   1.00
C227   C     0.47033   0.74060   0.11558   0.00000  Uiso   1.00
C228   C     0.02967   0.92606   0.21777   0.00000  Uiso   1.00
C229   C     0.01707   0.73844   0.11954   0.00000  Uiso   1.00
C230   C     0.48293   0.92823   0.21381   0.00000  Uiso   1.00
H231   H     0.39224   0.91424   0.21201   0.00000  Uiso   1.00
H232   H     0.10776   0.75243   0.12132   0.00000  Uiso   1.00
H233   H     0.38271   0.75284   0.11633   0.00000  Uiso   1.00
H234   H     0.11729   0.91383   0.21701   0.00000  Uiso   1.00
H235   H     0.44960   0.70499   0.09651   0.00000  Uiso   1.00
H236   H     0.05040   0.96168   0.23684   0.00000  Uiso   1.00
C237   C     0.24808   0.67770   0.14242   0.00000  Uiso   1.00
C238   C     0.25192   0.98897   0.19091   0.00000  Uiso   1.00
N239   N     0.23745   0.81881   0.01284   0.00000  Uiso   1.00
N240   N     0.26256   0.84786   0.32049   0.00000  Uiso   1.00
H241   H     0.21510   0.79275   0.31627   0.00000  Uiso   1.00
H242   H     0.28491   0.87391   0.01707   0.00000  Uiso   1.00
N243   N     0.03627   0.68824   0.10131   0.00000  Uiso   1.00
O244   O     0.01638   0.98554   0.05671   0.00000  Uiso   1.00
O245   O     0.06794   0.67479   0.13655   0.00000  Uiso   1.00
N246   N     0.46373   0.97842   0.23205   0.00000  Uiso   1.00
O247   O     0.48360   0.68110   0.27670   0.00000  Uiso   1.00
O248   O     0.43208   0.99189   0.19680   0.00000  Uiso   1.00
F249   F     0.24356   0.98224   0.08319   0.00000  Uiso   1.00
F250   F     0.25644   0.68442   0.25014   0.00000  Uiso   1.00
O251   O     0.75326   0.76204   0.20659   0.00000  Uiso   1.00
O252   O     0.74675   0.90462   0.12674   0.00000  Uiso   1.00
O253   O     0.74480   0.75226   0.10279   0.00000  Uiso   1.00
O254   O     0.75520   0.91441   0.23055   0.00000  Uiso   1.00
C255   C     0.74867   0.73339   0.15123   0.00000  Uiso   1.00
C256   C     0.75133   0.93328   0.18210   0.00000  Uiso   1.00
O257   O     0.68936   0.83821   0.21857   0.00000  Uiso   1.00
O258   O     0.81065   0.82845   0.11476   0.00000  Uiso   1.00
O259   O     0.68090   0.82843   0.11477   0.00000  Uiso   1.00
O260   O     0.81910   0.83824   0.21857   0.00000  Uiso   1.00
C261   C     0.66456   0.83322   0.16771   0.00000  Uiso   1.00
C262   C     0.83544   0.83345   0.16563   0.00000  Uiso   1.00
Cu263  Cu    0.75501   0.83913   0.22813   0.00000  Uiso   1.00
Cu264  Cu    0.74500   0.82754   0.10521   0.00000  Uiso   1.00
C265   C     0.90924   0.88010   0.19010   0.00000  Uiso   1.00
C266   C     0.59076   0.78656   0.14324   0.00000  Uiso   1.00
C267   C     0.88350   0.83405   0.16335   0.00000  Uiso   1.00
C268   C     0.61650   0.83261   0.16998   0.00000  Uiso   1.00
C269   C     0.90348   0.78827   0.13645   0.00000  Uiso   1.00
C270   C     0.59652   0.87840   0.19688   0.00000  Uiso   1.00
C271   C     0.95007   0.78751   0.13842   0.00000  Uiso   1.00
C272   C     0.54993   0.87915   0.19492   0.00000  Uiso   1.00
C273   C     0.97655   0.83393   0.16528   0.00000  Uiso   1.00
C274   C     0.52345   0.83273   0.16806   0.00000  Uiso   1.00
C275   C     0.95604   0.88141   0.18939   0.00000  Uiso   1.00
C276   C     0.54396   0.78525   0.14395   0.00000  Uiso   1.00
C277   C     0.97033   0.74060   0.11558   0.00000  Uiso   1.00
C278   C     0.52967   0.92606   0.21777   0.00000  Uiso   1.00
C279   C     0.51707   0.73844   0.11954   0.00000  Uiso   1.00
C280   C     0.98293   0.92823   0.21381   0.00000  Uiso   1.00
H281   H     0.89224   0.91424   0.21201   0.00000  Uiso   1.00
H282   H     0.60776   0.75243   0.12132   0.00000  Uiso   1.00
H283   H     0.88271   0.75284   0.11633   0.00000  Uiso   1.00
H284   H     0.61729   0.91383   0.21701   0.00000  Uiso   1.00
H285   H     0.94960   0.70499   0.09651   0.00000  Uiso   1.00
H286   H     0.55040   0.96168   0.23684   0.00000  Uiso   1.00
C287   C     0.74808   0.67770   0.14242   0.00000  Uiso   1.00
C288   C     0.75192   0.98897   0.19091   0.00000  Uiso   1.00
N289   N     0.73745   0.81881   0.01284   0.00000  Uiso   1.00
N290   N     0.76256   0.84786   0.32049   0.00000  Uiso   1.00
H291   H     0.71510   0.79275   0.31627   0.00000  Uiso   1.00
H292   H     0.78491   0.87391   0.01707   0.00000  Uiso   1.00
N293   N     0.53627   0.68824   0.10131   0.00000  Uiso   1.00
O294   O     0.51638   0.98554   0.05671   0.00000  Uiso   1.00
O295   O     0.56794   0.67479   0.13655   0.00000  Uiso   1.00
N296   N     0.96373   0.97842   0.23205   0.00000  Uiso   1.00
O297   O     0.98360   0.68110   0.27670   0.00000  Uiso   1.00
O298   O     0.93208   0.99189   0.19680   0.00000  Uiso   1.00
F299   F     0.74356   0.98224   0.08319   0.00000  Uiso   1.00
F300   F     0.75644   0.68442   0.25014   0.00000  Uiso   1.00
O301   O     0.25326   0.09538   0.53992   0.00000  Uiso   1.00
O302   O     0.24675   0.23796   0.46008   0.00000  Uiso   1.00
O303   O     0.24480   0.08559   0.43612   0.00000  Uiso   1.00
O304   O     0.25520   0.24774   0.56388   0.00000  Uiso   1.00
C305   C     0.24867   0.06672   0.48457   0.00000  Uiso   1.00
C306   C     0.25133   0.26661   0.51543   0.00000  Uiso   1.00
O307   O     0.18936   0.17155   0.55191   0.00000  Uiso   1.00
O308   O     0.31065   0.16179   0.44809   0.00000  Uiso   1.00
O309   O     0.18090   0.16176   0.44810   0.00000  Uiso   1.00
O310   O     0.31910   0.17157   0.55190   0.00000  Uiso   1.00
C311   C     0.16456   0.16655   0.50104   0.00000  Uiso   1.00
C312   C     0.33544   0.16678   0.49896   0.00000  Uiso   1.00
Cu313  Cu    0.25501   0.17246   0.56146   0.00000  Uiso   1.00
Cu314  Cu    0.24500   0.16087   0.43854   0.00000  Uiso   1.00
C315   C     0.40924   0.21344   0.52343   0.00000  Uiso   1.00
C316   C     0.09076   0.11990   0.47657   0.00000  Uiso   1.00
C317   C     0.38350   0.16739   0.49668   0.00000  Uiso   1.00
C318   C     0.11650   0.16594   0.50332   0.00000  Uiso   1.00
C319   C     0.40348   0.12160   0.46979   0.00000  Uiso   1.00
C320   C     0.09652   0.21173   0.53022   0.00000  Uiso   1.00
C321   C     0.45007   0.12085   0.47175   0.00000  Uiso   1.00
C322   C     0.04993   0.21248   0.52825   0.00000  Uiso   1.00
C323   C     0.47655   0.16726   0.49862   0.00000  Uiso   1.00
C324   C     0.02345   0.16607   0.50139   0.00000  Uiso   1.00
C325   C     0.45604   0.21474   0.52273   0.00000  Uiso   1.00
C326   C     0.04396   0.11858   0.47728   0.00000  Uiso   1.00
C327   C     0.47033   0.07394   0.44891   0.00000  Uiso   1.00
C328   C     0.02967   0.25939   0.55110   0.00000  Uiso   1.00
C329   C     0.01707   0.07177   0.45288   0.00000  Uiso   1.00
C330   C     0.48293   0.26156   0.54714   0.00000  Uiso   1.00
H331   H     0.39224   0.24757   0.54534   0.00000  Uiso   1.00
H332   H     0.10776   0.08576   0.45466   0.00000  Uiso   1.00
H333   H     0.38271   0.08617   0.44967   0.00000  Uiso   1.00
H334   H     0.11729   0.24716   0.55034   0.00000  Uiso   1.00
H335   H     0.44960   0.03832   0.42984   0.00000  Uiso   1.00
H336   H     0.05040   0.29501   0.57017   0.00000  Uiso   1.00
C337   C     0.24808   0.01103   0.47575   0.00000  Uiso   1.00
C338   C     0.25192   0.32230   0.52425   0.00000  Uiso   1.00
N339   N     0.23745   0.15214   0.34617   0.00000  Uiso   1.00
N340   N     0.26256   0.18119   0.65383   0.00000  Uiso   1.00
H341   H     0.21510   0.12609   0.64960   0.00000  Uiso   1.00
H342   H     0.28491   0.20725   0.35040   0.00000  Uiso   1.00
N343   N     0.03627   0.02157   0.43464   0.00000  Uiso   1.00
O344   O     0.01638   0.31887   0.39004   0.00000  Uiso   1.00
O345   O     0.06794   0.00812   0.46988   0.00000  Uiso   1.00
N346   N     0.46373   0.31175   0.56539   0.00000  Uiso   1.00
O347   O     0.48360   0.01443   0.61003   0.00000  Uiso   1.00
O348   O     0.43208   0.32522   0.53013   0.00000  Uiso   1.00
F349   F     0.24356   0.31558   0.41653   0.00000  Uiso   1.00
F350   F     0.25644   0.01776   0.58347   0.00000  Uiso   1.00
O351   O     0.75326   0.09538   0.53992   0.00000  Uiso   1.00
O352   O     0.74675   0.23796   0.46008   0.00000  Uiso   1.00
O353   O     0.74480   0.08559   0.43612   0.00000  Uiso   1.00
O354   O     0.75520   0.24774   0.56388   0.00000  Uiso   1.00
C355   C     0.74867   0.06672   0.48457   0.00000  Uiso   1.00
C356   C     0.75133   0.26661   0.51543   0.00000  Uiso   1.00
O357   O     0.68936   0.17155   0.55191   0.00000  Uiso   1.00
O358   O     0.81065   0.16179   0.44809   0.00000  Uiso   1.00
O359   O     0.68090   0.16176   0.44810   0.00000  Uiso   1.00
O360   O     0.81910   0.17157   0.55190   0.00000  Uiso   1.00
C361   C     0.66456   0.16655   0.50104   0.00000  Uiso   1.00
C362   C     0.83544   0.16678   0.49896   0.00000  Uiso   1.00
Cu363  Cu    0.75501   0.17246   0.56146   0.00000  Uiso   1.00
Cu364  Cu    0.74500   0.16087   0.43854   0.00000  Uiso   1.00
C365   C     0.90924   0.21344   0.52343   0.00000  Uiso   1.00
C366   C     0.59076   0.11990   0.47657   0.00000  Uiso   1.00
C367   C     0.88350   0.16739   0.49668   0.00000  Uiso   1.00
C368   C     0.61650   0.16594   0.50332   0.00000  Uiso   1.00
C369   C     0.90348   0.12160   0.46979   0.00000  Uiso   1.00
C370   C     0.59652   0.21173   0.53022   0.00000  Uiso   1.00
C371   C     0.95007   0.12085   0.47175   0.00000  Uiso   1.00
C372   C     0.54993   0.21248   0.52825   0.00000  Uiso   1.00
C373   C     0.97655   0.16726   0.49862   0.00000  Uiso   1.00
C374   C     0.52345   0.16607   0.50139   0.00000  Uiso   1.00
C375   C     0.95604   0.21474   0.52273   0.00000  Uiso   1.00
C376   C     0.54396   0.11858   0.47728   0.00000  Uiso   1.00
C377   C     0.97033   0.07394   0.44891   0.00000  Uiso   1.00
C378   C     0.52967   0.25939   0.55110   0.00000  Uiso   1.00
C379   C     0.51707   0.07177   0.45288   0.00000  Uiso   1.00
C380   C     0.98293   0.26156   0.54714   0.00000  Uiso   1.00
H381   H     0.89224   0.24757   0.54534   0.00000  Uiso   1.00
H382   H     0.60776   0.08576   0.45466   0.00000  Uiso   1.00
H383   H     0.88271   0.08617   0.44967   0.00000  Uiso   1.00
H384   H     0.61729   0.24716   0.55034   0.00000  Uiso   1.00
H385   H     0.94960   0.03832   0.42984   0.00000  Uiso   1.00
H386   H     0.55040   0.29501   0.57017   0.00000  Uiso   1.00
C387   C     0.74808   0.01103   0.47575   0.00000  Uiso   1.00
C388   C     0.75192   0.32230   0.52425   0.00000  Uiso   1.00
N389   N     0.73745   0.15214   0.34617   0.00000  Uiso   1.00
N390   N     0.76256   0.18119   0.65383   0.00000  Uiso   1.00
H391   H     0.71510   0.12609   0.64960   0.00000  Uiso   1.00
H392   H     0.78491   0.20725   0.35040   0.00000  Uiso   1.00
N393   N     0.53627   0.02157   0.43464   0.00000  Uiso   1.00
O394   O     0.51638   0.31887   0.39004   0.00000  Uiso   1.00
O395   O     0.56794   0.00812   0.46988   0.00000  Uiso   1.00
N396   N     0.96373   0.31175   0.56539   0.00000  Uiso   1.00
O397   O     0.98360   0.01443   0.61003   0.00000  Uiso   1.00
O398   O     0.93208   0.32522   0.53013   0.00000  Uiso   1.00
F399   F     0.74356   0.31558   0.41653   0.00000  Uiso   1.00
F400   F     0.75644   0.01776   0.58347   0.00000  Uiso   1.00
O401   O     0.25326   0.42871   0.53992   0.00000  Uiso   1.00
O402   O     0.24675   0.57129   0.46008   0.00000  Uiso   1.00
O403   O     0.24480   0.41892   0.43612   0.00000  Uiso   1.00
O404   O     0.25520   0.58108   0.56388   0.00000  Uiso   1.00
C405   C     0.24867   0.40006   0.48457   0.00000  Uiso   1.00
C406   C     0.25133   0.59994   0.51543   0.00000  Uiso   1.00
O407   O     0.18936   0.50488   0.55191   0.00000  Uiso   1.00
O408   O     0.31065   0.49512   0.44809   0.00000  Uiso   1.00
O409   O     0.18090   0.49510   0.44810   0.00000  Uiso   1.00
O410   O     0.31910   0.50490   0.55190   0.00000  Uiso   1.00
C411   C     0.16456   0.49989   0.50104   0.00000  Uiso   1.00
C412   C     0.33544   0.50011   0.49896   0.00000  Uiso   1.00
Cu413  Cu    0.25501   0.50579   0.56146   0.00000  Uiso   1.00
Cu414  Cu    0.24500   0.49421   0.43854   0.00000  Uiso   1.00
C415   C     0.40924   0.54677   0.52343   0.00000  Uiso   1.00
C416   C     0.09076   0.45323   0.47657   0.00000  Uiso   1.00
C417   C     0.38350   0.50072   0.49668   0.00000  Uiso   1.00
C418   C     0.11650   0.49928   0.50332   0.00000  Uiso   1.00
C419   C     0.40348   0.45494   0.46979   0.00000  Uiso   1.00
C420   C     0.09652   0.54506   0.53022   0.00000  Uiso   1.00
C421   C     0.45007   0.45418   0.47175   0.00000  Uiso   1.00
C422   C     0.04993   0.54582   0.52825   0.00000  Uiso   1.00
C423   C     0.47655   0.50060   0.49862   0.00000  Uiso   1.00
C424   C     0.02345   0.49940   0.50139   0.00000  Uiso   1.00
C425   C     0.45604   0.54808   0.52273   0.00000  Uiso   1.00
C426   C     0.04396   0.45192   0.47728   0.00000  Uiso   1.00
C427   C     0.47033   0.40727   0.44891   0.00000  Uiso   1.00
C428   C     0.02967   0.59273   0.55110   0.00000  Uiso   1.00
C429   C     0.01707   0.40510   0.45288   0.00000  Uiso   1.00
C430   C     0.48293   0.59489   0.54714   0.00000  Uiso   1.00
H431   H     0.39224   0.58091   0.54534   0.00000  Uiso   1.00
H432   H     0.10776   0.41909   0.45466   0.00000  Uiso   1.00
H433   H     0.38271   0.41950   0.44967   0.00000  Uiso   1.00
H434   H     0.11729   0.58049   0.55034   0.00000  Uiso   1.00
H435   H     0.44960   0.37165   0.42984   0.00000  Uiso   1.00
H436   H     0.05040   0.62834   0.57017   0.00000  Uiso   1.00
C437   C     0.24808   0.34437   0.47575   0.00000  Uiso   1.00
C438   C     0.25192   0.65563   0.52425   0.00000  Uiso   1.00
N439   N     0.23745   0.48547   0.34617   0.00000  Uiso   1.00
N440   N     0.26256   0.51453   0.65383   0.00000  Uiso   1.00
H441   H     0.21510   0.45942   0.64960   0.00000  Uiso   1.00
H442   H     0.28491   0.54058   0.35040   0.00000  Uiso   1.00
N443   N     0.03627   0.35490   0.43464   0.00000  Uiso   1.00
O444   O     0.01638   0.65220   0.39004   0.00000  Uiso   1.00
O445   O     0.06794   0.34145   0.46988   0.00000  Uiso   1.00
N446   N     0.46373   0.64509   0.56539   0.00000  Uiso   1.00
O447   O     0.48360   0.34777   0.61003   0.00000  Uiso   1.00
O448   O     0.43208   0.65856   0.53013   0.00000  Uiso   1.00
F449   F     0.24356   0.64891   0.41653   0.00000  Uiso   1.00
F450   F     0.25644   0.35109   0.58347   0.00000  Uiso   1.00
O451   O     0.75326   0.42871   0.53992   0.00000  Uiso   1.00
O452   O     0.74675   0.57129   0.46008   0.00000  Uiso   1.00
O453   O     0.74480   0.41892   0.43612   0.00000  Uiso   1.00
O454   O     0.75520   0.58108   0.56388   0.00000  Uiso   1.00
C455   C     0.74867   0.40006   0.48457   0.00000  Uiso   1.00
C456   C     0.75133   0.59994   0.51543   0.00000  Uiso   1.00
O457   O     0.68936   0.50488   0.55191   0.00000  Uiso   1.00
O458   O     0.81065   0.49512   0.44809   0.00000  Uiso   1.00
O459   O     0.68090   0.49510   0.44810   0.00000  Uiso   1.00
O460   O     0.81910   0.50490   0.55190   0.00000  Uiso   1.00
C461   C     0.66456   0.49989   0.50104   0.00000  Uiso   1.00
C462   C     0.83544   0.50011   0.49896   0.00000  Uiso   1.00
Cu463  Cu    0.75501   0.50579   0.56146   0.00000  Uiso   1.00
Cu464  Cu    0.74500   0.49421   0.43854   0.00000  Uiso   1.00
C465   C     0.90924   0.54677   0.52343   0.00000  Uiso   1.00
C466   C     0.59076   0.45323   0.47657   0.00000  Uiso   1.00
C467   C     0.88350   0.50072   0.49668   0.00000  Uiso   1.00
C468   C     0.61650   0.49928   0.50332   0.00000  Uiso   1.00
C469   C     0.90348   0.45494   0.46979   0.00000  Uiso   1.00
C470   C     0.59652   0.54506   0.53022   0.00000  Uiso   1.00
C471   C     0.95007   0.45418   0.47175   0.00000  Uiso   1.00
C472   C     0.54993   0.54582   0.52825   0.00000  Uiso   1.00
C473   C     0.97655   0.50060   0.49862   0.00000  Uiso   1.00
C474   C     0.52345   0.49940   0.50139   0.00000  Uiso   1.00
C475   C     0.95604   0.54808   0.52273   0.00000  Uiso   1.00
C476   C     0.54396   0.45192   0.47728   0.00000  Uiso   1.00
C477   C     0.97033   0.40727   0.44891   0.00000  Uiso   1.00
C478   C     0.52967   0.59273   0.55110   0.00000  Uiso   1.00
C479   C     0.51707   0.40510   0.45288   0.00000  Uiso   1.00
C480   C     0.98293   0.59489   0.54714   0.00000  Uiso   1.00
H481   H     0.89224   0.58091   0.54534   0.00000  Uiso   1.00
H482   H     0.60776   0.41909   0.45466   0.00000  Uiso   1.00
H483   H     0.88271   0.41950   0.44967   0.00000  Uiso   1.00
H484   H     0.61729   0.58049   0.55034   0.00000  Uiso   1.00
H485   H     0.94960   0.37165   0.42984   0.00000  Uiso   1.00
H486   H     0.55040   0.62834   0.57017   0.00000  Uiso   1.00
C487   C     0.74808   0.34437   0.47575   0.00000  Uiso   1.00
C488   C     0.75192   0.65563   0.52425   0.00000  Uiso   1.00
N489   N     0.73745   0.48547   0.34617   0.00000  Uiso   1.00
N490   N     0.76256   0.51453   0.65383   0.00000  Uiso   1.00
H491   H     0.71510   0.45942   0.64960   0.00000  Uiso   1.00
H492   H     0.78491   0.54058   0.35040   0.00000  Uiso   1.00
N493   N     0.53627   0.35490   0.43464   0.00000  Uiso   1.00
O494   O     0.51638   0.65220   0.39004   0.00000  Uiso   1.00
O495   O     0.56794   0.34145   0.46988   0.00000  Uiso   1.00
N496   N     0.96373   0.64509   0.56539   0.00000  Uiso   1.00
O497   O     0.98360   0.34777   0.61003   0.00000  Uiso   1.00
O498   O     0.93208   0.65856   0.53013   0.00000  Uiso   1.00
F499   F     0.74356   0.64891   0.41653   0.00000  Uiso   1.00
F500   F     0.75644   0.35109   0.58347   0.00000  Uiso   1.00
O501   O     0.25326   0.76204   0.53992   0.00000  Uiso   1.00
O502   O     0.24675   0.90462   0.46008   0.00000  Uiso   1.00
O503   O     0.24480   0.75226   0.43612   0.00000  Uiso   1.00
O504   O     0.25520   0.91441   0.56388   0.00000  Uiso   1.00
C505   C     0.24867   0.73339   0.48457   0.00000  Uiso   1.00
C506   C     0.25133   0.93328   0.51543   0.00000  Uiso   1.00
O507   O     0.18936   0.83821   0.55191   0.00000  Uiso   1.00
O508   O     0.31065   0.82845   0.44809   0.00000  Uiso   1.00
O509   O     0.18090   0.82843   0.44810   0.00000  Uiso   1.00
O510   O     0.31910   0.83824   0.55190   0.00000  Uiso   1.00
C511   C     0.16456   0.83322   0.50104   0.00000  Uiso   1.00
C512   C     0.33544   0.83345   0.49896   0.00000  Uiso   1.00
Cu513  Cu    0.25501   0.83913   0.56146   0.00000  Uiso   1.00
Cu514  Cu    0.24500   0.82754   0.43854   0.00000  Uiso   1.00
C515   C     0.40924   0.88010   0.52343   0.00000  Uiso   1.00
C516   C     0.09076   0.78656   0.47657   0.00000  Uiso   1.00
C517   C     0.38350   0.83405   0.49668   0.00000  Uiso   1.00
C518   C     0.11650   0.83261   0.50332   0.00000  Uiso   1.00
C519   C     0.40348   0.78827   0.46979   0.00000  Uiso   1.00
C520   C     0.09652   0.87840   0.53022   0.00000  Uiso   1.00
C521   C     0.45007   0.78751   0.47175   0.00000  Uiso   1.00
C522   C     0.04993   0.87915   0.52825   0.00000  Uiso   1.00
C523   C     0.47655   0.83393   0.49862   0.00000  Uiso   1.00
C524   C     0.02345   0.83273   0.50139   0.00000  Uiso   1.00
C525   C     0.45604   0.88141   0.52273   0.00000  Uiso   1.00
C526   C     0.04396   0.78525   0.47728   0.00000  Uiso   1.00
C527   C     0.47033   0.74060   0.44891   0.00000  Uiso   1.00
C528   C     0.02967   0.92606   0.55110   0.00000  Uiso   1.00
C529   C     0.01707   0.73844   0.45288   0.00000  Uiso   1.00
C530   C     0.48293   0.92823   0.54714   0.00000  Uiso   1.00
H531   H     0.39224   0.91424   0.54534   0.00000  Uiso   1.00
H532   H     0.10776   0.75243   0.45466   0.00000  Uiso   1.00
H533   H     0.38271   0.75284   0.44967   0.00000  Uiso   1.00
H534   H     0.11729   0.91383   0.55034   0.00000  Uiso   1.00
H535   H     0.44960   0.70499   0.42984   0.00000  Uiso   1.00
H536   H     0.05040   0.96168   0.57017   0.00000  Uiso   1.00
C537   C     0.24808   0.67770   0.47575   0.00000  Uiso   1.00
C538   C     0.25192   0.98897   0.52425   0.00000  Uiso   1.00
N539   N     0.23745   0.81881   0.34617   0.00000  Uiso   1.00
N540   N     0.26256   0.84786   0.65383   0.00000  Uiso   1.00
H541   H     0.21510   0.79275   0.64960   0.00000  Uiso   1.00
H542   H     0.28491   0.87391   0.35040   0.00000  Uiso   1.00
N543   N     0.03627   0.68824   0.43464   0.00000  Uiso   1.00
O544   O     0.01638   0.98554   0.39004   0.00000  Uiso   1.00
O545   O     0.06794   0.67479   0.46988   0.00000  Uiso   1.00
N546   N     0.46373   0.97842   0.56539   0.00000  Uiso   1.00
O547   O     0.48360   0.68110   0.61003   0.00000  Uiso   1.00
O548   O     0.43208   0.99189   0.53013   0.00000  Uiso   1.00
F549   F     0.24356   0.98224   0.41653   0.00000  Uiso   1.00
F550   F     0.25644   0.68442   0.58347   0.00000  Uiso   1.00
O551   O     0.75326   0.76204   0.53992   0.00000  Uiso   1.00
O552   O     0.74675   0.90462   0.46008   0.00000  Uiso   1.00
O553   O     0.74480   0.75226   0.43612   0.00000  Uiso   1.00
O554   O     0.75520   0.91441   0.56388   0.00000  Uiso   1.00
C555   C     0.74867   0.73339   0.48457   0.00000  Uiso   1.00
C556   C     0.75133   0.93328   0.51543   0.00000  Uiso   1.00
O557   O     0.68936   0.83821   0.55191   0.00000  Uiso   1.00
O558   O     0.81065   0.82845   0.44809   0.00000  Uiso   1.00
O559   O     0.68090   0.82843   0.44810   0.00000  Uiso   1.00
O560   O     0.81910   0.83824   0.55190   0.00000  Uiso   1.00
C561   C     0.66456   0.83322   0.50104   0.00000  Uiso   1.00
C562   C     0.83544   0.83345   0.49896   0.00000  Uiso   1.00
Cu563  Cu    0.75501   0.83913   0.56146   0.00000  Uiso   1.00
Cu564  Cu    0.74500   0.82754   0.43854   0.00000  Uiso   1.00
C565   C     0.90924   0.88010   0.52343   0.00000  Uiso   1.00
C566   C     0.59076   0.78656   0.47657   0.00000  Uiso   1.00
C567   C     0.88350   0.83405   0.49668   0.00000  Uiso   1.00
C568   C     0.61650   0.83261   0.50332   0.00000  Uiso   1.00
C569   C     0.90348   0.78827   0.46979   0.00000  Uiso   1.00
C570   C     0.59652   0.87840   0.53022   0.00000  Uiso   1.00
C571   C     0.95007   0.78751   0.47175   0.00000  Uiso   1.00
C572   C     0.54993   0.87915   0.52825   0.00000  Uiso   1.00
C573   C     0.97655   0.83393   0.49862   0.00000  Uiso   1.00
C574   C     0.52345   0.83273   0.50139   0.00000  Uiso   1.00
C575   C     0.95604   0.88141   0.52273   0.00000  Uiso   1.00
C576   C     0.54396   0.78525   0.47728   0.00000  Uiso   1.00
C577   C     0.97033   0.74060   0.44891   0.00000  Uiso   1.00
C578   C     0.52967   0.92606   0.55110   0.00000  Uiso   1.00
C579   C     0.51707   0.73844   0.45288   0.00000  Uiso   1.00
C580   C     0.98293   0.92823   0.54714   0.00000  Uiso   1.00
H581   H     0.89224   0.91424   0.54534   0.00000  Uiso   1.00
H582   H     0.60776   0.75243   0.45466   0.00000  Uiso   1.00
H583   H     0.88271   0.75284   0.44967   0.00000  Uiso   1.00
H584   H     0.61729   0.91383   0.55034   0.00000  Uiso   1.00
H585   H     0.94960   0.70499   0.42984   0.00000  Uiso   1.00
H586   H     0.55040   0.96168   0.57017   0.00000  Uiso   1.00
C587   C     0.74808   0.67770   0.47575   0.00000  Uiso   1.00
C588   C     0.75192   0.98897   0.52425   0.00000  Uiso   1.00
N589   N     0.73745   0.81881   0.34617   0.00000  Uiso   1.00
N590   N     0.76256   0.84786   0.65383   0.00000  Uiso   1.00
H591   H     0.71510   0.79275   0.64960   0.00000  Uiso   1.00
H592   H     0.78491   0.87391   0.35040   0.00000  Uiso   1.00
N593   N     0.53627   0.68824   0.43464   0.00000  Uiso   1.00
O594   O     0.51638   0.98554   0.39004   0.00000  Uiso   1.00
O595   O     0.56794   0.67479   0.46988   0.00000  Uiso   1.00
N596   N     0.96373   0.97842   0.56539   0.00000  Uiso   1.00
O597   O     0.98360   0.68110   0.61003   0.00000  Uiso   1.00
O598   O     0.93208   0.99189   0.53013   0.00000  Uiso   1.00
F599   F     0.74356   0.98224   0.41653   0.00000  Uiso   1.00
F600   F     0.75644   0.68442   0.58347   0.00000  Uiso   1.00
O601   O     0.25326   0.09538   0.87326   0.00000  Uiso   1.00
O602   O     0.24675   0.23796   0.79341   0.00000  Uiso   1.00
O603   O     0.24480   0.08559   0.76945   0.00000  Uiso   1.00
O604   O     0.25520   0.24774   0.89721   0.00000  Uiso   1.00
C605   C     0.24867   0.06672   0.81790   0.00000  Uiso   1.00
C606   C     0.25133   0.26661   0.84877   0.00000  Uiso   1.00
O607   O     0.18936   0.17155   0.88524   0.00000  Uiso   1.00
O608   O     0.31065   0.16179   0.78143   0.00000  Uiso   1.00
O609   O     0.18090   0.16176   0.78143   0.00000  Uiso   1.00
O610   O     0.31910   0.17157   0.88523   0.00000  Uiso   1.00
C611   C     0.16456   0.16655   0.83437   0.00000  Uiso   1.00
C612   C     0.33544   0.16678   0.83229   0.00000  Uiso   1.00
Cu613  Cu    0.25501   0.17246   0.89479   0.00000  Uiso   1.00
Cu614  Cu    0.24500   0.16087   0.77187   0.00000  Uiso   1.00
C615   C     0.40924   0.21344   0.85676   0.00000  Uiso   1.00
C616   C     0.09076   0.11990   0.80991   0.00000  Uiso   1.00
C617   C     0.38350   0.16739   0.83002   0.00000  Uiso   1.00
C618   C     0.11650   0.16594   0.83665   0.00000  Uiso   1.00
C619   C     0.40348   0.12160   0.80312   0.00000  Uiso   1.00
C620   C     0.09652   0.21173   0.86355   0.00000  Uiso   1.00
C621   C     0.45007   0.12085   0.80509   0.00000  Uiso   1.00
C622   C     0.04993   0.21248   0.86159   0.00000  Uiso   1.00
C623   C     0.47655   0.16726   0.83195   0.00000  Uiso   1.00
C624   C     0.02345   0.16607   0.83473   0.00000  Uiso   1.00
C625   C     0.45604   0.21474   0.85606   0.00000  Uiso   1.00
C626   C     0.04396   0.11858   0.81062   0.00000  Uiso   1.00
C627   C     0.47033   0.07394   0.78224   0.00000  Uiso   1.00
C628   C     0.02967   0.25939   0.88444   0.00000  Uiso   1.00
C629   C     0.01707   0.07177   0.78621   0.00000  Uiso   1.00
C630   C     0.48293   0.26156   0.88047   0.00000  Uiso   1.00
H631   H     0.39224   0.24757   0.87867   0.00000  Uiso   1.00
H632   H     0.10776   0.08576   0.78799   0.00000  Uiso   1.00
H633   H     0.38271   0.08617   0.78300   0.00000  Uiso   1.00
H634   H     0.11729   0.24716   0.88367   0.00000  Uiso   1.00
H635   H     0.44960   0.03832   0.76318   0.00000  Uiso   1.00
H636   H     0.05040   0.29501   0.90351   0.00000  Uiso   1.00
C637   C     0.24808   0.01103   0.80908   0.00000  Uiso   1.00
C638   C     0.25192   0.32230   0.85758   0.00000  Uiso   1.00
N639   N     0.23745   0.15214   0.67951   0.00000  Uiso   1.00
N640   N     0.26256   0.18119   0.98716   0.00000  Uiso   1.00
H641   H     0.21510   0.12609   0.98293   0.00000  Uiso   1.00
H642   H     0.28491   0.20725   0.68373   0.00000  Uiso   1.00
N643   N     0.03627   0.02157   0.76798   0.00000  Uiso   1.00
O644   O     0.01638   0.31887   0.72337   0.00000  Uiso   1.00
O645   O     0.06794   0.00812   0.80322   0.00000  Uiso   1.00
N646   N     0.46373   0.31175   0.89872   0.00000  Uiso   1.00
O647   O     0.48360   0.01443   0.94336   0.00000  Uiso   1.00
O648   O     0.43208   0.32522   0.86347   0.00000  Uiso   1.00
F649   F     0.24356   0.31558   0.74986   0.00000  Uiso   1.00
F650   F     0.25644   0.01776   0.91681   0.00000  Uiso   1.00
O651   O     0.75326   0.09538   0.87326   0.00000  Uiso   1.00
O652   O     0.74675   0.23796   0.79341   0.00000  Uiso   1.00
O653   O     0.74480   0.08559   0.76945   0.00000  Uiso   1.00
O654   O     0.75520   0.24774   0.89721   0.00000  Uiso   1.00
C655   C     0.74867   0.06672   0.81790   0.00000  Uiso   1.00
C656   C     0.75133   0.26661   0.84877   0.00000  Uiso   1.00
O657   O     0.68936   0.17155   0.88524   0.00000  Uiso   1.00
O658   O     0.81065   0.16179   0.78143   0.00000  Uiso   1.00
O659   O     0.68090   0.16176   0.78143   0.00000  Uiso   1.00
O660   O     0.81910   0.17157   0.88523   0.00000  Uiso   1.00
C661   C     0.66456   0.16655   0.83437   0.00000  Uiso   1.00
C662   C     0.83544   0.16678   0.83229   0.00000  Uiso   1.00
Cu663  Cu    0.75501   0.17246   0.89479   0.00000  Uiso   1.00
Cu664  Cu    0.74500   0.16087   0.77187   0.00000  Uiso   1.00
C665   C     0.90924   0.21344   0.85676   0.00000  Uiso   1.00
C666   C     0.59076   0.11990   0.80991   0.00000  Uiso   1.00
C667   C     0.88350   0.16739   0.83002   0.00000  Uiso   1.00
C668   C     0.61650   0.16594   0.83665   0.00000  Uiso   1.00
C669   C     0.90348   0.12160   0.80312   0.00000  Uiso   1.00
C670   C     0.59652   0.21173   0.86355   0.00000  Uiso   1.00
C671   C     0.95007   0.12085   0.80509   0.00000  Uiso   1.00
C672   C     0.54993   0.21248   0.86159   0.00000  Uiso   1.00
C673   C     0.97655   0.16726   0.83195   0.00000  Uiso   1.00
C674   C     0.52345   0.16607   0.83473   0.00000  Uiso   1.00
C675   C     0.95604   0.21474   0.85606   0.00000  Uiso   1.00
C676   C     0.54396   0.11858   0.81062   0.00000  Uiso   1.00
C677   C     0.97033   0.07394   0.78224   0.00000  Uiso   1.00
C678   C     0.52967   0.25939   0.88444   0.00000  Uiso   1.00
C679   C     0.51707   0.07177   0.78621   0.00000  Uiso   1.00
C680   C     0.98293   0.26156   0.88047   0.00000  Uiso   1.00
H681   H     0.89224   0.24757   0.87867   0.00000  Uiso   1.00
H682   H     0.60776   0.08576   0.78799   0.00000  Uiso   1.00
H683   H     0.88271   0.08617   0.78300   0.00000  Uiso   1.00
H684   H     0.61729   0.24716   0.88367   0.00000  Uiso   1.00
H685   H     0.94960   0.03832   0.76318   0.00000  Uiso   1.00
H686   H     0.55040   0.29501   0.90351   0.00000  Uiso   1.00
C687   C     0.74808   0.01103   0.80908   0.00000  Uiso   1.00
C688   C     0.75192   0.32230   0.85758   0.00000  Uiso   1.00
N689   N     0.73745   0.15214   0.67951   0.00000  Uiso   1.00
N690   N     0.76256   0.18119   0.98716   0.00000  Uiso   1.00
H691   H     0.71510   0.12609   0.98293   0.00000  Uiso   1.00
H692   H     0.78491   0.20725   0.68373   0.00000  Uiso   1.00
N693   N     0.53627   0.02157   0.76798   0.00000  Uiso   1.00
O694   O     0.51638   0.31887   0.72337   0.00000  Uiso   1.00
O695   O     0.56794   0.00812   0.80322   0.00000  Uiso   1.00
N696   N     0.96373   0.31175   0.89872   0.00000  Uiso   1.00
O697   O     0.98360   0.01443   0.94336   0.00000  Uiso   1.00
O698   O     0.93208   0.32522   0.86347   0.00000  Uiso   1.00
F699   F     0.74356   0.31558   0.74986   0.00000  Uiso   1.00
F700   F     0.75644   0.01776   0.91681   0.00000  Uiso   1.00
O701   O     0.25326   0.42871   0.87326   0.00000  Uiso   1.00
O702   O     0.24675   0.57129   0.79341   0.00000  Uiso   1.00
O703   O     0.24480   0.41892   0.76945   0.00000  Uiso   1.00
O704   O     0.25520   0.58108   0.89721   0.00000  Uiso   1.00
C705   C     0.24867   0.40006   0.81790   0.00000  Uiso   1.00
C706   C     0.25133   0.59994   0.84877   0.00000  Uiso   1.00
O707   O     0.18936   0.50488   0.88524   0.00000  Uiso   1.00
O708   O     0.31065   0.49512   0.78143   0.00000  Uiso   1.00
O709   O     0.18090   0.49510   0.78143   0.00000  Uiso   1.00
O710   O     0.31910   0.50490   0.88523   0.00000  Uiso   1.00
C711   C     0.16456   0.49989   0.83437   0.00000  Uiso   1.00
C712   C     0.33544   0.50011   0.83229   0.00000  Uiso   1.00
Cu713  Cu    0.25501   0.50579   0.89479   0.00000  Uiso   1.00
Cu714  Cu    0.24500   0.49421   0.77187   0.00000  Uiso   1.00
C715   C     0.40924   0.54677   0.85676   0.00000  Uiso   1.00
C716   C     0.09076   0.45323   0.80991   0.00000  Uiso   1.00
C717   C     0.38350   0.50072   0.83002   0.00000  Uiso   1.00
C718   C     0.11650   0.49928   0.83665   0.00000  Uiso   1.00
C719   C     0.40348   0.45494   0.80312   0.00000  Uiso   1.00
C720   C     0.09652   0.54506   0.86355   0.00000  Uiso   1.00
C721   C     0.45007   0.45418   0.80509   0.00000  Uiso   1.00
C722   C     0.04993   0.54582   0.86159   0.00000  Uiso   1.00
C723   C     0.47655   0.50060   0.83195   0.00000  Uiso   1.00
C724   C     0.02345   0.49940   0.83473   0.00000  Uiso   1.00
C725   C     0.45604   0.54808   0.85606   0.00000  Uiso   1.00
C726   C     0.04396   0.45192   0.81062   0.00000  Uiso   1.00
C727   C     0.47033   0.40727   0.78224   0.00000  Uiso   1.00
C728   C     0.02967   0.59273   0.88444   0.00000  Uiso   1.00
C729   C     0.01707   0.40510   0.78621   0.00000  Uiso   1.00
C730   C     0.48293   0.59489   0.88047   0.00000  Uiso   1.00
H731   H     0.39224   0.58091   0.87867   0.00000  Uiso   1.00
H732   H     0.10776   0.41909   0.78799   0.00000  Uiso   1.00
H733   H     0.38271   0.41950   0.78300   0.00000  Uiso   1.00
H734   H     0.11729   0.58049   0.88367   0.00000  Uiso   1.00
H735   H     0.44960   0.37165   0.76318   0.00000  Uiso   1.00
H736   H     0.05040   0.62834   0.90351   0.00000  Uiso   1.00
C737   C     0.24808   0.34437   0.80908   0.00000  Uiso   1.00
C738   C     0.25192   0.65563   0.85758   0.00000  Uiso   1.00
N739   N     0.23745   0.48547   0.67951   0.00000  Uiso   1.00
N740   N     0.26256   0.51453   0.98716   0.00000  Uiso   1.00
H741   H     0.21510   0.45942   0.98293   0.00000  Uiso   1.00
H742   H     0.28491   0.54058   0.68373   0.00000  Uiso   1.00
N743   N     0.03627   0.35490   0.76798   0.00000  Uiso   1.00
O744   O     0.01638   0.65220   0.72337   0.00000  Uiso   1.00
O745   O     0.06794   0.34145   0.80322   0.00000  Uiso   1.00
N746   N     0.46373   0.64509   0.89872   0.00000  Uiso   1.00
O747   O     0.48360   0.34777   0.94336   0.00000  Uiso   1.00
O748   O     0.43208   0.65856   0.86347   0.00000  Uiso   1.00
F749   F     0.24356   0.64891   0.74986   0.00000  Uiso   1.00
F750   F     0.25644   0.35109   0.91681   0.00000  Uiso   1.00
O751   O     0.75326   0.42871   0.87326   0.00000  Uiso   1.00
O752   O     0.74675   0.57129   0.79341   0.00000  Uiso   1.00
O753   O     0.74480   0.41892   0.76945   0.00000  Uiso   1.00
O754   O     0.75520   0.58108   0.89721   0.00000  Uiso   1.00
C755   C     0.74867   0.40006   0.81790   0.00000  Uiso   1.00
C756   C     0.75133   0.59994   0.84877   0.00000  Uiso   1.00
O757   O     0.68936   0.50488   0.88524   0.00000  Uiso   1.00
O758   O     0.81065   0.49512   0.78143   0.00000  Uiso   1.00
O759   O     0.68090   0.49510   0.78143   0.00000  Uiso   1.00
O760   O     0.81910   0.50490   0.88523   0.00000  Uiso   1.00
C761   C     0.66456   0.49989   0.83437   0.00000  Uiso   1.00
C762   C     0.83544   0.50011   0.83229   0.00000  Uiso   1.00
Cu763  Cu    0.75501   0.50579   0.89479   0.00000  Uiso   1.00
Cu764  Cu    0.74500   0.49421   0.77187   0.00000  Uiso   1.00
C765   C     0.90924   0.54677   0.85676   0.00000  Uiso   1.00
C766   C     0.59076   0.45323   0.80991   0.00000  Uiso   1.00
C767   C     0.88350   0.50072   0.83002   0.00000  Uiso   1.00
C768   C     0.61650   0.49928   0.83665   0.00000  Uiso   1.00
C769   C     0.90348   0.45494   0.80312   0.00000  Uiso   1.00
C770   C     0.59652   0.54506   0.86355   0.00000  Uiso   1.00
C771   C     0.95007   0.45418   0.80509   0.00000  Uiso   1.00
C772   C     0.54993   0.54582   0.86159   0.00000  Uiso   1.00
C773   C     0.97655   0.50060   0.83195   0.00000  Uiso   1.00
C774   C     0.52345   0.49940   0.83473   0.00000  Uiso   1.00
C775   C     0.95604   0.54808   0.85606   0.00000  Uiso   1.00
C776   C     0.54396   0.45192   0.81062   0.00000  Uiso   1.00
C777   C     0.97033   0.40727   0.78224   0.00000  Uiso   1.00
C778   C     0.52967   0.59273   0.88444   0.00000  Uiso   1.00
C779   C     0.51707   0.40510   0.78621   0.00000  Uiso   1.00
C780   C     0.98293   0.59489   0.88047   0.00000  Uiso   1.00
H781   H     0.89224   0.58091   0.87867   0.00000  Uiso   1.00
H782   H     0.60776   0.41909   0.78799   0.00000  Uiso   1.00
H783   H     0.88271   0.41950   0.78300   0.00000  Uiso   1.00
H784   H     0.61729   0.58049   0.88367   0.00000  Uiso   1.00
H785   H     0.94960   0.37165   0.76318   0.00000  Uiso   1.00
H786   H     0.55040   0.62834   0.90351   0.00000  Uiso   1.00
C787   C     0.74808   0.34437   0.80908   0.00000  Uiso   1.00
C788   C     0.75192   0.65563   0.85758   0.00000  Uiso   1.00
N789   N     0.73745   0.48547   0.67951   0.00000  Uiso   1.00
N790   N     0.76256   0.51453   0.98716   0.00000  Uiso   1.00
H791   H     0.71510   0.45942   0.98293   0.00000  Uiso   1.00
H792   H     0.78491   0.54058   0.68373   0.00000  Uiso   1.00
N793   N     0.53627   0.35490   0.76798   0.00000  Uiso   1.00
O794   O     0.51638   0.65220   0.72337   0.00000  Uiso   1.00
O795   O     0.56794   0.34145   0.80322   0.00000  Uiso   1.00
N796   N     0.96373   0.64509   0.89872   0.00000  Uiso   1.00
O797   O     0.98360   0.34777   0.94336   0.00000  Uiso   1.00
O798   O     0.93208   0.65856   0.86347   0.00000  Uiso   1.00
F799   F     0.74356   0.64891   0.74986   0.00000  Uiso   1.00
F800   F     0.75644   0.35109   0.91681   0.00000  Uiso   1.00
O801   O     0.25326   0.76204   0.87326   0.00000  Uiso   1.00
O802   O     0.24675   0.90462   0.79341   0.00000  Uiso   1.00
O803   O     0.24480   0.75226   0.76945   0.00000  Uiso   1.00
O804   O     0.25520   0.91441   0.89721   0.00000  Uiso   1.00
C805   C     0.24867   0.73339   0.81790   0.00000  Uiso   1.00
C806   C     0.25133   0.93328   0.84877   0.00000  Uiso   1.00
O807   O     0.18936   0.83821   0.88524   0.00000  Uiso   1.00
O808   O     0.31065   0.82845   0.78143   0.00000  Uiso   1.00
O809   O     0.18090   0.82843   0.78143   0.00000  Uiso   1.00
O810   O     0.31910   0.83824   0.88523   0.00000  Uiso   1.00
C811   C     0.16456   0.83322   0.83437   0.00000  Uiso   1.00
C812   C     0.33544   0.83345   0.83229   0.00000  Uiso   1.00
Cu813  Cu    0.25501   0.83913   0.89479   0.00000  Uiso   1.00
Cu814  Cu    0.24500   0.82754   0.77187   0.00000  Uiso   1.00
C815   C     0.40924   0.88010   0.85676   0.00000  Uiso   1.00
C816   C     0.09076   0.78656   0.80991   0.00000  Uiso   1.00
C817   C     0.38350   0.83405   0.83002   0.00000  Uiso   1.00
C818   C     0.11650   0.83261   0.83665   0.00000  Uiso   1.00
C819   C     0.40348   0.78827   0.80312   0.00000  Uiso   1.00
C820   C     0.09652   0.87840   0.86355   0.00000  Uiso   1.00
C821   C     0.45007   0.78751   0.80509   0.00000  Uiso   1.00
C822   C     0.04993   0.87915   0.86159   0.00000  Uiso   1.00
C823   C     0.47655   0.83393   0.83195   0.00000  Uiso   1.00
C824   C     0.02345   0.83273   0.83473   0.00000  Uiso   1.00
C825   C     0.45604   0.88141   0.85606   0.00000  Uiso   1.00
C826   C     0.04396   0.78525   0.81062   0.00000  Uiso   1.00
C827   C     0.47033   0.74060   0.78224   0.00000  Uiso   1.00
C828   C     0.02967   0.92606   0.88444   0.00000  Uiso   1.00
C829   C     0.01707   0.73844   0.78621   0.00000  Uiso   1.00
C830   C     0.48293   0.92823   0.88047   0.00000  Uiso   1.00
H831   H     0.39224   0.91424   0.87867   0.00000  Uiso   1.00
H832   H     0.10776   0.75243   0.78799   0.00000  Uiso   1.00
H833   H     0.38271   0.75284   0.78300   0.00000  Uiso   1.00
H834   H     0.11729   0.91383   0.88367   0.00000  Uiso   1.00
H835   H     0.44960   0.70499   0.76318   0.00000  Uiso   1.00
H836   H     0.05040   0.96168   0.90351   0.00000  Uiso   1.00
C837   C     0.24808   0.67770   0.80908   0.00000  Uiso   1.00
C838   C     0.25192   0.98897   0.85758   0.00000  Uiso   1.00
N839   N     0.23745   0.81881   0.67951   0.00000  Uiso   1.00
N840   N     0.26256   0.84786   0.98716   0.00000  Uiso   1.00
H841   H     0.21510   0.79275   0.98293   0.00000  Uiso   1.00
H842   H     0.28491   0.87391   0.68373   0.00000  Uiso   1.00
N843   N     0.03627   0.68824   0.76798   0.00000  Uiso   1.00
O844   O     0.01638   0.98554   0.72337   0.00000  Uiso   1.00
O845   O     0.06794   0.67479   0.80322   0.00000  Uiso   1.00
N846   N     0.46373   0.97842   0.89872   0.00000  Uiso   1.00
O847   O     0.48360   0.68110   0.94336   0.00000  Uiso   1.00
O848   O     0.43208   0.99189   0.86347   0.00000  Uiso   1.00
F849   F     0.24356   0.98224   0.74986   0.00000  Uiso   1.00
F850   F     0.25644   0.68442   0.91681   0.00000  Uiso   1.00
O851   O     0.75326   0.76204   0.87326   0.00000  Uiso   1.00
O852   O     0.74675   0.90462   0.79341   0.00000  Uiso   1.00
O853   O     0.74480   0.75226   0.76945   0.00000  Uiso   1.00
O854   O     0.75520   0.91441   0.89721   0.00000  Uiso   1.00
C855   C     0.74867   0.73339   0.81790   0.00000  Uiso   1.00
C856   C     0.75133   0.93328   0.84877   0.00000  Uiso   1.00
O857   O     0.68936   0.83821   0.88524   0.00000  Uiso   1.00
O858   O     0.81065   0.82845   0.78143   0.00000  Uiso   1.00
O859   O     0.68090   0.82843   0.78143   0.00000  Uiso   1.00
O860   O     0.81910   0.83824   0.88523   0.00000  Uiso   1.00
C861   C     0.66456   0.83322   0.83437   0.00000  Uiso   1.00
C862   C     0.83544   0.83345   0.83229   0.00000  Uiso   1.00
Cu863  Cu    0.75501   0.83913   0.89479   0.00000  Uiso   1.00
Cu864  Cu    0.74500   0.82754   0.77187   0.00000  Uiso   1.00
C865   C     0.90924   0.88010   0.85676   0.00000  Uiso   1.00
C866   C     0.59076   0.78656   0.80991   0.00000  Uiso   1.00
C867   C     0.88350   0.83405   0.83002   0.00000  Uiso   1.00
C868   C     0.61650   0.83261   0.83665   0.00000  Uiso   1.00
C869   C     0.90348   0.78827   0.80312   0.00000  Uiso   1.00
C870   C     0.59652   0.87840   0.86355   0.00000  Uiso   1.00
C871   C     0.95007   0.78751   0.80509   0.00000  Uiso   1.00
C872   C     0.54993   0.87915   0.86159   0.00000  Uiso   1.00
C873   C     0.97655   0.83393   0.83195   0.00000  Uiso   1.00
C874   C     0.52345   0.83273   0.83473   0.00000  Uiso   1.00
C875   C     0.95604   0.88141   0.85606   0.00000  Uiso   1.00
C876   C     0.54396   0.78525   0.81062   0.00000  Uiso   1.00
C877   C     0.97033   0.74060   0.78224   0.00000  Uiso   1.00
C878   C     0.52967   0.92606   0.88444   0.00000  Uiso   1.00
C879   C     0.51707   0.73844   0.78621   0.00000  Uiso   1.00
C880   C     0.98293   0.92823   0.88047   0.00000  Uiso   1.00
H881   H     0.89224   0.91424   0.87867   0.00000  Uiso   1.00
H882   H     0.60776   0.75243   0.78799   0.00000  Uiso   1.00
H883   H     0.88271   0.75284   0.78300   0.00000  Uiso   1.00
H884   H     0.61729   0.91383   0.88367   0.00000  Uiso   1.00
H885   H     0.94960   0.70499   0.76318   0.00000  Uiso   1.00
H886   H     0.55040   0.96168   0.90351   0.00000  Uiso   1.00
C887   C     0.74808   0.67770   0.80908   0.00000  Uiso   1.00
C888   C     0.75192   0.98897   0.85758   0.00000  Uiso   1.00
N889   N     0.73745   0.81881   0.67951   0.00000  Uiso   1.00
N890   N     0.76256   0.84786   0.98716   0.00000  Uiso   1.00
H891   H     0.71510   0.79275   0.98293   0.00000  Uiso   1.00
H892   H     0.78491   0.87391   0.68373   0.00000  Uiso   1.00
N893   N     0.53627   0.68824   0.76798   0.00000  Uiso   1.00
O894   O     0.51638   0.98554   0.72337   0.00000  Uiso   1.00
O895   O     0.56794   0.67479   0.80322   0.00000  Uiso   1.00
N896   N     0.96373   0.97842   0.89872   0.00000  Uiso   1.00
O897   O     0.98360   0.68110   0.94336   0.00000  Uiso   1.00
O898   O     0.93208   0.99189   0.86347   0.00000  Uiso   1.00
F899   F     0.74356   0.98224   0.74986   0.00000  Uiso   1.00
F900   F     0.75644   0.68442   0.91681   0.00000  Uiso   1.00
loop_
_geom_bond_atom_site_label_1
_geom_bond_atom_site_label_2
_geom_bond_distance
_geom_bond_site_symmetry_2
_ccdc_geom_bond_type
O1     C5      1.291   .     A
O1     Cu13    1.964   .     S
O2     C6      1.291   .     A
O2     Cu14    1.964   .     S
O3     Cu14    1.958   .     S
O3     C5      1.286   .     A
O4     C6      1.286   .     A
O4     Cu13    1.958   .     S
C5     C37     1.425   .     S
C6     C38     1.425   .     S
O7     C11     1.294   .     A
O7     Cu13    1.960   .     S
O8     C12     1.294   .     A
O8     Cu14    1.960   .     S
O9     Cu14    1.943   .     S
O9     C11     1.292   .     A
O10    C12     1.292   .     A
O10    Cu13    1.943   .     S
C11    C18     1.441   .     S
C12    C17     1.441   .     S
Cu13   Cu14    2.690   .     S
Cu13   N40     2.021   .     S
Cu14   N39     2.021   .     S
C15    H31     1.082   .     S
C15    C25     1.400   .     A
C15    C17     1.394   .     A
C16    H32     1.082   .     S
C16    C18     1.394   .     A
C16    C26     1.400   .     A
C17    C19     1.392   .     A
C18    C20     1.392   .     A
C19    C21     1.392   .     A
C19    H33     1.085   .     S
C20    H34     1.085   .     S
C20    C22     1.392   .     A
C21    C27     1.399   .     A
C21    C23     1.413   .     A
C22    C28     1.399   .     A
C22    C24     1.413   .     A
C23    C25     1.420   .     A
C23    C74     1.402   .     S
C24    C26     1.420   .     A
C24    C73     1.402   1_455 S
C25    C30     1.417   .     A
C26    C29     1.417   .     A
C27    H35     1.084   .     S
C27    C79     1.399   .     S
C28    H36     1.084   .     S
C28    C80     1.399   1_455 S
C29    N43     1.440   .     S
C29    C77     1.399   1_455 S
C30    N46     1.440   .     S
C30    C78     1.399   .     S
C37    C238    1.337   1_545 S
C37    F249    1.364   1_545 S
C38    C137    1.337   .     S
C38    F150    1.364   .     S
N39    N640    1.294   1_554 S
N39    H641    1.029   1_554 S
N40    N339    1.294   .     S
N40    H342    1.029   .     S
H41    N339    1.029   .     S
H42    N640    1.029   1_554 S
N43    O45     1.301   .     A
N43    O244    1.301   1_545 S
O44    N143    1.301   .     S
N46    O48     1.301   .     A
N46    O147    1.301   .     S
O47    N246    1.301   1_545 S
F49    C137    1.364   .     S
F50    C238    1.364   1_545 S
O51    C55     1.291   .     A
O51    Cu63    1.964   .     S
O52    C56     1.291   .     A
O52    Cu64    1.964   .     S
O53    Cu64    1.958   .     S
O53    C55     1.286   .     A
O54    C56     1.286   .     A
O54    Cu63    1.958   .     S
C55    C87     1.425   .     S
C56    C88     1.425   .     S
O57    C61     1.294   .     A
O57    Cu63    1.960   .     S
O58    C62     1.294   .     A
O58    Cu64    1.960   .     S
O59    Cu64    1.943   .     S
O59    C61     1.292   .     A
O60    C62     1.292   .     A
O60    Cu63    1.943   .     S
C61    C68     1.441   .     S
C62    C67     1.441   .     S
Cu63   Cu64    2.690   .     S
Cu63   N90     2.021   .     S
Cu64   N89     2.021   .     S
C65    H81     1.082   .     S
C65    C75     1.400   .     A
C65    C67     1.394   .     A
C66    H82     1.082   .     S
C66    C68     1.394   .     A
C66    C76     1.400   .     A
C67    C69     1.392   .     A
C68    C70     1.392   .     A
C69    C71     1.392   .     A
C69    H83     1.085   .     S
C70    H84     1.085   .     S
C70    C72     1.392   .     A
C71    C77     1.399   .     A
C71    C73     1.413   .     A
C72    C78     1.399   .     A
C72    C74     1.413   .     A
C73    C75     1.420   .     A
C73    C24     1.402   1_655 S
C74    C76     1.420   .     A
C75    C80     1.417   .     A
C76    C79     1.417   .     A
C77    H85     1.084   .     S
C77    C29     1.399   1_655 S
C78    H86     1.084   .     S
C79    N93     1.440   .     S
C80    N96     1.440   .     S
C80    C28     1.399   1_655 S
C87    C288    1.337   1_545 S
C87    F299    1.364   1_545 S
C88    C187    1.337   .     S
C88    F200    1.364   .     S
N89    N690    1.294   1_554 S
N89    H691    1.029   1_554 S
N90    N389    1.294   .     S
N90    H392    1.029   .     S
H91    N389    1.029   .     S
H92    N690    1.029   1_554 S
N93    O95     1.301   .     A
N93    O294    1.301   1_545 S
O94    N193    1.301   .     S
N96    O98     1.301   .     A
N96    O197    1.301   .     S
O97    N296    1.301   1_545 S
F99    C187    1.364   .     S
F100   C288    1.364   1_545 S
O101   C105    1.291   .     A
O101   Cu113   1.964   .     S
O102   C106    1.291   .     A
O102   Cu114   1.964   .     S
O103   Cu114   1.958   .     S
O103   C105    1.286   .     A
O104   C106    1.286   .     A
O104   Cu113   1.958   .     S
C105   C137    1.425   .     S
C106   C138    1.425   .     S
O107   C111    1.294   .     A
O107   Cu113   1.960   .     S
O108   C112    1.294   .     A
O108   Cu114   1.960   .     S
O109   Cu114   1.943   .     S
O109   C111    1.292   .     A
O110   C112    1.292   .     A
O110   Cu113   1.943   .     S
C111   C118    1.441   .     S
C112   C117    1.441   .     S
Cu113  Cu114   2.690   .     S
Cu113  N140    2.021   .     S
Cu114  N139    2.021   .     S
C115   H131    1.082   .     S
C115   C125    1.400   .     A
C115   C117    1.394   .     A
C116   H132    1.082   .     S
C116   C118    1.394   .     A
C116   C126    1.400   .     A
C117   C119    1.392   .     A
C118   C120    1.392   .     A
C119   C121    1.392   .     A
C119   H133    1.085   .     S
C120   H134    1.085   .     S
C120   C122    1.392   .     A
C121   C127    1.399   .     A
C121   C123    1.413   .     A
C122   C128    1.399   .     A
C122   C124    1.413   .     A
C123   C125    1.420   .     A
C123   C174    1.402   .     S
C124   C126    1.420   .     A
C124   C173    1.402   1_455 S
C125   C130    1.417   .     A
C126   C129    1.417   .     A
C127   H135    1.084   .     S
C127   C179    1.399   .     S
C128   H136    1.084   .     S
C128   C180    1.399   1_455 S
C129   N143    1.440   .     S
C129   C177    1.399   1_455 S
C130   N146    1.440   .     S
C130   C178    1.399   .     S
C138   C237    1.337   .     S
C138   F250    1.364   .     S
N139   N740    1.294   1_554 S
N139   H741    1.029   1_554 S
N140   N439    1.294   .     S
N140   H442    1.029   .     S
H141   N439    1.029   .     S
H142   N740    1.029   1_554 S
N143   O145    1.301   .     A
O144   N243    1.301   .     S
N146   O148    1.301   .     A
N146   O247    1.301   .     S
F149   C237    1.364   .     S
O151   C155    1.291   .     A
O151   Cu163   1.964   .     S
O152   C156    1.291   .     A
O152   Cu164   1.964   .     S
O153   Cu164   1.958   .     S
O153   C155    1.286   .     A
O154   C156    1.286   .     A
O154   Cu163   1.958   .     S
C155   C187    1.425   .     S
C156   C188    1.425   .     S
O157   C161    1.294   .     A
O157   Cu163   1.960   .     S
O158   C162    1.294   .     A
O158   Cu164   1.960   .     S
O159   Cu164   1.943   .     S
O159   C161    1.292   .     A
O160   C162    1.292   .     A
O160   Cu163   1.943   .     S
C161   C168    1.441   .     S
C162   C167    1.441   .     S
Cu163  Cu164   2.690   .     S
Cu163  N190    2.021   .     S
Cu164  N189    2.021   .     S
C165   H181    1.082   .     S
C165   C175    1.400   .     A
C165   C167    1.394   .     A
C166   H182    1.082   .     S
C166   C168    1.394   .     A
C166   C176    1.400   .     A
C167   C169    1.392   .     A
C168   C170    1.392   .     A
C169   C171    1.392   .     A
C169   H183    1.085   .     S
C170   H184    1.085   .     S
C170   C172    1.392   .     A
C171   C177    1.399   .     A
C171   C173    1.413   .     A
C172   C178    1.399   .     A
C172   C174    1.413   .     A
C173   C175    1.420   .     A
C173   C124    1.402   1_655 S
C174   C176    1.420   .     A
C175   C180    1.417   .     A
C176   C179    1.417   .     A
C177   H185    1.084   .     S
C177   C129    1.399   1_655 S
C178   H186    1.084   .     S
C179   N193    1.440   .     S
C180   N196    1.440   .     S
C180   C128    1.399   1_655 S
C188   C287    1.337   .     S
C188   F300    1.364   .     S
N189   N790    1.294   1_554 S
N189   H791    1.029   1_554 S
N190   N489    1.294   .     S
N190   H492    1.029   .     S
H191   N489    1.029   .     S
H192   N790    1.029   1_554 S
N193   O195    1.301   .     A
O194   N293    1.301   .     S
N196   O198    1.301   .     A
N196   O297    1.301   .     S
F199   C287    1.364   .     S
O201   C205    1.291   .     A
O201   Cu213   1.964   .     S
O202   C206    1.291   .     A
O202   Cu214   1.964   .     S
O203   Cu214   1.958   .     S
O203   C205    1.286   .     A
O204   C206    1.286   .     A
O204   Cu213   1.958   .     S
C205   C237    1.425   .     S
C206   C238    1.425   .     S
O207   C211    1.294   .     A
O207   Cu213   1.960   .     S
O208   C212    1.294   .     A
O208   Cu214   1.960   .     S
O209   Cu214   1.943   .     S
O209   C211    1.292   .     A
O210   C212    1.292   .     A
O210   Cu213   1.943   .     S
C211   C218    1.441   .     S
C212   C217    1.441   .     S
Cu213  Cu214   2.690   .     S
Cu213  N240    2.021   .     S
Cu214  N239    2.021   .     S
C215   H231    1.082   .     S
C215   C225    1.400   .     A
C215   C217    1.394   .     A
C216   H232    1.082   .     S
C216   C218    1.394   .     A
C216   C226    1.400   .     A
C217   C219    1.392   .     A
C218   C220    1.392   .     A
C219   C221    1.392   .     A
C219   H233    1.085   .     S
C220   H234    1.085   .     S
C220   C222    1.392   .     A
C221   C227    1.399   .     A
C221   C223    1.413   .     A
C222   C228    1.399   .     A
C222   C224    1.413   .     A
C223   C225    1.420   .     A
C223   C274    1.402   .     S
C224   C226    1.420   .     A
C224   C273    1.402   1_455 S
C225   C230    1.417   .     A
C226   C229    1.417   .     A
C227   H235    1.084   .     S
C227   C279    1.399   .     S
C228   H236    1.084   .     S
C228   C280    1.399   1_455 S
C229   N243    1.440   .     S
C229   C277    1.399   1_455 S
C230   N246    1.440   .     S
C230   C278    1.399   .     S
C238   C37     1.337   1_565 S
C238   F50     1.364   1_565 S
N239   N840    1.294   1_554 S
N239   H841    1.029   1_554 S
N240   N539    1.294   .     S
N240   H542    1.029   .     S
H241   N539    1.029   .     S
H242   N840    1.029   1_554 S
N243   O245    1.301   .     A
O244   N43     1.301   1_565 S
N246   O248    1.301   .     A
N246   O47     1.301   1_565 S
F249   C37     1.364   1_565 S
O251   C255    1.291   .     A
O251   Cu263   1.964   .     S
O252   C256    1.291   .     A
O252   Cu264   1.964   .     S
O253   Cu264   1.958   .     S
O253   C255    1.286   .     A
O254   C256    1.286   .     A
O254   Cu263   1.958   .     S
C255   C287    1.425   .     S
C256   C288    1.425   .     S
O257   C261    1.294   .     A
O257   Cu263   1.960   .     S
O258   C262    1.294   .     A
O258   Cu264   1.960   .     S
O259   Cu264   1.943   .     S
O259   C261    1.292   .     A
O260   C262    1.292   .     A
O260   Cu263   1.943   .     S
C261   C268    1.441   .     S
C262   C267    1.441   .     S
Cu263  Cu264   2.690   .     S
Cu263  N290    2.021   .     S
Cu264  N289    2.021   .     S
C265   H281    1.082   .     S
C265   C275    1.400   .     A
C265   C267    1.394   .     A
C266   H282    1.082   .     S
C266   C268    1.394   .     A
C266   C276    1.400   .     A
C267   C269    1.392   .     A
C268   C270    1.392   .     A
C269   C271    1.392   .     A
C269   H283    1.085   .     S
C270   H284    1.085   .     S
C270   C272    1.392   .     A
C271   C277    1.399   .     A
C271   C273    1.413   .     A
C272   C278    1.399   .     A
C272   C274    1.413   .     A
C273   C275    1.420   .     A
C273   C224    1.402   1_655 S
C274   C276    1.420   .     A
C275   C280    1.417   .     A
C276   C279    1.417   .     A
C277   H285    1.084   .     S
C277   C229    1.399   1_655 S
C278   H286    1.084   .     S
C279   N293    1.440   .     S
C280   N296    1.440   .     S
C280   C228    1.399   1_655 S
C288   C87     1.337   1_565 S
C288   F100    1.364   1_565 S
N289   N890    1.294   1_554 S
N289   H891    1.029   1_554 S
N290   N589    1.294   .     S
N290   H592    1.029   .     S
H291   N589    1.029   .     S
H292   N890    1.029   1_554 S
N293   O295    1.301   .     A
O294   N93     1.301   1_565 S
N296   O298    1.301   .     A
N296   O97     1.301   1_565 S
F299   C87     1.364   1_565 S
O301   C305    1.291   .     A
O301   Cu313   1.964   .     S
O302   C306    1.291   .     A
O302   Cu314   1.964   .     S
O303   Cu314   1.958   .     S
O303   C305    1.286   .     A
O304   C306    1.286   .     A
O304   Cu313   1.958   .     S
C305   C337    1.425   .     S
C306   C338    1.425   .     S
O307   C311    1.294   .     A
O307   Cu313   1.960   .     S
O308   C312    1.294   .     A
O308   Cu314   1.960   .     S
O309   Cu314   1.943   .     S
O309   C311    1.292   .     A
O310   C312    1.292   .     A
O310   Cu313   1.943   .     S
C311   C318    1.441   .     S
C312   C317    1.441   .     S
Cu313  Cu314   2.690   .     S
Cu313  N340    2.021   .     S
Cu314  N339    2.021   .     S
C315   H331    1.082   .     S
C315   C325    1.400   .     A
C315   C317    1.394   .     A
C316   H332    1.082   .     S
C316   C318    1.394   .     A
C316   C326    1.400   .     A
C317   C319    1.392   .     A
C318   C320    1.392   .     A
C319   C321    1.392   .     A
C319   H333    1.085   .     S
C320   H334    1.085   .     S
C320   C322    1.392   .     A
C321   C327    1.399   .     A
C321   C323    1.413   .     A
C322   C328    1.399   .     A
C322   C324    1.413   .     A
C323   C325    1.420   .     A
C323   C374    1.402   .     S
C324   C326    1.420   .     A
C324   C373    1.402   1_455 S
C325   C330    1.417   .     A
C326   C329    1.417   .     A
C327   H335    1.084   .     S
C327   C379    1.399   .     S
C328   H336    1.084   .     S
C328   C380    1.399   1_455 S
C329   N343    1.440   .     S
C329   C377    1.399   1_455 S
C330   N346    1.440   .     S
C330   C378    1.399   .     S
C337   C538    1.337   1_545 S
C337   F549    1.364   1_545 S
C338   C437    1.337   .     S
C338   F450    1.364   .     S
N340   N639    1.294   .     S
N340   H642    1.029   .     S
H341   N639    1.029   .     S
N343   O345    1.301   .     A
N343   O544    1.301   1_545 S
O344   N443    1.301   .     S
N346   O348    1.301   .     A
N346   O447    1.301   .     S
O347   N546    1.301   1_545 S
F349   C437    1.364   .     S
F350   C538    1.364   1_545 S
O351   C355    1.291   .     A
O351   Cu363   1.964   .     S
O352   C356    1.291   .     A
O352   Cu364   1.964   .     S
O353   Cu364   1.958   .     S
O353   C355    1.286   .     A
O354   C356    1.286   .     A
O354   Cu363   1.958   .     S
C355   C387    1.425   .     S
C356   C388    1.425   .     S
O357   C361    1.294   .     A
O357   Cu363   1.960   .     S
O358   C362    1.294   .     A
O358   Cu364   1.960   .     S
O359   Cu364   1.943   .     S
O359   C361    1.292   .     A
O360   C362    1.292   .     A
O360   Cu363   1.943   .     S
C361   C368    1.441   .     S
C362   C367    1.441   .     S
Cu363  Cu364   2.690   .     S
Cu363  N390    2.021   .     S
Cu364  N389    2.021   .     S
C365   H381    1.082   .     S
C365   C375    1.400   .     A
C365   C367    1.394   .     A
C366   H382    1.082   .     S
C366   C368    1.394   .     A
C366   C376    1.400   .     A
C367   C369    1.392   .     A
C368   C370    1.392   .     A
C369   C371    1.392   .     A
C369   H383    1.085   .     S
C370   H384    1.085   .     S
C370   C372    1.392   .     A
C371   C377    1.399   .     A
C371   C373    1.413   .     A
C372   C378    1.399   .     A
C372   C374    1.413   .     A
C373   C375    1.420   .     A
C373   C324    1.402   1_655 S
C374   C376    1.420   .     A
C375   C380    1.417   .     A
C376   C379    1.417   .     A
C377   H385    1.084   .     S
C377   C329    1.399   1_655 S
C378   H386    1.084   .     S
C379   N393    1.440   .     S
C380   N396    1.440   .     S
C380   C328    1.399   1_655 S
C387   C588    1.337   1_545 S
C387   F599    1.364   1_545 S
C388   C487    1.337   .     S
C388   F500    1.364   .     S
N390   N689    1.294   .     S
N390   H692    1.029   .     S
H391   N689    1.029   .     S
N393   O395    1.301   .     A
N393   O594    1.301   1_545 S
O394   N493    1.301   .     S
N396   O398    1.301   .     A
N396   O497    1.301   .     S
O397   N596    1.301   1_545 S
F399   C487    1.364   .     S
F400   C588    1.364   1_545 S
O401   C405    1.291   .     A
O401   Cu413   1.964   .     S
O402   C406    1.291   .     A
O402   Cu414   1.964   .     S
O403   Cu414   1.958   .     S
O403   C405    1.286   .     A
O404   C406    1.286   .     A
O404   Cu413   1.958   .     S
C405   C437    1.425   .     S
C406   C438    1.425   .     S
O407   C411    1.294   .     A
O407   Cu413   1.960   .     S
O408   C412    1.294   .     A
O408   Cu414   1.960   .     S
O409   Cu414   1.943   .     S
O409   C411    1.292   .     A
O410   C412    1.292   .     A
O410   Cu413   1.943   .     S
C411   C418    1.441   .     S
C412   C417    1.441   .     S
Cu413  Cu414   2.690   .     S
Cu413  N440    2.021   .     S
Cu414  N439    2.021   .     S
C415   H431    1.082   .     S
C415   C425    1.400   .     A
C415   C417    1.394   .     A
C416   H432    1.082   .     S
C416   C418    1.394   .     A
C416   C426    1.400   .     A
C417   C419    1.392   .     A
C418   C420    1.392   .     A
C419   C421    1.392   .     A
C419   H433    1.085   .     S
C420   H434    1.085   .     S
C420   C422    1.392   .     A
C421   C427    1.399   .     A
C421   C423    1.413   .     A
C422   C428    1.399   .     A
C422   C424    1.413   .     A
C423   C425    1.420   .     A
C423   C474    1.402   .     S
C424   C426    1.420   .     A
C424   C473    1.402   1_455 S
C425   C430    1.417   .     A
C426   C429    1.417   .     A
C427   H435    1.084   .     S
C427   C479    1.399   .     S
C428   H436    1.084   .     S
C428   C480    1.399   1_455 S
C429   N443    1.440   .     S
C429   C477    1.399   1_455 S
C430   N446    1.440   .     S
C430   C478    1.399   .     S
C438   C537    1.337   .     S
C438   F550    1.364   .     S
N440   N739    1.294   .     S
N440   H742    1.029   .     S
H441   N739    1.029   .     S
N443   O445    1.301   .     A
O444   N543    1.301   .     S
N446   O448    1.301   .     A
N446   O547    1.301   .     S
F449   C537    1.364   .     S
O451   C455    1.291   .     A
O451   Cu463   1.964   .     S
O452   C456    1.291   .     A
O452   Cu464   1.964   .     S
O453   Cu464   1.958   .     S
O453   C455    1.286   .     A
O454   C456    1.286   .     A
O454   Cu463   1.958   .     S
C455   C487    1.425   .     S
C456   C488    1.425   .     S
O457   C461    1.294   .     A
O457   Cu463   1.960   .     S
O458   C462    1.294   .     A
O458   Cu464   1.960   .     S
O459   Cu464   1.943   .     S
O459   C461    1.292   .     A
O460   C462    1.292   .     A
O460   Cu463   1.943   .     S
C461   C468    1.441   .     S
C462   C467    1.441   .     S
Cu463  Cu464   2.690   .     S
Cu463  N490    2.021   .     S
Cu464  N489    2.021   .     S
C465   H481    1.082   .     S
C465   C475    1.400   .     A
C465   C467    1.394   .     A
C466   H482    1.082   .     S
C466   C468    1.394   .     A
C466   C476    1.400   .     A
C467   C469    1.392   .     A
C468   C470    1.392   .     A
C469   C471    1.392   .     A
C469   H483    1.085   .     S
C470   H484    1.085   .     S
C470   C472    1.392   .     A
C471   C477    1.399   .     A
C471   C473    1.413   .     A
C472   C478    1.399   .     A
C472   C474    1.413   .     A
C473   C475    1.420   .     A
C473   C424    1.402   1_655 S
C474   C476    1.420   .     A
C475   C480    1.417   .     A
C476   C479    1.417   .     A
C477   H485    1.084   .     S
C477   C429    1.399   1_655 S
C478   H486    1.084   .     S
C479   N493    1.440   .     S
C480   N496    1.440   .     S
C480   C428    1.399   1_655 S
C488   C587    1.337   .     S
C488   F600    1.364   .     S
N490   N789    1.294   .     S
N490   H792    1.029   .     S
H491   N789    1.029   .     S
N493   O495    1.301   .     A
O494   N593    1.301   .     S
N496   O498    1.301   .     A
N496   O597    1.301   .     S
F499   C587    1.364   .     S
O501   C505    1.291   .     A
O501   Cu513   1.964   .     S
O502   C506    1.291   .     A
O502   Cu514   1.964   .     S
O503   Cu514   1.958   .     S
O503   C505    1.286   .     A
O504   C506    1.286   .     A
O504   Cu513   1.958   .     S
C505   C537    1.425   .     S
C506   C538    1.425   .     S
O507   C511    1.294   .     A
O507   Cu513   1.960   .     S
O508   C512    1.294   .     A
O508   Cu514   1.960   .     S
O509   Cu514   1.943   .     S
O509   C511    1.292   .     A
O510   C512    1.292   .     A
O510   Cu513   1.943   .     S
C511   C518    1.441   .     S
C512   C517    1.441   .     S
Cu513  Cu514   2.690   .     S
Cu513  N540    2.021   .     S
Cu514  N539    2.021   .     S
C515   H531    1.082   .     S
C515   C525    1.400   .     A
C515   C517    1.394   .     A
C516   H532    1.082   .     S
C516   C518    1.394   .     A
C516   C526    1.400   .     A
C517   C519    1.392   .     A
C518   C520    1.392   .     A
C519   C521    1.392   .     A
C519   H533    1.085   .     S
C520   H534    1.085   .     S
C520   C522    1.392   .     A
C521   C527    1.399   .     A
C521   C523    1.413   .     A
C522   C528    1.399   .     A
C522   C524    1.413   .     A
C523   C525    1.420   .     A
C523   C574    1.402   .     S
C524   C526    1.420   .     A
C524   C573    1.402   1_455 S
C525   C530    1.417   .     A
C526   C529    1.417   .     A
C527   H535    1.084   .     S
C527   C579    1.399   .     S
C528   H536    1.084   .     S
C528   C580    1.399   1_455 S
C529   N543    1.440   .     S
C529   C577    1.399   1_455 S
C530   N546    1.440   .     S
C530   C578    1.399   .     S
C538   C337    1.337   1_565 S
C538   F350    1.364   1_565 S
N540   N839    1.294   .     S
N540   H842    1.029   .     S
H541   N839    1.029   .     S
N543   O545    1.301   .     A
O544   N343    1.301   1_565 S
N546   O548    1.301   .     A
N546   O347    1.301   1_565 S
F549   C337    1.364   1_565 S
O551   C555    1.291   .     A
O551   Cu563   1.964   .     S
O552   C556    1.291   .     A
O552   Cu564   1.964   .     S
O553   Cu564   1.958   .     S
O553   C555    1.286   .     A
O554   C556    1.286   .     A
O554   Cu563   1.958   .     S
C555   C587    1.425   .     S
C556   C588    1.425   .     S
O557   C561    1.294   .     A
O557   Cu563   1.960   .     S
O558   C562    1.294   .     A
O558   Cu564   1.960   .     S
O559   Cu564   1.943   .     S
O559   C561    1.292   .     A
O560   C562    1.292   .     A
O560   Cu563   1.943   .     S
C561   C568    1.441   .     S
C562   C567    1.441   .     S
Cu563  Cu564   2.690   .     S
Cu563  N590    2.021   .     S
Cu564  N589    2.021   .     S
C565   H581    1.082   .     S
C565   C575    1.400   .     A
C565   C567    1.394   .     A
C566   H582    1.082   .     S
C566   C568    1.394   .     A
C566   C576    1.400   .     A
C567   C569    1.392   .     A
C568   C570    1.392   .     A
C569   C571    1.392   .     A
C569   H583    1.085   .     S
C570   H584    1.085   .     S
C570   C572    1.392   .     A
C571   C577    1.399   .     A
C571   C573    1.413   .     A
C572   C578    1.399   .     A
C572   C574    1.413   .     A
C573   C575    1.420   .     A
C573   C524    1.402   1_655 S
C574   C576    1.420   .     A
C575   C580    1.417   .     A
C576   C579    1.417   .     A
C577   H585    1.084   .     S
C577   C529    1.399   1_655 S
C578   H586    1.084   .     S
C579   N593    1.440   .     S
C580   N596    1.440   .     S
C580   C528    1.399   1_655 S
C588   C387    1.337   1_565 S
C588   F400    1.364   1_565 S
N590   N889    1.294   .     S
N590   H892    1.029   .     S
H591   N889    1.029   .     S
N593   O595    1.301   .     A
O594   N393    1.301   1_565 S
N596   O598    1.301   .     A
N596   O397    1.301   1_565 S
F599   C387    1.364   1_565 S
O601   C605    1.291   .     A
O601   Cu613   1.964   .     S
O602   C606    1.291   .     A
O602   Cu614   1.964   .     S
O603   Cu614   1.958   .     S
O603   C605    1.286   .     A
O604   C606    1.286   .     A
O604   Cu613   1.958   .     S
C605   C637    1.425   .     S
C606   C638    1.425   .     S
O607   C611    1.294   .     A
O607   Cu613   1.960   .     S
O608   C612    1.294   .     A
O608   Cu614   1.960   .     S
O609   Cu614   1.943   .     S
O609   C611    1.292   .     A
O610   C612    1.292   .     A
O610   Cu613   1.943   .     S
C611   C618    1.441   .     S
C612   C617    1.441   .     S
Cu613  Cu614   2.690   .     S
Cu613  N640    2.021   .     S
Cu614  N639    2.021   .     S
C615   H631    1.082   .     S
C615   C625    1.400   .     A
C615   C617    1.394   .     A
C616   H632    1.082   .     S
C616   C618    1.394   .     A
C616   C626    1.400   .     A
C617   C619    1.392   .     A
C618   C620    1.392   .     A
C619   C621    1.392   .     A
C619   H633    1.085   .     S
C620   H634    1.085   .     S
C620   C622    1.392   .     A
C621   C627    1.399   .     A
C621   C623    1.413   .     A
C622   C628    1.399   .     A
C622   C624    1.413   .     A
C623   C625    1.420   .     A
C623   C674    1.402   .     S
C624   C626    1.420   .     A
C624   C673    1.402   1_455 S
C625   C630    1.417   .     A
C626   C629    1.417   .     A
C627   H635    1.084   .     S
C627   C679    1.399   .     S
C628   H636    1.084   .     S
C628   C680    1.399   1_455 S
C629   N643    1.440   .     S
C629   C677    1.399   1_455 S
C630   N646    1.440   .     S
C630   C678    1.399   .     S
C637   C838    1.337   1_545 S
C637   F849    1.364   1_545 S
C638   C737    1.337   .     S
C638   F750    1.364   .     S
N640   N39     1.294   1_556 S
N640   H42     1.029   1_556 S
H641   N39     1.029   1_556 S
N643   O645    1.301   .     A
N643   O844    1.301   1_545 S
O644   N743    1.301   .     S
N646   O648    1.301   .     A
N646   O747    1.301   .     S
O647   N846    1.301   1_545 S
F649   C737    1.364   .     S
F650   C838    1.364   1_545 S
O651   C655    1.291   .     A
O651   Cu663   1.964   .     S
O652   C656    1.291   .     A
O652   Cu664   1.964   .     S
O653   Cu664   1.958   .     S
O653   C655    1.286   .     A
O654   C656    1.286   .     A
O654   Cu663   1.958   .     S
C655   C687    1.425   .     S
C656   C688    1.425   .     S
O657   C661    1.294   .     A
O657   Cu663   1.960   .     S
O658   C662    1.294   .     A
O658   Cu664   1.960   .     S
O659   Cu664   1.943   .     S
O659   C661    1.292   .     A
O660   C662    1.292   .     A
O660   Cu663   1.943   .     S
C661   C668    1.441   .     S
C662   C667    1.441   .     S
Cu663  Cu664   2.690   .     S
Cu663  N690    2.021   .     S
Cu664  N689    2.021   .     S
C665   H681    1.082   .     S
C665   C675    1.400   .     A
C665   C667    1.394   .     A
C666   H682    1.082   .     S
C666   C668    1.394   .     A
C666   C676    1.400   .     A
C667   C669    1.392   .     A
C668   C670    1.392   .     A
C669   C671    1.392   .     A
C669   H683    1.085   .     S
C670   H684    1.085   .     S
C670   C672    1.392   .     A
C671   C677    1.399   .     A
C671   C673    1.413   .     A
C672   C678    1.399   .     A
C672   C674    1.413   .     A
C673   C675    1.420   .     A
C673   C624    1.402   1_655 S
C674   C676    1.420   .     A
C675   C680    1.417   .     A
C676   C679    1.417   .     A
C677   H685    1.084   .     S
C677   C629    1.399   1_655 S
C678   H686    1.084   .     S
C679   N693    1.440   .     S
C680   N696    1.440   .     S
C680   C628    1.399   1_655 S
C687   C888    1.337   1_545 S
C687   F899    1.364   1_545 S
C688   C787    1.337   .     S
C688   F800    1.364   .     S
N690   N89     1.294   1_556 S
N690   H92     1.029   1_556 S
H691   N89     1.029   1_556 S
N693   O695    1.301   .     A
N693   O894    1.301   1_545 S
O694   N793    1.301   .     S
N696   O698    1.301   .     A
N696   O797    1.301   .     S
O697   N896    1.301   1_545 S
F699   C787    1.364   .     S
F700   C888    1.364   1_545 S
O701   C705    1.291   .     A
O701   Cu713   1.964   .     S
O702   C706    1.291   .     A
O702   Cu714   1.964   .     S
O703   Cu714   1.958   .     S
O703   C705    1.286   .     A
O704   C706    1.286   .     A
O704   Cu713   1.958   .     S
C705   C737    1.425   .     S
C706   C738    1.425   .     S
O707   C711    1.294   .     A
O707   Cu713   1.960   .     S
O708   C712    1.294   .     A
O708   Cu714   1.960   .     S
O709   Cu714   1.943   .     S
O709   C711    1.292   .     A
O710   C712    1.292   .     A
O710   Cu713   1.943   .     S
C711   C718    1.441   .     S
C712   C717    1.441   .     S
Cu713  Cu714   2.690   .     S
Cu713  N740    2.021   .     S
Cu714  N739    2.021   .     S
C715   H731    1.082   .     S
C715   C725    1.400   .     A
C715   C717    1.394   .     A
C716   H732    1.082   .     S
C716   C718    1.394   .     A
C716   C726    1.400   .     A
C717   C719    1.392   .     A
C718   C720    1.392   .     A
C719   C721    1.392   .     A
C719   H733    1.085   .     S
C720   H734    1.085   .     S
C720   C722    1.392   .     A
C721   C727    1.399   .     A
C721   C723    1.413   .     A
C722   C728    1.399   .     A
C722   C724    1.413   .     A
C723   C725    1.420   .     A
C723   C774    1.402   .     S
C724   C726    1.420   .     A
C724   C773    1.402   1_455 S
C725   C730    1.417   .     A
C726   C729    1.417   .     A
C727   H735    1.084   .     S
C727   C779    1.399   .     S
C728   H736    1.084   .     S
C728   C780    1.399   1_455 S
C729   N743    1.440   .     S
C729   C777    1.399   1_455 S
C730   N746    1.440   .     S
C730   C778    1.399   .     S
C738   C837    1.337   .     S
C738   F850    1.364   .     S
N740   N139    1.294   1_556 S
N740   H142    1.029   1_556 S
H741   N139    1.029   1_556 S
N743   O745    1.301   .     A
O744   N843    1.301   .     S
N746   O748    1.301   .     A
N746   O847    1.301   .     S
F749   C837    1.364   .     S
O751   C755    1.291   .     A
O751   Cu763   1.964   .     S
O752   C756    1.291   .     A
O752   Cu764   1.964   .     S
O753   Cu764   1.958   .     S
O753   C755    1.286   .     A
O754   C756    1.286   .     A
O754   Cu763   1.958   .     S
C755   C787    1.425   .     S
C756   C788    1.425   .     S
O757   C761    1.294   .     A
O757   Cu763   1.960   .     S
O758   C762    1.294   .     A
O758   Cu764   1.960   .     S
O759   Cu764   1.943   .     S
O759   C761    1.292   .     A
O760   C762    1.292   .     A
O760   Cu763   1.943   .     S
C761   C768    1.441   .     S
C762   C767    1.441   .     S
Cu763  Cu764   2.690   .     S
Cu763  N790    2.021   .     S
Cu764  N789    2.021   .     S
C765   H781    1.082   .     S
C765   C775    1.400   .     A
C765   C767    1.394   .     A
C766   H782    1.082   .     S
C766   C768    1.394   .     A
C766   C776    1.400   .     A
C767   C769    1.392   .     A
C768   C770    1.392   .     A
C769   C771    1.392   .     A
C769   H783    1.085   .     S
C770   H784    1.085   .     S
C770   C772    1.392   .     A
C771   C777    1.399   .     A
C771   C773    1.413   .     A
C772   C778    1.399   .     A
C772   C774    1.413   .     A
C773   C775    1.420   .     A
C773   C724    1.402   1_655 S
C774   C776    1.420   .     A
C775   C780    1.417   .     A
C776   C779    1.417   .     A
C777   H785    1.084   .     S
C777   C729    1.399   1_655 S
C778   H786    1.084   .     S
C779   N793    1.440   .     S
C780   N796    1.440   .     S
C780   C728    1.399   1_655 S
C788   C887    1.337   .     S
C788   F900    1.364   .     S
N790   N189    1.294   1_556 S
N790   H192    1.029   1_556 S
H791   N189    1.029   1_556 S
N793   O795    1.301   .     A
O794   N893    1.301   .     S
N796   O798    1.301   .     A
N796   O897    1.301   .     S
F799   C887    1.364   .     S
O801   C805    1.291   .     A
O801   Cu813   1.964   .     S
O802   C806    1.291   .     A
O802   Cu814   1.964   .     S
O803   Cu814   1.958   .     S
O803   C805    1.286   .     A
O804   C806    1.286   .     A
O804   Cu813   1.958   .     S
C805   C837    1.425   .     S
C806   C838    1.425   .     S
O807   C811    1.294   .     A
O807   Cu813   1.960   .     S
O808   C812    1.294   .     A
O808   Cu814   1.960   .     S
O809   Cu814   1.943   .     S
O809   C811    1.292   .     A
O810   C812    1.292   .     A
O810   Cu813   1.943   .     S
C811   C818    1.441   .     S
C812   C817    1.441   .     S
Cu813  Cu814   2.690   .     S
Cu813  N840    2.021   .     S
Cu814  N839    2.021   .     S
C815   H831    1.082   .     S
C815   C825    1.400   .     A
C815   C817    1.394   .     A
C816   H832    1.082   .     S
C816   C818    1.394   .     A
C816   C826    1.400   .     A
C817   C819    1.392   .     A
C818   C820    1.392   .     A
C819   C821    1.392   .     A
C819   H833    1.085   .     S
C820   H834    1.085   .     S
C820   C822    1.392   .     A
C821   C827    1.399   .     A
C821   C823    1.413   .     A
C822   C828    1.399   .     A
C822   C824    1.413   .     A
C823   C825    1.420   .     A
C823   C874    1.402   .     S
C824   C826    1.420   .     A
C824   C873    1.402   1_455 S
C825   C830    1.417   .     A
C826   C829    1.417   .     A
C827   H835    1.084   .     S
C827   C879    1.399   .     S
C828   H836    1.084   .     S
C828   C880    1.399   1_455 S
C829   N843    1.440   .     S
C829   C877    1.399   1_455 S
C830   N846    1.440   .     S
C830   C878    1.399   .     S
C838   C637    1.337   1_565 S
C838   F650    1.364   1_565 S
N840   N239    1.294   1_556 S
N840   H242    1.029   1_556 S
H841   N239    1.029   1_556 S
N843   O845    1.301   .     A
O844   N643    1.301   1_565 S
N846   O848    1.301   .     A
N846   O647    1.301   1_565 S
F849   C637    1.364   1_565 S
O851   C855    1.291   .     A
O851   Cu863   1.964   .     S
O852   C856    1.291   .     A
O852   Cu864   1.964   .     S
O853   Cu864   1.958   .     S
O853   C855    1.286   .     A
O854   C856    1.286   .     A
O854   Cu863   1.958   .     S
C855   C887    1.425   .     S
C856   C888    1.425   .     S
O857   C861    1.294   .     A
O857   Cu863   1.960   .     S
O858   C862    1.294   .     A
O858   Cu864   1.960   .     S
O859   Cu864   1.943   .     S
O859   C861    1.292   .     A
O860   C862    1.292   .     A
O860   Cu863   1.943   .     S
C861   C868    1.441   .     S
C862   C867    1.441   .     S
Cu863  Cu864   2.690   .     S
Cu863  N890    2.021   .     S
Cu864  N889    2.021   .     S
C865   H881    1.082   .     S
C865   C875    1.400   .     A
C865   C867    1.394   .     A
C866   H882    1.082   .     S
C866   C868    1.394   .     A
C866   C876    1.400   .     A
C867   C869    1.392   .     A
C868   C870    1.392   .     A
C869   C871    1.392   .     A
C869   H883    1.085   .     S
C870   H884    1.085   .     S
C870   C872    1.392   .     A
C871   C877    1.399   .     A
C871   C873    1.413   .     A
C872   C878    1.399   .     A
C872   C874    1.413   .     A
C873   C875    1.420   .     A
C873   C824    1.402   1_655 S
C874   C876    1.420   .     A
C875   C880    1.417   .     A
C876   C879    1.417   .     A
C877   H885    1.084   .     S
C877   C829    1.399   1_655 S
C878   H886    1.084   .     S
C879   N893    1.440   .     S
C880   N896    1.440   .     S
C880   C828    1.399   1_655 S
C888   C687    1.337   1_565 S
C888   F700    1.364   1_565 S
N890   N289    1.294   1_556 S
N890   H292    1.029   1_556 S
H891   N289    1.029   1_556 S
N893   O895    1.301   .     A
O894   N693    1.301   1_565 S
N896   O898    1.301   .     A
N896   O697    1.301   1_565 S
F899   C687    1.364   1_565 S
