data_str_m2_o10_o17_pcu_sym.89
_audit_creation_date              2020-01-03
_audit_creation_method            'Materials Studio'
_symmetry_space_group_name_H-M    'P1'
_symmetry_Int_Tables_number       1
_symmetry_cell_setting            triclinic
loop_
_symmetry_equiv_pos_as_xyz
  x,y,z
_cell_length_a                    29.9814
_cell_length_b                    26.3480
_cell_length_c                    22.3209
_cell_angle_alpha                 102.8685
_cell_angle_beta                  93.8887
_cell_angle_gamma                 92.8486
loop_
_atom_site_label
_atom_site_type_symbol
_atom_site_fract_x
_atom_site_fract_y
_atom_site_fract_z
_atom_site_U_iso_or_equiv
_atom_site_adp_type
_atom_site_occupancy
C1     C     0.24922   0.06687   0.15132   0.00000  Uiso   1.00
C2     C     0.09009   0.11668   0.14450   0.00000  Uiso   1.00
C3     C     0.38354   0.16995   0.16399   0.00000  Uiso   1.00
C4     C     0.11646   0.16338   0.16935   0.00000  Uiso   1.00
C5     C     0.40280   0.12361   0.14065   0.00000  Uiso   1.00
C6     C     0.09720   0.20972   0.19269   0.00000  Uiso   1.00
C7     C     0.44899   0.12195   0.14298   0.00000  Uiso   1.00
C8     C     0.05101   0.21138   0.19036   0.00000  Uiso   1.00
C9     C     0.47657   0.16799   0.16619   0.00000  Uiso   1.00
C10    C     0.02343   0.16534   0.16714   0.00000  Uiso   1.00
C11    C     0.45728   0.21648   0.18821   0.00000  Uiso   1.00
C12    C     0.25078   0.26646   0.18201   0.00000  Uiso   1.00
C13    C     0.04272   0.11685   0.14512   0.00000  Uiso   1.00
C14    C     0.46756   0.07416   0.12352   0.00000  Uiso   1.00
C15    C     0.03245   0.25917   0.20982   0.00000  Uiso   1.00
C16    C     0.38716   0.26389   0.21708   0.00000  Uiso   1.00
C17    C     0.11284   0.06945   0.11623   0.00000  Uiso   1.00
C18    C     0.26621   0.31823   0.08177   0.00000  Uiso   1.00
C19    C     0.23377   0.01510   0.25156   0.00000  Uiso   1.00
C20    C     0.01404   0.07061   0.12553   0.00000  Uiso   1.00
C21    C     0.48596   0.26272   0.20781   0.00000  Uiso   1.00
C22    C     0.25280   0.01182   0.14302   0.00000  Uiso   1.00
C23    C     0.24719   0.32152   0.19031   0.00000  Uiso   1.00
C24    C     0.16460   0.16567   0.16750   0.00000  Uiso   1.00
C25    C     0.33540   0.16766   0.16583   0.00000  Uiso   1.00
C26    C     0.40991   0.21665   0.18883   0.00000  Uiso   1.00
Cu27   Cu    0.25501   0.17246   0.22813   0.00000  Uiso   1.00
Cu28   Cu    0.24500   0.16087   0.10521   0.00000  Uiso   1.00
H29    H     0.38148   0.08815   0.12284   0.00000  Uiso   1.00
H30    H     0.49322   0.00549   0.23446   0.00000  Uiso   1.00
H31    H     0.31654   0.29770   0.02780   0.00000  Uiso   1.00
H32    H     0.18343   0.03565   0.30549   0.00000  Uiso   1.00
H33    H     0.11852   0.24518   0.21051   0.00000  Uiso   1.00
H34    H     0.44562   0.03903   0.10762   0.00000  Uiso   1.00
H35    H     0.05438   0.29430   0.22573   0.00000  Uiso   1.00
H36    H     0.21361   0.12794   0.31653   0.00000  Uiso   1.00
H37    H     0.28639   0.20539   0.01680   0.00000  Uiso   1.00
H38    H     0.37836   0.31828   0.29384   0.00000  Uiso   1.00
H39    H     0.12162   0.01506   0.03945   0.00000  Uiso   1.00
H40    H     0.00678   0.32784   0.09887   0.00000  Uiso   1.00
N41    N     0.23745   0.15214   0.01284   0.00000  Uiso   1.00
N42    N     0.26256   0.18119   0.32049   0.00000  Uiso   1.00
O43    O     0.25326   0.09538   0.20659   0.00000  Uiso   1.00
O44    O     0.39569   0.28622   0.28004   0.00000  Uiso   1.00
O45    O     0.13951   0.05079   0.14781   0.00000  Uiso   1.00
O46    O     0.10429   0.04712   0.05327   0.00000  Uiso   1.00
O47    O     0.03147   0.02220   0.11064   0.00000  Uiso   1.00
O48    O     0.46853   0.31113   0.22270   0.00000  Uiso   1.00
O49    O     0.23741   0.29913   0.04034   0.00000  Uiso   1.00
O50    O     0.31160   0.31611   0.07157   0.00000  Uiso   1.00
O51    O     0.26256   0.03418   0.29300   0.00000  Uiso   1.00
O52    O     0.18837   0.01725   0.26172   0.00000  Uiso   1.00
O53    O     0.24675   0.23796   0.12674   0.00000  Uiso   1.00
O54    O     0.24480   0.08559   0.10279   0.00000  Uiso   1.00
O55    O     0.25520   0.24774   0.23055   0.00000  Uiso   1.00
O56    O     0.18936   0.17155   0.21857   0.00000  Uiso   1.00
O57    O     0.31065   0.16179   0.11476   0.00000  Uiso   1.00
O58    O     0.18090   0.16176   0.11477   0.00000  Uiso   1.00
O59    O     0.31910   0.17157   0.21857   0.00000  Uiso   1.00
O60    O     0.36051   0.28255   0.18548   0.00000  Uiso   1.00
C61    C     0.74922   0.06687   0.15132   0.00000  Uiso   1.00
C62    C     0.59009   0.11668   0.14450   0.00000  Uiso   1.00
C63    C     0.88354   0.16995   0.16399   0.00000  Uiso   1.00
C64    C     0.61646   0.16338   0.16935   0.00000  Uiso   1.00
C65    C     0.90280   0.12361   0.14065   0.00000  Uiso   1.00
C66    C     0.59720   0.20972   0.19269   0.00000  Uiso   1.00
C67    C     0.94899   0.12195   0.14298   0.00000  Uiso   1.00
C68    C     0.55101   0.21138   0.19036   0.00000  Uiso   1.00
C69    C     0.97657   0.16799   0.16619   0.00000  Uiso   1.00
C70    C     0.52343   0.16534   0.16714   0.00000  Uiso   1.00
C71    C     0.95728   0.21648   0.18821   0.00000  Uiso   1.00
C72    C     0.75078   0.26646   0.18201   0.00000  Uiso   1.00
C73    C     0.54272   0.11685   0.14512   0.00000  Uiso   1.00
C74    C     0.96756   0.07416   0.12352   0.00000  Uiso   1.00
C75    C     0.53245   0.25917   0.20982   0.00000  Uiso   1.00
C76    C     0.88716   0.26389   0.21708   0.00000  Uiso   1.00
C77    C     0.61284   0.06945   0.11623   0.00000  Uiso   1.00
C78    C     0.76621   0.31823   0.08177   0.00000  Uiso   1.00
C79    C     0.73377   0.01510   0.25156   0.00000  Uiso   1.00
C80    C     0.51404   0.07061   0.12553   0.00000  Uiso   1.00
C81    C     0.98596   0.26272   0.20781   0.00000  Uiso   1.00
C82    C     0.75280   0.01182   0.14302   0.00000  Uiso   1.00
C83    C     0.74719   0.32152   0.19031   0.00000  Uiso   1.00
C84    C     0.66460   0.16567   0.16750   0.00000  Uiso   1.00
C85    C     0.83540   0.16766   0.16583   0.00000  Uiso   1.00
C86    C     0.90991   0.21665   0.18883   0.00000  Uiso   1.00
Cu87   Cu    0.75501   0.17246   0.22813   0.00000  Uiso   1.00
Cu88   Cu    0.74500   0.16087   0.10521   0.00000  Uiso   1.00
H89    H     0.88148   0.08815   0.12284   0.00000  Uiso   1.00
H90    H     0.99322   0.00549   0.23446   0.00000  Uiso   1.00
H91    H     0.81654   0.29770   0.02780   0.00000  Uiso   1.00
H92    H     0.68343   0.03565   0.30549   0.00000  Uiso   1.00
H93    H     0.61852   0.24518   0.21051   0.00000  Uiso   1.00
H94    H     0.94562   0.03903   0.10762   0.00000  Uiso   1.00
H95    H     0.55438   0.29430   0.22573   0.00000  Uiso   1.00
H96    H     0.71361   0.12794   0.31653   0.00000  Uiso   1.00
H97    H     0.78639   0.20539   0.01680   0.00000  Uiso   1.00
H98    H     0.87836   0.31828   0.29384   0.00000  Uiso   1.00
H99    H     0.62162   0.01506   0.03945   0.00000  Uiso   1.00
H100   H     0.50678   0.32784   0.09887   0.00000  Uiso   1.00
N101   N     0.73745   0.15214   0.01284   0.00000  Uiso   1.00
N102   N     0.76256   0.18119   0.32049   0.00000  Uiso   1.00
O103   O     0.75326   0.09538   0.20659   0.00000  Uiso   1.00
O104   O     0.89569   0.28622   0.28004   0.00000  Uiso   1.00
O105   O     0.63951   0.05079   0.14781   0.00000  Uiso   1.00
O106   O     0.60429   0.04712   0.05327   0.00000  Uiso   1.00
O107   O     0.53147   0.02220   0.11064   0.00000  Uiso   1.00
O108   O     0.96853   0.31113   0.22270   0.00000  Uiso   1.00
O109   O     0.73741   0.29913   0.04034   0.00000  Uiso   1.00
O110   O     0.81160   0.31611   0.07157   0.00000  Uiso   1.00
O111   O     0.76256   0.03418   0.29300   0.00000  Uiso   1.00
O112   O     0.68837   0.01725   0.26172   0.00000  Uiso   1.00
O113   O     0.74675   0.23796   0.12674   0.00000  Uiso   1.00
O114   O     0.74480   0.08559   0.10279   0.00000  Uiso   1.00
O115   O     0.75520   0.24774   0.23055   0.00000  Uiso   1.00
O116   O     0.68936   0.17155   0.21857   0.00000  Uiso   1.00
O117   O     0.81065   0.16179   0.11476   0.00000  Uiso   1.00
O118   O     0.68090   0.16176   0.11477   0.00000  Uiso   1.00
O119   O     0.81910   0.17157   0.21857   0.00000  Uiso   1.00
O120   O     0.86051   0.28255   0.18548   0.00000  Uiso   1.00
C121   C     0.24922   0.40021   0.15132   0.00000  Uiso   1.00
C122   C     0.09009   0.45002   0.14450   0.00000  Uiso   1.00
C123   C     0.38354   0.50328   0.16399   0.00000  Uiso   1.00
C124   C     0.11646   0.49672   0.16935   0.00000  Uiso   1.00
C125   C     0.40280   0.45694   0.14065   0.00000  Uiso   1.00
C126   C     0.09720   0.54306   0.19269   0.00000  Uiso   1.00
C127   C     0.44899   0.45528   0.14298   0.00000  Uiso   1.00
C128   C     0.05101   0.54472   0.19036   0.00000  Uiso   1.00
C129   C     0.47657   0.50133   0.16619   0.00000  Uiso   1.00
C130   C     0.02343   0.49867   0.16714   0.00000  Uiso   1.00
C131   C     0.45728   0.54982   0.18821   0.00000  Uiso   1.00
C132   C     0.25078   0.59979   0.18201   0.00000  Uiso   1.00
C133   C     0.04272   0.45018   0.14512   0.00000  Uiso   1.00
C134   C     0.46756   0.40750   0.12352   0.00000  Uiso   1.00
C135   C     0.03245   0.59250   0.20982   0.00000  Uiso   1.00
C136   C     0.38716   0.59722   0.21708   0.00000  Uiso   1.00
C137   C     0.11284   0.40279   0.11623   0.00000  Uiso   1.00
C138   C     0.26621   0.65156   0.08177   0.00000  Uiso   1.00
C139   C     0.23377   0.34843   0.25156   0.00000  Uiso   1.00
C140   C     0.01404   0.40395   0.12553   0.00000  Uiso   1.00
C141   C     0.48596   0.59605   0.20781   0.00000  Uiso   1.00
C142   C     0.25280   0.34515   0.14302   0.00000  Uiso   1.00
C143   C     0.24719   0.65485   0.19031   0.00000  Uiso   1.00
C144   C     0.16460   0.49901   0.16750   0.00000  Uiso   1.00
C145   C     0.33540   0.50099   0.16583   0.00000  Uiso   1.00
C146   C     0.40991   0.54998   0.18883   0.00000  Uiso   1.00
Cu147  Cu    0.25501   0.50579   0.22813   0.00000  Uiso   1.00
Cu148  Cu    0.24500   0.49421   0.10521   0.00000  Uiso   1.00
H149   H     0.38148   0.42148   0.12284   0.00000  Uiso   1.00
H150   H     0.49322   0.33882   0.23446   0.00000  Uiso   1.00
H151   H     0.31654   0.63104   0.02780   0.00000  Uiso   1.00
H152   H     0.18343   0.36898   0.30549   0.00000  Uiso   1.00
H153   H     0.11852   0.57851   0.21051   0.00000  Uiso   1.00
H154   H     0.44562   0.37236   0.10762   0.00000  Uiso   1.00
H155   H     0.05438   0.62764   0.22573   0.00000  Uiso   1.00
H156   H     0.21361   0.46128   0.31653   0.00000  Uiso   1.00
H157   H     0.28639   0.53872   0.01680   0.00000  Uiso   1.00
H158   H     0.37836   0.65161   0.29384   0.00000  Uiso   1.00
H159   H     0.12162   0.34840   0.03945   0.00000  Uiso   1.00
H160   H     0.00678   0.66117   0.09887   0.00000  Uiso   1.00
N161   N     0.23745   0.48547   0.01284   0.00000  Uiso   1.00
N162   N     0.26256   0.51453   0.32049   0.00000  Uiso   1.00
O163   O     0.25326   0.42871   0.20659   0.00000  Uiso   1.00
O164   O     0.39569   0.61955   0.28004   0.00000  Uiso   1.00
O165   O     0.13951   0.38413   0.14781   0.00000  Uiso   1.00
O166   O     0.10429   0.38046   0.05327   0.00000  Uiso   1.00
O167   O     0.03147   0.35553   0.11064   0.00000  Uiso   1.00
O168   O     0.46853   0.64447   0.22270   0.00000  Uiso   1.00
O169   O     0.23741   0.63246   0.04034   0.00000  Uiso   1.00
O170   O     0.31160   0.64944   0.07157   0.00000  Uiso   1.00
O171   O     0.26256   0.36752   0.29300   0.00000  Uiso   1.00
O172   O     0.18837   0.35058   0.26172   0.00000  Uiso   1.00
O173   O     0.24675   0.57129   0.12674   0.00000  Uiso   1.00
O174   O     0.24480   0.41892   0.10279   0.00000  Uiso   1.00
O175   O     0.25520   0.58108   0.23055   0.00000  Uiso   1.00
O176   O     0.18936   0.50488   0.21857   0.00000  Uiso   1.00
O177   O     0.31065   0.49512   0.11476   0.00000  Uiso   1.00
O178   O     0.18090   0.49510   0.11477   0.00000  Uiso   1.00
O179   O     0.31910   0.50490   0.21857   0.00000  Uiso   1.00
O180   O     0.36051   0.61588   0.18548   0.00000  Uiso   1.00
C181   C     0.74922   0.40021   0.15132   0.00000  Uiso   1.00
C182   C     0.59009   0.45002   0.14450   0.00000  Uiso   1.00
C183   C     0.88354   0.50328   0.16399   0.00000  Uiso   1.00
C184   C     0.61646   0.49672   0.16935   0.00000  Uiso   1.00
C185   C     0.90280   0.45694   0.14065   0.00000  Uiso   1.00
C186   C     0.59720   0.54306   0.19269   0.00000  Uiso   1.00
C187   C     0.94899   0.45528   0.14298   0.00000  Uiso   1.00
C188   C     0.55101   0.54472   0.19036   0.00000  Uiso   1.00
C189   C     0.97657   0.50133   0.16619   0.00000  Uiso   1.00
C190   C     0.52343   0.49867   0.16714   0.00000  Uiso   1.00
C191   C     0.95728   0.54982   0.18821   0.00000  Uiso   1.00
C192   C     0.75078   0.59979   0.18201   0.00000  Uiso   1.00
C193   C     0.54272   0.45018   0.14512   0.00000  Uiso   1.00
C194   C     0.96756   0.40750   0.12352   0.00000  Uiso   1.00
C195   C     0.53245   0.59250   0.20982   0.00000  Uiso   1.00
C196   C     0.88716   0.59722   0.21708   0.00000  Uiso   1.00
C197   C     0.61284   0.40279   0.11623   0.00000  Uiso   1.00
C198   C     0.76621   0.65156   0.08177   0.00000  Uiso   1.00
C199   C     0.73377   0.34843   0.25156   0.00000  Uiso   1.00
C200   C     0.51404   0.40395   0.12553   0.00000  Uiso   1.00
C201   C     0.98596   0.59605   0.20781   0.00000  Uiso   1.00
C202   C     0.75280   0.34515   0.14302   0.00000  Uiso   1.00
C203   C     0.74719   0.65485   0.19031   0.00000  Uiso   1.00
C204   C     0.66460   0.49901   0.16750   0.00000  Uiso   1.00
C205   C     0.83540   0.50099   0.16583   0.00000  Uiso   1.00
C206   C     0.90991   0.54998   0.18883   0.00000  Uiso   1.00
Cu207  Cu    0.75501   0.50579   0.22813   0.00000  Uiso   1.00
Cu208  Cu    0.74500   0.49421   0.10521   0.00000  Uiso   1.00
H209   H     0.88148   0.42148   0.12284   0.00000  Uiso   1.00
H210   H     0.99322   0.33882   0.23446   0.00000  Uiso   1.00
H211   H     0.81654   0.63104   0.02780   0.00000  Uiso   1.00
H212   H     0.68343   0.36898   0.30549   0.00000  Uiso   1.00
H213   H     0.61852   0.57851   0.21051   0.00000  Uiso   1.00
H214   H     0.94562   0.37236   0.10762   0.00000  Uiso   1.00
H215   H     0.55438   0.62764   0.22573   0.00000  Uiso   1.00
H216   H     0.71361   0.46128   0.31653   0.00000  Uiso   1.00
H217   H     0.78639   0.53872   0.01680   0.00000  Uiso   1.00
H218   H     0.87836   0.65161   0.29384   0.00000  Uiso   1.00
H219   H     0.62162   0.34840   0.03945   0.00000  Uiso   1.00
H220   H     0.50678   0.66117   0.09887   0.00000  Uiso   1.00
N221   N     0.73745   0.48547   0.01284   0.00000  Uiso   1.00
N222   N     0.76256   0.51453   0.32049   0.00000  Uiso   1.00
O223   O     0.75326   0.42871   0.20659   0.00000  Uiso   1.00
O224   O     0.89569   0.61955   0.28004   0.00000  Uiso   1.00
O225   O     0.63951   0.38413   0.14781   0.00000  Uiso   1.00
O226   O     0.60429   0.38046   0.05327   0.00000  Uiso   1.00
O227   O     0.53147   0.35553   0.11064   0.00000  Uiso   1.00
O228   O     0.96853   0.64447   0.22270   0.00000  Uiso   1.00
O229   O     0.73741   0.63246   0.04034   0.00000  Uiso   1.00
O230   O     0.81160   0.64944   0.07157   0.00000  Uiso   1.00
O231   O     0.76256   0.36752   0.29300   0.00000  Uiso   1.00
O232   O     0.68837   0.35058   0.26172   0.00000  Uiso   1.00
O233   O     0.74675   0.57129   0.12674   0.00000  Uiso   1.00
O234   O     0.74480   0.41892   0.10279   0.00000  Uiso   1.00
O235   O     0.75520   0.58108   0.23055   0.00000  Uiso   1.00
O236   O     0.68936   0.50488   0.21857   0.00000  Uiso   1.00
O237   O     0.81065   0.49512   0.11476   0.00000  Uiso   1.00
O238   O     0.68090   0.49510   0.11477   0.00000  Uiso   1.00
O239   O     0.81910   0.50490   0.21857   0.00000  Uiso   1.00
O240   O     0.86051   0.61588   0.18548   0.00000  Uiso   1.00
C241   C     0.24922   0.73354   0.15132   0.00000  Uiso   1.00
C242   C     0.09009   0.78335   0.14450   0.00000  Uiso   1.00
C243   C     0.38354   0.83661   0.16399   0.00000  Uiso   1.00
C244   C     0.11646   0.83005   0.16935   0.00000  Uiso   1.00
C245   C     0.40280   0.79027   0.14065   0.00000  Uiso   1.00
C246   C     0.09720   0.87639   0.19269   0.00000  Uiso   1.00
C247   C     0.44899   0.78861   0.14298   0.00000  Uiso   1.00
C248   C     0.05101   0.87805   0.19036   0.00000  Uiso   1.00
C249   C     0.47657   0.83466   0.16619   0.00000  Uiso   1.00
C250   C     0.02343   0.83200   0.16714   0.00000  Uiso   1.00
C251   C     0.45728   0.88315   0.18821   0.00000  Uiso   1.00
C252   C     0.25078   0.93313   0.18201   0.00000  Uiso   1.00
C253   C     0.04272   0.78351   0.14512   0.00000  Uiso   1.00
C254   C     0.46756   0.74083   0.12352   0.00000  Uiso   1.00
C255   C     0.03245   0.92583   0.20982   0.00000  Uiso   1.00
C256   C     0.38716   0.93055   0.21708   0.00000  Uiso   1.00
C257   C     0.11284   0.73612   0.11623   0.00000  Uiso   1.00
C258   C     0.26621   0.98490   0.08177   0.00000  Uiso   1.00
C259   C     0.23377   0.68177   0.25156   0.00000  Uiso   1.00
C260   C     0.01404   0.73728   0.12553   0.00000  Uiso   1.00
C261   C     0.48596   0.92939   0.20781   0.00000  Uiso   1.00
C262   C     0.25280   0.67848   0.14302   0.00000  Uiso   1.00
C263   C     0.24719   0.98818   0.19031   0.00000  Uiso   1.00
C264   C     0.16460   0.83234   0.16750   0.00000  Uiso   1.00
C265   C     0.33540   0.83433   0.16583   0.00000  Uiso   1.00
C266   C     0.40991   0.88332   0.18883   0.00000  Uiso   1.00
Cu267  Cu    0.25501   0.83913   0.22813   0.00000  Uiso   1.00
Cu268  Cu    0.24500   0.82754   0.10521   0.00000  Uiso   1.00
H269   H     0.38148   0.75482   0.12284   0.00000  Uiso   1.00
H270   H     0.49322   0.67216   0.23446   0.00000  Uiso   1.00
H271   H     0.31654   0.96437   0.02780   0.00000  Uiso   1.00
H272   H     0.18343   0.70231   0.30549   0.00000  Uiso   1.00
H273   H     0.11852   0.91185   0.21051   0.00000  Uiso   1.00
H274   H     0.44562   0.70569   0.10762   0.00000  Uiso   1.00
H275   H     0.05438   0.96097   0.22573   0.00000  Uiso   1.00
H276   H     0.21361   0.79461   0.31653   0.00000  Uiso   1.00
H277   H     0.28639   0.87206   0.01680   0.00000  Uiso   1.00
H278   H     0.37836   0.98495   0.29384   0.00000  Uiso   1.00
H279   H     0.12162   0.68173   0.03945   0.00000  Uiso   1.00
H280   H     0.00678   0.99451   0.09887   0.00000  Uiso   1.00
N281   N     0.23745   0.81881   0.01284   0.00000  Uiso   1.00
N282   N     0.26256   0.84786   0.32049   0.00000  Uiso   1.00
O283   O     0.25326   0.76204   0.20659   0.00000  Uiso   1.00
O284   O     0.39569   0.95288   0.28004   0.00000  Uiso   1.00
O285   O     0.13951   0.71746   0.14781   0.00000  Uiso   1.00
O286   O     0.10429   0.71379   0.05327   0.00000  Uiso   1.00
O287   O     0.03147   0.68886   0.11064   0.00000  Uiso   1.00
O288   O     0.46853   0.97780   0.22270   0.00000  Uiso   1.00
O289   O     0.23741   0.96579   0.04034   0.00000  Uiso   1.00
O290   O     0.31160   0.98277   0.07157   0.00000  Uiso   1.00
O291   O     0.26256   0.70085   0.29300   0.00000  Uiso   1.00
O292   O     0.18837   0.68391   0.26172   0.00000  Uiso   1.00
O293   O     0.24675   0.90462   0.12674   0.00000  Uiso   1.00
O294   O     0.24480   0.75226   0.10279   0.00000  Uiso   1.00
O295   O     0.25520   0.91441   0.23055   0.00000  Uiso   1.00
O296   O     0.18936   0.83821   0.21857   0.00000  Uiso   1.00
O297   O     0.31065   0.82845   0.11476   0.00000  Uiso   1.00
O298   O     0.18090   0.82843   0.11477   0.00000  Uiso   1.00
O299   O     0.31910   0.83824   0.21857   0.00000  Uiso   1.00
O300   O     0.36051   0.94921   0.18548   0.00000  Uiso   1.00
C301   C     0.74922   0.73354   0.15132   0.00000  Uiso   1.00
C302   C     0.59009   0.78335   0.14450   0.00000  Uiso   1.00
C303   C     0.88354   0.83661   0.16399   0.00000  Uiso   1.00
C304   C     0.61646   0.83005   0.16935   0.00000  Uiso   1.00
C305   C     0.90280   0.79027   0.14065   0.00000  Uiso   1.00
C306   C     0.59720   0.87639   0.19269   0.00000  Uiso   1.00
C307   C     0.94899   0.78861   0.14298   0.00000  Uiso   1.00
C308   C     0.55101   0.87805   0.19036   0.00000  Uiso   1.00
C309   C     0.97657   0.83466   0.16619   0.00000  Uiso   1.00
C310   C     0.52343   0.83200   0.16714   0.00000  Uiso   1.00
C311   C     0.95728   0.88315   0.18821   0.00000  Uiso   1.00
C312   C     0.75078   0.93313   0.18201   0.00000  Uiso   1.00
C313   C     0.54272   0.78351   0.14512   0.00000  Uiso   1.00
C314   C     0.96756   0.74083   0.12352   0.00000  Uiso   1.00
C315   C     0.53245   0.92583   0.20982   0.00000  Uiso   1.00
C316   C     0.88716   0.93055   0.21708   0.00000  Uiso   1.00
C317   C     0.61284   0.73612   0.11623   0.00000  Uiso   1.00
C318   C     0.76621   0.98490   0.08177   0.00000  Uiso   1.00
C319   C     0.73377   0.68177   0.25156   0.00000  Uiso   1.00
C320   C     0.51404   0.73728   0.12553   0.00000  Uiso   1.00
C321   C     0.98596   0.92939   0.20781   0.00000  Uiso   1.00
C322   C     0.75280   0.67848   0.14302   0.00000  Uiso   1.00
C323   C     0.74719   0.98818   0.19031   0.00000  Uiso   1.00
C324   C     0.66460   0.83234   0.16750   0.00000  Uiso   1.00
C325   C     0.83540   0.83433   0.16583   0.00000  Uiso   1.00
C326   C     0.90991   0.88332   0.18883   0.00000  Uiso   1.00
Cu327  Cu    0.75501   0.83913   0.22813   0.00000  Uiso   1.00
Cu328  Cu    0.74500   0.82754   0.10521   0.00000  Uiso   1.00
H329   H     0.88148   0.75482   0.12284   0.00000  Uiso   1.00
H330   H     0.99322   0.67216   0.23446   0.00000  Uiso   1.00
H331   H     0.81654   0.96437   0.02780   0.00000  Uiso   1.00
H332   H     0.68343   0.70231   0.30549   0.00000  Uiso   1.00
H333   H     0.61852   0.91185   0.21051   0.00000  Uiso   1.00
H334   H     0.94562   0.70569   0.10762   0.00000  Uiso   1.00
H335   H     0.55438   0.96097   0.22573   0.00000  Uiso   1.00
H336   H     0.71361   0.79461   0.31653   0.00000  Uiso   1.00
H337   H     0.78639   0.87206   0.01680   0.00000  Uiso   1.00
H338   H     0.87836   0.98495   0.29384   0.00000  Uiso   1.00
H339   H     0.62162   0.68173   0.03945   0.00000  Uiso   1.00
H340   H     0.50678   0.99451   0.09887   0.00000  Uiso   1.00
N341   N     0.73745   0.81881   0.01284   0.00000  Uiso   1.00
N342   N     0.76256   0.84786   0.32049   0.00000  Uiso   1.00
O343   O     0.75326   0.76204   0.20659   0.00000  Uiso   1.00
O344   O     0.89569   0.95288   0.28004   0.00000  Uiso   1.00
O345   O     0.63951   0.71746   0.14781   0.00000  Uiso   1.00
O346   O     0.60429   0.71379   0.05327   0.00000  Uiso   1.00
O347   O     0.53147   0.68886   0.11064   0.00000  Uiso   1.00
O348   O     0.96853   0.97780   0.22270   0.00000  Uiso   1.00
O349   O     0.73741   0.96579   0.04034   0.00000  Uiso   1.00
O350   O     0.81160   0.98277   0.07157   0.00000  Uiso   1.00
O351   O     0.76256   0.70085   0.29300   0.00000  Uiso   1.00
O352   O     0.68837   0.68391   0.26172   0.00000  Uiso   1.00
O353   O     0.74675   0.90462   0.12674   0.00000  Uiso   1.00
O354   O     0.74480   0.75226   0.10279   0.00000  Uiso   1.00
O355   O     0.75520   0.91441   0.23055   0.00000  Uiso   1.00
O356   O     0.68936   0.83821   0.21857   0.00000  Uiso   1.00
O357   O     0.81065   0.82845   0.11476   0.00000  Uiso   1.00
O358   O     0.68090   0.82843   0.11477   0.00000  Uiso   1.00
O359   O     0.81910   0.83824   0.21857   0.00000  Uiso   1.00
O360   O     0.86051   0.94921   0.18548   0.00000  Uiso   1.00
C361   C     0.24922   0.06687   0.48466   0.00000  Uiso   1.00
C362   C     0.09009   0.11668   0.47783   0.00000  Uiso   1.00
C363   C     0.38354   0.16995   0.49732   0.00000  Uiso   1.00
C364   C     0.11646   0.16338   0.50268   0.00000  Uiso   1.00
C365   C     0.40280   0.12361   0.47398   0.00000  Uiso   1.00
C366   C     0.09720   0.20972   0.52602   0.00000  Uiso   1.00
C367   C     0.44899   0.12195   0.47631   0.00000  Uiso   1.00
C368   C     0.05101   0.21138   0.52369   0.00000  Uiso   1.00
C369   C     0.47657   0.16799   0.49953   0.00000  Uiso   1.00
C370   C     0.02343   0.16534   0.50048   0.00000  Uiso   1.00
C371   C     0.45728   0.21648   0.52154   0.00000  Uiso   1.00
C372   C     0.25078   0.26646   0.51534   0.00000  Uiso   1.00
C373   C     0.04272   0.11685   0.47846   0.00000  Uiso   1.00
C374   C     0.46756   0.07416   0.45685   0.00000  Uiso   1.00
C375   C     0.03245   0.25917   0.54316   0.00000  Uiso   1.00
C376   C     0.38716   0.26389   0.55041   0.00000  Uiso   1.00
C377   C     0.11284   0.06945   0.44956   0.00000  Uiso   1.00
C378   C     0.26621   0.31823   0.41510   0.00000  Uiso   1.00
C379   C     0.23377   0.01510   0.58489   0.00000  Uiso   1.00
C380   C     0.01404   0.07061   0.45886   0.00000  Uiso   1.00
C381   C     0.48596   0.26272   0.54114   0.00000  Uiso   1.00
C382   C     0.25280   0.01182   0.47635   0.00000  Uiso   1.00
C383   C     0.24719   0.32152   0.52364   0.00000  Uiso   1.00
C384   C     0.16460   0.16567   0.50084   0.00000  Uiso   1.00
C385   C     0.33540   0.16766   0.49916   0.00000  Uiso   1.00
C386   C     0.40991   0.21665   0.52216   0.00000  Uiso   1.00
Cu387  Cu    0.25501   0.17246   0.56146   0.00000  Uiso   1.00
Cu388  Cu    0.24500   0.16087   0.43854   0.00000  Uiso   1.00
H389   H     0.38148   0.08815   0.45617   0.00000  Uiso   1.00
H390   H     0.49322   0.00549   0.56780   0.00000  Uiso   1.00
H391   H     0.31654   0.29770   0.36113   0.00000  Uiso   1.00
H392   H     0.18343   0.03565   0.63882   0.00000  Uiso   1.00
H393   H     0.11852   0.24518   0.54384   0.00000  Uiso   1.00
H394   H     0.44562   0.03903   0.44095   0.00000  Uiso   1.00
H395   H     0.05438   0.29430   0.55906   0.00000  Uiso   1.00
H396   H     0.21361   0.12794   0.64987   0.00000  Uiso   1.00
H397   H     0.28639   0.20539   0.35013   0.00000  Uiso   1.00
H398   H     0.37836   0.31828   0.62718   0.00000  Uiso   1.00
H399   H     0.12162   0.01506   0.37278   0.00000  Uiso   1.00
H400   H     0.00678   0.32784   0.43221   0.00000  Uiso   1.00
N401   N     0.23745   0.15214   0.34617   0.00000  Uiso   1.00
N402   N     0.26256   0.18119   0.65383   0.00000  Uiso   1.00
O403   O     0.25326   0.09538   0.53992   0.00000  Uiso   1.00
O404   O     0.39569   0.28622   0.61337   0.00000  Uiso   1.00
O405   O     0.13951   0.05079   0.48114   0.00000  Uiso   1.00
O406   O     0.10429   0.04712   0.38660   0.00000  Uiso   1.00
O407   O     0.03147   0.02220   0.44398   0.00000  Uiso   1.00
O408   O     0.46853   0.31113   0.55603   0.00000  Uiso   1.00
O409   O     0.23741   0.29913   0.37367   0.00000  Uiso   1.00
O410   O     0.31160   0.31611   0.40490   0.00000  Uiso   1.00
O411   O     0.26256   0.03418   0.62634   0.00000  Uiso   1.00
O412   O     0.18837   0.01725   0.59506   0.00000  Uiso   1.00
O413   O     0.24675   0.23796   0.46008   0.00000  Uiso   1.00
O414   O     0.24480   0.08559   0.43612   0.00000  Uiso   1.00
O415   O     0.25520   0.24774   0.56388   0.00000  Uiso   1.00
O416   O     0.18936   0.17155   0.55191   0.00000  Uiso   1.00
O417   O     0.31065   0.16179   0.44809   0.00000  Uiso   1.00
O418   O     0.18090   0.16176   0.44810   0.00000  Uiso   1.00
O419   O     0.31910   0.17157   0.55190   0.00000  Uiso   1.00
O420   O     0.36051   0.28255   0.51881   0.00000  Uiso   1.00
C421   C     0.74922   0.06687   0.48466   0.00000  Uiso   1.00
C422   C     0.59009   0.11668   0.47783   0.00000  Uiso   1.00
C423   C     0.88354   0.16995   0.49732   0.00000  Uiso   1.00
C424   C     0.61646   0.16338   0.50268   0.00000  Uiso   1.00
C425   C     0.90280   0.12361   0.47398   0.00000  Uiso   1.00
C426   C     0.59720   0.20972   0.52602   0.00000  Uiso   1.00
C427   C     0.94899   0.12195   0.47631   0.00000  Uiso   1.00
C428   C     0.55101   0.21138   0.52369   0.00000  Uiso   1.00
C429   C     0.97657   0.16799   0.49953   0.00000  Uiso   1.00
C430   C     0.52343   0.16534   0.50048   0.00000  Uiso   1.00
C431   C     0.95728   0.21648   0.52154   0.00000  Uiso   1.00
C432   C     0.75078   0.26646   0.51534   0.00000  Uiso   1.00
C433   C     0.54272   0.11685   0.47846   0.00000  Uiso   1.00
C434   C     0.96756   0.07416   0.45685   0.00000  Uiso   1.00
C435   C     0.53245   0.25917   0.54316   0.00000  Uiso   1.00
C436   C     0.88716   0.26389   0.55041   0.00000  Uiso   1.00
C437   C     0.61284   0.06945   0.44956   0.00000  Uiso   1.00
C438   C     0.76621   0.31823   0.41510   0.00000  Uiso   1.00
C439   C     0.73377   0.01510   0.58489   0.00000  Uiso   1.00
C440   C     0.51404   0.07061   0.45886   0.00000  Uiso   1.00
C441   C     0.98596   0.26272   0.54114   0.00000  Uiso   1.00
C442   C     0.75280   0.01182   0.47635   0.00000  Uiso   1.00
C443   C     0.74719   0.32152   0.52364   0.00000  Uiso   1.00
C444   C     0.66460   0.16567   0.50084   0.00000  Uiso   1.00
C445   C     0.83540   0.16766   0.49916   0.00000  Uiso   1.00
C446   C     0.90991   0.21665   0.52216   0.00000  Uiso   1.00
Cu447  Cu    0.75501   0.17246   0.56146   0.00000  Uiso   1.00
Cu448  Cu    0.74500   0.16087   0.43854   0.00000  Uiso   1.00
H449   H     0.88148   0.08815   0.45617   0.00000  Uiso   1.00
H450   H     0.99322   0.00549   0.56780   0.00000  Uiso   1.00
H451   H     0.81654   0.29770   0.36113   0.00000  Uiso   1.00
H452   H     0.68343   0.03565   0.63882   0.00000  Uiso   1.00
H453   H     0.61852   0.24518   0.54384   0.00000  Uiso   1.00
H454   H     0.94562   0.03903   0.44095   0.00000  Uiso   1.00
H455   H     0.55438   0.29430   0.55906   0.00000  Uiso   1.00
H456   H     0.71361   0.12794   0.64987   0.00000  Uiso   1.00
H457   H     0.78639   0.20539   0.35013   0.00000  Uiso   1.00
H458   H     0.87836   0.31828   0.62718   0.00000  Uiso   1.00
H459   H     0.62162   0.01506   0.37278   0.00000  Uiso   1.00
H460   H     0.50678   0.32784   0.43221   0.00000  Uiso   1.00
N461   N     0.73745   0.15214   0.34617   0.00000  Uiso   1.00
N462   N     0.76256   0.18119   0.65383   0.00000  Uiso   1.00
O463   O     0.75326   0.09538   0.53992   0.00000  Uiso   1.00
O464   O     0.89569   0.28622   0.61337   0.00000  Uiso   1.00
O465   O     0.63951   0.05079   0.48114   0.00000  Uiso   1.00
O466   O     0.60429   0.04712   0.38660   0.00000  Uiso   1.00
O467   O     0.53147   0.02220   0.44398   0.00000  Uiso   1.00
O468   O     0.96853   0.31113   0.55603   0.00000  Uiso   1.00
O469   O     0.73741   0.29913   0.37367   0.00000  Uiso   1.00
O470   O     0.81160   0.31611   0.40490   0.00000  Uiso   1.00
O471   O     0.76256   0.03418   0.62634   0.00000  Uiso   1.00
O472   O     0.68837   0.01725   0.59506   0.00000  Uiso   1.00
O473   O     0.74675   0.23796   0.46008   0.00000  Uiso   1.00
O474   O     0.74480   0.08559   0.43612   0.00000  Uiso   1.00
O475   O     0.75520   0.24774   0.56388   0.00000  Uiso   1.00
O476   O     0.68936   0.17155   0.55191   0.00000  Uiso   1.00
O477   O     0.81065   0.16179   0.44809   0.00000  Uiso   1.00
O478   O     0.68090   0.16176   0.44810   0.00000  Uiso   1.00
O479   O     0.81910   0.17157   0.55190   0.00000  Uiso   1.00
O480   O     0.86051   0.28255   0.51881   0.00000  Uiso   1.00
C481   C     0.24922   0.40021   0.48466   0.00000  Uiso   1.00
C482   C     0.09009   0.45002   0.47783   0.00000  Uiso   1.00
C483   C     0.38354   0.50328   0.49732   0.00000  Uiso   1.00
C484   C     0.11646   0.49672   0.50268   0.00000  Uiso   1.00
C485   C     0.40280   0.45694   0.47398   0.00000  Uiso   1.00
C486   C     0.09720   0.54306   0.52602   0.00000  Uiso   1.00
C487   C     0.44899   0.45528   0.47631   0.00000  Uiso   1.00
C488   C     0.05101   0.54472   0.52369   0.00000  Uiso   1.00
C489   C     0.47657   0.50133   0.49953   0.00000  Uiso   1.00
C490   C     0.02343   0.49867   0.50048   0.00000  Uiso   1.00
C491   C     0.45728   0.54982   0.52154   0.00000  Uiso   1.00
C492   C     0.25078   0.59979   0.51534   0.00000  Uiso   1.00
C493   C     0.04272   0.45018   0.47846   0.00000  Uiso   1.00
C494   C     0.46756   0.40750   0.45685   0.00000  Uiso   1.00
C495   C     0.03245   0.59250   0.54316   0.00000  Uiso   1.00
C496   C     0.38716   0.59722   0.55041   0.00000  Uiso   1.00
C497   C     0.11284   0.40279   0.44956   0.00000  Uiso   1.00
C498   C     0.26621   0.65156   0.41510   0.00000  Uiso   1.00
C499   C     0.23377   0.34843   0.58489   0.00000  Uiso   1.00
C500   C     0.01404   0.40395   0.45886   0.00000  Uiso   1.00
C501   C     0.48596   0.59605   0.54114   0.00000  Uiso   1.00
C502   C     0.25280   0.34515   0.47635   0.00000  Uiso   1.00
C503   C     0.24719   0.65485   0.52364   0.00000  Uiso   1.00
C504   C     0.16460   0.49901   0.50084   0.00000  Uiso   1.00
C505   C     0.33540   0.50099   0.49916   0.00000  Uiso   1.00
C506   C     0.40991   0.54998   0.52216   0.00000  Uiso   1.00
Cu507  Cu    0.25501   0.50579   0.56146   0.00000  Uiso   1.00
Cu508  Cu    0.24500   0.49421   0.43854   0.00000  Uiso   1.00
H509   H     0.38148   0.42148   0.45617   0.00000  Uiso   1.00
H510   H     0.49322   0.33882   0.56780   0.00000  Uiso   1.00
H511   H     0.31654   0.63104   0.36113   0.00000  Uiso   1.00
H512   H     0.18343   0.36898   0.63882   0.00000  Uiso   1.00
H513   H     0.11852   0.57851   0.54384   0.00000  Uiso   1.00
H514   H     0.44562   0.37236   0.44095   0.00000  Uiso   1.00
H515   H     0.05438   0.62764   0.55906   0.00000  Uiso   1.00
H516   H     0.21361   0.46128   0.64987   0.00000  Uiso   1.00
H517   H     0.28639   0.53872   0.35013   0.00000  Uiso   1.00
H518   H     0.37836   0.65161   0.62718   0.00000  Uiso   1.00
H519   H     0.12162   0.34840   0.37278   0.00000  Uiso   1.00
H520   H     0.00678   0.66117   0.43221   0.00000  Uiso   1.00
N521   N     0.23745   0.48547   0.34617   0.00000  Uiso   1.00
N522   N     0.26256   0.51453   0.65383   0.00000  Uiso   1.00
O523   O     0.25326   0.42871   0.53992   0.00000  Uiso   1.00
O524   O     0.39569   0.61955   0.61337   0.00000  Uiso   1.00
O525   O     0.13951   0.38413   0.48114   0.00000  Uiso   1.00
O526   O     0.10429   0.38046   0.38660   0.00000  Uiso   1.00
O527   O     0.03147   0.35553   0.44398   0.00000  Uiso   1.00
O528   O     0.46853   0.64447   0.55603   0.00000  Uiso   1.00
O529   O     0.23741   0.63246   0.37367   0.00000  Uiso   1.00
O530   O     0.31160   0.64944   0.40490   0.00000  Uiso   1.00
O531   O     0.26256   0.36752   0.62634   0.00000  Uiso   1.00
O532   O     0.18837   0.35058   0.59506   0.00000  Uiso   1.00
O533   O     0.24675   0.57129   0.46008   0.00000  Uiso   1.00
O534   O     0.24480   0.41892   0.43612   0.00000  Uiso   1.00
O535   O     0.25520   0.58108   0.56388   0.00000  Uiso   1.00
O536   O     0.18936   0.50488   0.55191   0.00000  Uiso   1.00
O537   O     0.31065   0.49512   0.44809   0.00000  Uiso   1.00
O538   O     0.18090   0.49510   0.44810   0.00000  Uiso   1.00
O539   O     0.31910   0.50490   0.55190   0.00000  Uiso   1.00
O540   O     0.36051   0.61588   0.51881   0.00000  Uiso   1.00
C541   C     0.74922   0.40021   0.48466   0.00000  Uiso   1.00
C542   C     0.59009   0.45002   0.47783   0.00000  Uiso   1.00
C543   C     0.88354   0.50328   0.49732   0.00000  Uiso   1.00
C544   C     0.61646   0.49672   0.50268   0.00000  Uiso   1.00
C545   C     0.90280   0.45694   0.47398   0.00000  Uiso   1.00
C546   C     0.59720   0.54306   0.52602   0.00000  Uiso   1.00
C547   C     0.94899   0.45528   0.47631   0.00000  Uiso   1.00
C548   C     0.55101   0.54472   0.52369   0.00000  Uiso   1.00
C549   C     0.97657   0.50133   0.49953   0.00000  Uiso   1.00
C550   C     0.52343   0.49867   0.50048   0.00000  Uiso   1.00
C551   C     0.95728   0.54982   0.52154   0.00000  Uiso   1.00
C552   C     0.75078   0.59979   0.51534   0.00000  Uiso   1.00
C553   C     0.54272   0.45018   0.47846   0.00000  Uiso   1.00
C554   C     0.96756   0.40750   0.45685   0.00000  Uiso   1.00
C555   C     0.53245   0.59250   0.54316   0.00000  Uiso   1.00
C556   C     0.88716   0.59722   0.55041   0.00000  Uiso   1.00
C557   C     0.61284   0.40279   0.44956   0.00000  Uiso   1.00
C558   C     0.76621   0.65156   0.41510   0.00000  Uiso   1.00
C559   C     0.73377   0.34843   0.58489   0.00000  Uiso   1.00
C560   C     0.51404   0.40395   0.45886   0.00000  Uiso   1.00
C561   C     0.98596   0.59605   0.54114   0.00000  Uiso   1.00
C562   C     0.75280   0.34515   0.47635   0.00000  Uiso   1.00
C563   C     0.74719   0.65485   0.52364   0.00000  Uiso   1.00
C564   C     0.66460   0.49901   0.50084   0.00000  Uiso   1.00
C565   C     0.83540   0.50099   0.49916   0.00000  Uiso   1.00
C566   C     0.90991   0.54998   0.52216   0.00000  Uiso   1.00
Cu567  Cu    0.75501   0.50579   0.56146   0.00000  Uiso   1.00
Cu568  Cu    0.74500   0.49421   0.43854   0.00000  Uiso   1.00
H569   H     0.88148   0.42148   0.45617   0.00000  Uiso   1.00
H570   H     0.99322   0.33882   0.56780   0.00000  Uiso   1.00
H571   H     0.81654   0.63104   0.36113   0.00000  Uiso   1.00
H572   H     0.68343   0.36898   0.63882   0.00000  Uiso   1.00
H573   H     0.61852   0.57851   0.54384   0.00000  Uiso   1.00
H574   H     0.94562   0.37236   0.44095   0.00000  Uiso   1.00
H575   H     0.55438   0.62764   0.55906   0.00000  Uiso   1.00
H576   H     0.71361   0.46128   0.64987   0.00000  Uiso   1.00
H577   H     0.78639   0.53872   0.35013   0.00000  Uiso   1.00
H578   H     0.87836   0.65161   0.62718   0.00000  Uiso   1.00
H579   H     0.62162   0.34840   0.37278   0.00000  Uiso   1.00
H580   H     0.50678   0.66117   0.43221   0.00000  Uiso   1.00
N581   N     0.73745   0.48547   0.34617   0.00000  Uiso   1.00
N582   N     0.76256   0.51453   0.65383   0.00000  Uiso   1.00
O583   O     0.75326   0.42871   0.53992   0.00000  Uiso   1.00
O584   O     0.89569   0.61955   0.61337   0.00000  Uiso   1.00
O585   O     0.63951   0.38413   0.48114   0.00000  Uiso   1.00
O586   O     0.60429   0.38046   0.38660   0.00000  Uiso   1.00
O587   O     0.53147   0.35553   0.44398   0.00000  Uiso   1.00
O588   O     0.96853   0.64447   0.55603   0.00000  Uiso   1.00
O589   O     0.73741   0.63246   0.37367   0.00000  Uiso   1.00
O590   O     0.81160   0.64944   0.40490   0.00000  Uiso   1.00
O591   O     0.76256   0.36752   0.62634   0.00000  Uiso   1.00
O592   O     0.68837   0.35058   0.59506   0.00000  Uiso   1.00
O593   O     0.74675   0.57129   0.46008   0.00000  Uiso   1.00
O594   O     0.74480   0.41892   0.43612   0.00000  Uiso   1.00
O595   O     0.75520   0.58108   0.56388   0.00000  Uiso   1.00
O596   O     0.68936   0.50488   0.55191   0.00000  Uiso   1.00
O597   O     0.81065   0.49512   0.44809   0.00000  Uiso   1.00
O598   O     0.68090   0.49510   0.44810   0.00000  Uiso   1.00
O599   O     0.81910   0.50490   0.55190   0.00000  Uiso   1.00
O600   O     0.86051   0.61588   0.51881   0.00000  Uiso   1.00
C601   C     0.24922   0.73354   0.48466   0.00000  Uiso   1.00
C602   C     0.09009   0.78335   0.47783   0.00000  Uiso   1.00
C603   C     0.38354   0.83661   0.49732   0.00000  Uiso   1.00
C604   C     0.11646   0.83005   0.50268   0.00000  Uiso   1.00
C605   C     0.40280   0.79027   0.47398   0.00000  Uiso   1.00
C606   C     0.09720   0.87639   0.52602   0.00000  Uiso   1.00
C607   C     0.44899   0.78861   0.47631   0.00000  Uiso   1.00
C608   C     0.05101   0.87805   0.52369   0.00000  Uiso   1.00
C609   C     0.47657   0.83466   0.49953   0.00000  Uiso   1.00
C610   C     0.02343   0.83200   0.50048   0.00000  Uiso   1.00
C611   C     0.45728   0.88315   0.52154   0.00000  Uiso   1.00
C612   C     0.25078   0.93313   0.51534   0.00000  Uiso   1.00
C613   C     0.04272   0.78351   0.47846   0.00000  Uiso   1.00
C614   C     0.46756   0.74083   0.45685   0.00000  Uiso   1.00
C615   C     0.03245   0.92583   0.54316   0.00000  Uiso   1.00
C616   C     0.38716   0.93055   0.55041   0.00000  Uiso   1.00
C617   C     0.11284   0.73612   0.44956   0.00000  Uiso   1.00
C618   C     0.26621   0.98490   0.41510   0.00000  Uiso   1.00
C619   C     0.23377   0.68177   0.58489   0.00000  Uiso   1.00
C620   C     0.01404   0.73728   0.45886   0.00000  Uiso   1.00
C621   C     0.48596   0.92939   0.54114   0.00000  Uiso   1.00
C622   C     0.25280   0.67848   0.47635   0.00000  Uiso   1.00
C623   C     0.24719   0.98818   0.52364   0.00000  Uiso   1.00
C624   C     0.16460   0.83234   0.50084   0.00000  Uiso   1.00
C625   C     0.33540   0.83433   0.49916   0.00000  Uiso   1.00
C626   C     0.40991   0.88332   0.52216   0.00000  Uiso   1.00
Cu627  Cu    0.25501   0.83913   0.56146   0.00000  Uiso   1.00
Cu628  Cu    0.24500   0.82754   0.43854   0.00000  Uiso   1.00
H629   H     0.38148   0.75482   0.45617   0.00000  Uiso   1.00
H630   H     0.49322   0.67216   0.56780   0.00000  Uiso   1.00
H631   H     0.31654   0.96437   0.36113   0.00000  Uiso   1.00
H632   H     0.18343   0.70231   0.63882   0.00000  Uiso   1.00
H633   H     0.11852   0.91185   0.54384   0.00000  Uiso   1.00
H634   H     0.44562   0.70569   0.44095   0.00000  Uiso   1.00
H635   H     0.05438   0.96097   0.55906   0.00000  Uiso   1.00
H636   H     0.21361   0.79461   0.64987   0.00000  Uiso   1.00
H637   H     0.28639   0.87206   0.35013   0.00000  Uiso   1.00
H638   H     0.37836   0.98495   0.62718   0.00000  Uiso   1.00
H639   H     0.12162   0.68173   0.37278   0.00000  Uiso   1.00
H640   H     0.00678   0.99451   0.43221   0.00000  Uiso   1.00
N641   N     0.23745   0.81881   0.34617   0.00000  Uiso   1.00
N642   N     0.26256   0.84786   0.65383   0.00000  Uiso   1.00
O643   O     0.25326   0.76204   0.53992   0.00000  Uiso   1.00
O644   O     0.39569   0.95288   0.61337   0.00000  Uiso   1.00
O645   O     0.13951   0.71746   0.48114   0.00000  Uiso   1.00
O646   O     0.10429   0.71379   0.38660   0.00000  Uiso   1.00
O647   O     0.03147   0.68886   0.44398   0.00000  Uiso   1.00
O648   O     0.46853   0.97780   0.55603   0.00000  Uiso   1.00
O649   O     0.23741   0.96579   0.37367   0.00000  Uiso   1.00
O650   O     0.31160   0.98277   0.40490   0.00000  Uiso   1.00
O651   O     0.26256   0.70085   0.62634   0.00000  Uiso   1.00
O652   O     0.18837   0.68391   0.59506   0.00000  Uiso   1.00
O653   O     0.24675   0.90462   0.46008   0.00000  Uiso   1.00
O654   O     0.24480   0.75226   0.43612   0.00000  Uiso   1.00
O655   O     0.25520   0.91441   0.56388   0.00000  Uiso   1.00
O656   O     0.18936   0.83821   0.55191   0.00000  Uiso   1.00
O657   O     0.31065   0.82845   0.44809   0.00000  Uiso   1.00
O658   O     0.18090   0.82843   0.44810   0.00000  Uiso   1.00
O659   O     0.31910   0.83824   0.55190   0.00000  Uiso   1.00
O660   O     0.36051   0.94921   0.51881   0.00000  Uiso   1.00
C661   C     0.74922   0.73354   0.48466   0.00000  Uiso   1.00
C662   C     0.59009   0.78335   0.47783   0.00000  Uiso   1.00
C663   C     0.88354   0.83661   0.49732   0.00000  Uiso   1.00
C664   C     0.61646   0.83005   0.50268   0.00000  Uiso   1.00
C665   C     0.90280   0.79027   0.47398   0.00000  Uiso   1.00
C666   C     0.59720   0.87639   0.52602   0.00000  Uiso   1.00
C667   C     0.94899   0.78861   0.47631   0.00000  Uiso   1.00
C668   C     0.55101   0.87805   0.52369   0.00000  Uiso   1.00
C669   C     0.97657   0.83466   0.49953   0.00000  Uiso   1.00
C670   C     0.52343   0.83200   0.50048   0.00000  Uiso   1.00
C671   C     0.95728   0.88315   0.52154   0.00000  Uiso   1.00
C672   C     0.75078   0.93313   0.51534   0.00000  Uiso   1.00
C673   C     0.54272   0.78351   0.47846   0.00000  Uiso   1.00
C674   C     0.96756   0.74083   0.45685   0.00000  Uiso   1.00
C675   C     0.53245   0.92583   0.54316   0.00000  Uiso   1.00
C676   C     0.88716   0.93055   0.55041   0.00000  Uiso   1.00
C677   C     0.61284   0.73612   0.44956   0.00000  Uiso   1.00
C678   C     0.76621   0.98490   0.41510   0.00000  Uiso   1.00
C679   C     0.73377   0.68177   0.58489   0.00000  Uiso   1.00
C680   C     0.51404   0.73728   0.45886   0.00000  Uiso   1.00
C681   C     0.98596   0.92939   0.54114   0.00000  Uiso   1.00
C682   C     0.75280   0.67848   0.47635   0.00000  Uiso   1.00
C683   C     0.74719   0.98818   0.52364   0.00000  Uiso   1.00
C684   C     0.66460   0.83234   0.50084   0.00000  Uiso   1.00
C685   C     0.83540   0.83433   0.49916   0.00000  Uiso   1.00
C686   C     0.90991   0.88332   0.52216   0.00000  Uiso   1.00
Cu687  Cu    0.75501   0.83913   0.56146   0.00000  Uiso   1.00
Cu688  Cu    0.74500   0.82754   0.43854   0.00000  Uiso   1.00
H689   H     0.88148   0.75482   0.45617   0.00000  Uiso   1.00
H690   H     0.99322   0.67216   0.56780   0.00000  Uiso   1.00
H691   H     0.81654   0.96437   0.36113   0.00000  Uiso   1.00
H692   H     0.68343   0.70231   0.63882   0.00000  Uiso   1.00
H693   H     0.61852   0.91185   0.54384   0.00000  Uiso   1.00
H694   H     0.94562   0.70569   0.44095   0.00000  Uiso   1.00
H695   H     0.55438   0.96097   0.55906   0.00000  Uiso   1.00
H696   H     0.71361   0.79461   0.64987   0.00000  Uiso   1.00
H697   H     0.78639   0.87206   0.35013   0.00000  Uiso   1.00
H698   H     0.87836   0.98495   0.62718   0.00000  Uiso   1.00
H699   H     0.62162   0.68173   0.37278   0.00000  Uiso   1.00
H700   H     0.50678   0.99451   0.43221   0.00000  Uiso   1.00
N701   N     0.73745   0.81881   0.34617   0.00000  Uiso   1.00
N702   N     0.76256   0.84786   0.65383   0.00000  Uiso   1.00
O703   O     0.75326   0.76204   0.53992   0.00000  Uiso   1.00
O704   O     0.89569   0.95288   0.61337   0.00000  Uiso   1.00
O705   O     0.63951   0.71746   0.48114   0.00000  Uiso   1.00
O706   O     0.60429   0.71379   0.38660   0.00000  Uiso   1.00
O707   O     0.53147   0.68886   0.44398   0.00000  Uiso   1.00
O708   O     0.96853   0.97780   0.55603   0.00000  Uiso   1.00
O709   O     0.73741   0.96579   0.37367   0.00000  Uiso   1.00
O710   O     0.81160   0.98277   0.40490   0.00000  Uiso   1.00
O711   O     0.76256   0.70085   0.62634   0.00000  Uiso   1.00
O712   O     0.68837   0.68391   0.59506   0.00000  Uiso   1.00
O713   O     0.74675   0.90462   0.46008   0.00000  Uiso   1.00
O714   O     0.74480   0.75226   0.43612   0.00000  Uiso   1.00
O715   O     0.75520   0.91441   0.56388   0.00000  Uiso   1.00
O716   O     0.68936   0.83821   0.55191   0.00000  Uiso   1.00
O717   O     0.81065   0.82845   0.44809   0.00000  Uiso   1.00
O718   O     0.68090   0.82843   0.44810   0.00000  Uiso   1.00
O719   O     0.81910   0.83824   0.55190   0.00000  Uiso   1.00
O720   O     0.86051   0.94921   0.51881   0.00000  Uiso   1.00
C721   C     0.24922   0.06687   0.81799   0.00000  Uiso   1.00
C722   C     0.09009   0.11668   0.81117   0.00000  Uiso   1.00
C723   C     0.38354   0.16995   0.83065   0.00000  Uiso   1.00
C724   C     0.11646   0.16338   0.83601   0.00000  Uiso   1.00
C725   C     0.40280   0.12361   0.80732   0.00000  Uiso   1.00
C726   C     0.09720   0.20972   0.85936   0.00000  Uiso   1.00
C727   C     0.44899   0.12195   0.80965   0.00000  Uiso   1.00
C728   C     0.05101   0.21138   0.85703   0.00000  Uiso   1.00
C729   C     0.47657   0.16799   0.83286   0.00000  Uiso   1.00
C730   C     0.02343   0.16534   0.83381   0.00000  Uiso   1.00
C731   C     0.45728   0.21648   0.85488   0.00000  Uiso   1.00
C732   C     0.25078   0.26646   0.84868   0.00000  Uiso   1.00
C733   C     0.04272   0.11685   0.81179   0.00000  Uiso   1.00
C734   C     0.46756   0.07416   0.79019   0.00000  Uiso   1.00
C735   C     0.03245   0.25917   0.87649   0.00000  Uiso   1.00
C736   C     0.38716   0.26389   0.88375   0.00000  Uiso   1.00
C737   C     0.11284   0.06945   0.78290   0.00000  Uiso   1.00
C738   C     0.26621   0.31823   0.74843   0.00000  Uiso   1.00
C739   C     0.23377   0.01510   0.91822   0.00000  Uiso   1.00
C740   C     0.01404   0.07061   0.79220   0.00000  Uiso   1.00
C741   C     0.48596   0.26272   0.87448   0.00000  Uiso   1.00
C742   C     0.25280   0.01182   0.80969   0.00000  Uiso   1.00
C743   C     0.24719   0.32152   0.85698   0.00000  Uiso   1.00
C744   C     0.16460   0.16567   0.83417   0.00000  Uiso   1.00
C745   C     0.33540   0.16766   0.83250   0.00000  Uiso   1.00
C746   C     0.40991   0.21665   0.85549   0.00000  Uiso   1.00
Cu747  Cu    0.25501   0.17246   0.89479   0.00000  Uiso   1.00
Cu748  Cu    0.24500   0.16087   0.77187   0.00000  Uiso   1.00
H749   H     0.38148   0.08815   0.78951   0.00000  Uiso   1.00
H750   H     0.49322   0.00549   0.90113   0.00000  Uiso   1.00
H751   H     0.31654   0.29770   0.69447   0.00000  Uiso   1.00
H752   H     0.18343   0.03565   0.97216   0.00000  Uiso   1.00
H753   H     0.11852   0.24518   0.87717   0.00000  Uiso   1.00
H754   H     0.44562   0.03903   0.77428   0.00000  Uiso   1.00
H755   H     0.05438   0.29430   0.89240   0.00000  Uiso   1.00
H756   H     0.21361   0.12794   0.98320   0.00000  Uiso   1.00
H757   H     0.28639   0.20539   0.68347   0.00000  Uiso   1.00
H758   H     0.37836   0.31828   0.96051   0.00000  Uiso   1.00
H759   H     0.12162   0.01506   0.70612   0.00000  Uiso   1.00
H760   H     0.00678   0.32784   0.76554   0.00000  Uiso   1.00
N761   N     0.23745   0.15214   0.67951   0.00000  Uiso   1.00
N762   N     0.26256   0.18119   0.98716   0.00000  Uiso   1.00
O763   O     0.25326   0.09538   0.87326   0.00000  Uiso   1.00
O764   O     0.39569   0.28622   0.94671   0.00000  Uiso   1.00
O765   O     0.13951   0.05079   0.81448   0.00000  Uiso   1.00
O766   O     0.10429   0.04712   0.71993   0.00000  Uiso   1.00
O767   O     0.03147   0.02220   0.77731   0.00000  Uiso   1.00
O768   O     0.46853   0.31113   0.88937   0.00000  Uiso   1.00
O769   O     0.23741   0.29913   0.70700   0.00000  Uiso   1.00
O770   O     0.31160   0.31611   0.73823   0.00000  Uiso   1.00
O771   O     0.26256   0.03418   0.95967   0.00000  Uiso   1.00
O772   O     0.18837   0.01725   0.92839   0.00000  Uiso   1.00
O773   O     0.24675   0.23796   0.79341   0.00000  Uiso   1.00
O774   O     0.24480   0.08559   0.76945   0.00000  Uiso   1.00
O775   O     0.25520   0.24774   0.89721   0.00000  Uiso   1.00
O776   O     0.18936   0.17155   0.88524   0.00000  Uiso   1.00
O777   O     0.31065   0.16179   0.78143   0.00000  Uiso   1.00
O778   O     0.18090   0.16176   0.78143   0.00000  Uiso   1.00
O779   O     0.31910   0.17157   0.88523   0.00000  Uiso   1.00
O780   O     0.36051   0.28255   0.85215   0.00000  Uiso   1.00
C781   C     0.74922   0.06687   0.81799   0.00000  Uiso   1.00
C782   C     0.59009   0.11668   0.81117   0.00000  Uiso   1.00
C783   C     0.88354   0.16995   0.83065   0.00000  Uiso   1.00
C784   C     0.61646   0.16338   0.83601   0.00000  Uiso   1.00
C785   C     0.90280   0.12361   0.80732   0.00000  Uiso   1.00
C786   C     0.59720   0.20972   0.85936   0.00000  Uiso   1.00
C787   C     0.94899   0.12195   0.80965   0.00000  Uiso   1.00
C788   C     0.55101   0.21138   0.85703   0.00000  Uiso   1.00
C789   C     0.97657   0.16799   0.83286   0.00000  Uiso   1.00
C790   C     0.52343   0.16534   0.83381   0.00000  Uiso   1.00
C791   C     0.95728   0.21648   0.85488   0.00000  Uiso   1.00
C792   C     0.75078   0.26646   0.84868   0.00000  Uiso   1.00
C793   C     0.54272   0.11685   0.81179   0.00000  Uiso   1.00
C794   C     0.96756   0.07416   0.79019   0.00000  Uiso   1.00
C795   C     0.53245   0.25917   0.87649   0.00000  Uiso   1.00
C796   C     0.88716   0.26389   0.88375   0.00000  Uiso   1.00
C797   C     0.61284   0.06945   0.78290   0.00000  Uiso   1.00
C798   C     0.76621   0.31823   0.74843   0.00000  Uiso   1.00
C799   C     0.73377   0.01510   0.91822   0.00000  Uiso   1.00
C800   C     0.51404   0.07061   0.79220   0.00000  Uiso   1.00
C801   C     0.98596   0.26272   0.87448   0.00000  Uiso   1.00
C802   C     0.75280   0.01182   0.80969   0.00000  Uiso   1.00
C803   C     0.74719   0.32152   0.85698   0.00000  Uiso   1.00
C804   C     0.66460   0.16567   0.83417   0.00000  Uiso   1.00
C805   C     0.83540   0.16766   0.83250   0.00000  Uiso   1.00
C806   C     0.90991   0.21665   0.85549   0.00000  Uiso   1.00
Cu807  Cu    0.75501   0.17246   0.89479   0.00000  Uiso   1.00
Cu808  Cu    0.74500   0.16087   0.77187   0.00000  Uiso   1.00
H809   H     0.88148   0.08815   0.78951   0.00000  Uiso   1.00
H810   H     0.99322   0.00549   0.90113   0.00000  Uiso   1.00
H811   H     0.81654   0.29770   0.69447   0.00000  Uiso   1.00
H812   H     0.68343   0.03565   0.97216   0.00000  Uiso   1.00
H813   H     0.61852   0.24518   0.87717   0.00000  Uiso   1.00
H814   H     0.94562   0.03903   0.77428   0.00000  Uiso   1.00
H815   H     0.55438   0.29430   0.89240   0.00000  Uiso   1.00
H816   H     0.71361   0.12794   0.98320   0.00000  Uiso   1.00
H817   H     0.78639   0.20539   0.68347   0.00000  Uiso   1.00
H818   H     0.87836   0.31828   0.96051   0.00000  Uiso   1.00
H819   H     0.62162   0.01506   0.70612   0.00000  Uiso   1.00
H820   H     0.50678   0.32784   0.76554   0.00000  Uiso   1.00
N821   N     0.73745   0.15214   0.67951   0.00000  Uiso   1.00
N822   N     0.76256   0.18119   0.98716   0.00000  Uiso   1.00
O823   O     0.75326   0.09538   0.87326   0.00000  Uiso   1.00
O824   O     0.89569   0.28622   0.94671   0.00000  Uiso   1.00
O825   O     0.63951   0.05079   0.81448   0.00000  Uiso   1.00
O826   O     0.60429   0.04712   0.71993   0.00000  Uiso   1.00
O827   O     0.53147   0.02220   0.77731   0.00000  Uiso   1.00
O828   O     0.96853   0.31113   0.88937   0.00000  Uiso   1.00
O829   O     0.73741   0.29913   0.70700   0.00000  Uiso   1.00
O830   O     0.81160   0.31611   0.73823   0.00000  Uiso   1.00
O831   O     0.76256   0.03418   0.95967   0.00000  Uiso   1.00
O832   O     0.68837   0.01725   0.92839   0.00000  Uiso   1.00
O833   O     0.74675   0.23796   0.79341   0.00000  Uiso   1.00
O834   O     0.74480   0.08559   0.76945   0.00000  Uiso   1.00
O835   O     0.75520   0.24774   0.89721   0.00000  Uiso   1.00
O836   O     0.68936   0.17155   0.88524   0.00000  Uiso   1.00
O837   O     0.81065   0.16179   0.78143   0.00000  Uiso   1.00
O838   O     0.68090   0.16176   0.78143   0.00000  Uiso   1.00
O839   O     0.81910   0.17157   0.88523   0.00000  Uiso   1.00
O840   O     0.86051   0.28255   0.85215   0.00000  Uiso   1.00
C841   C     0.24922   0.40021   0.81799   0.00000  Uiso   1.00
C842   C     0.09009   0.45002   0.81117   0.00000  Uiso   1.00
C843   C     0.38354   0.50328   0.83065   0.00000  Uiso   1.00
C844   C     0.11646   0.49672   0.83601   0.00000  Uiso   1.00
C845   C     0.40280   0.45694   0.80732   0.00000  Uiso   1.00
C846   C     0.09720   0.54306   0.85936   0.00000  Uiso   1.00
C847   C     0.44899   0.45528   0.80965   0.00000  Uiso   1.00
C848   C     0.05101   0.54472   0.85703   0.00000  Uiso   1.00
C849   C     0.47657   0.50133   0.83286   0.00000  Uiso   1.00
C850   C     0.02343   0.49867   0.83381   0.00000  Uiso   1.00
C851   C     0.45728   0.54982   0.85488   0.00000  Uiso   1.00
C852   C     0.25078   0.59979   0.84868   0.00000  Uiso   1.00
C853   C     0.04272   0.45018   0.81179   0.00000  Uiso   1.00
C854   C     0.46756   0.40750   0.79019   0.00000  Uiso   1.00
C855   C     0.03245   0.59250   0.87649   0.00000  Uiso   1.00
C856   C     0.38716   0.59722   0.88375   0.00000  Uiso   1.00
C857   C     0.11284   0.40279   0.78290   0.00000  Uiso   1.00
C858   C     0.26621   0.65156   0.74843   0.00000  Uiso   1.00
C859   C     0.23377   0.34843   0.91822   0.00000  Uiso   1.00
C860   C     0.01404   0.40395   0.79220   0.00000  Uiso   1.00
C861   C     0.48596   0.59605   0.87448   0.00000  Uiso   1.00
C862   C     0.25280   0.34515   0.80969   0.00000  Uiso   1.00
C863   C     0.24719   0.65485   0.85698   0.00000  Uiso   1.00
C864   C     0.16460   0.49901   0.83417   0.00000  Uiso   1.00
C865   C     0.33540   0.50099   0.83250   0.00000  Uiso   1.00
C866   C     0.40991   0.54998   0.85549   0.00000  Uiso   1.00
Cu867  Cu    0.25501   0.50579   0.89479   0.00000  Uiso   1.00
Cu868  Cu    0.24500   0.49421   0.77187   0.00000  Uiso   1.00
H869   H     0.38148   0.42148   0.78951   0.00000  Uiso   1.00
H870   H     0.49322   0.33882   0.90113   0.00000  Uiso   1.00
H871   H     0.31654   0.63104   0.69447   0.00000  Uiso   1.00
H872   H     0.18343   0.36898   0.97216   0.00000  Uiso   1.00
H873   H     0.11852   0.57851   0.87717   0.00000  Uiso   1.00
H874   H     0.44562   0.37236   0.77428   0.00000  Uiso   1.00
H875   H     0.05438   0.62764   0.89240   0.00000  Uiso   1.00
H876   H     0.21361   0.46128   0.98320   0.00000  Uiso   1.00
H877   H     0.28639   0.53872   0.68347   0.00000  Uiso   1.00
H878   H     0.37836   0.65161   0.96051   0.00000  Uiso   1.00
H879   H     0.12162   0.34840   0.70612   0.00000  Uiso   1.00
H880   H     0.00678   0.66117   0.76554   0.00000  Uiso   1.00
N881   N     0.23745   0.48547   0.67951   0.00000  Uiso   1.00
N882   N     0.26256   0.51453   0.98716   0.00000  Uiso   1.00
O883   O     0.25326   0.42871   0.87326   0.00000  Uiso   1.00
O884   O     0.39569   0.61955   0.94671   0.00000  Uiso   1.00
O885   O     0.13951   0.38413   0.81448   0.00000  Uiso   1.00
O886   O     0.10429   0.38046   0.71993   0.00000  Uiso   1.00
O887   O     0.03147   0.35553   0.77731   0.00000  Uiso   1.00
O888   O     0.46853   0.64447   0.88937   0.00000  Uiso   1.00
O889   O     0.23741   0.63246   0.70700   0.00000  Uiso   1.00
O890   O     0.31160   0.64944   0.73823   0.00000  Uiso   1.00
O891   O     0.26256   0.36752   0.95967   0.00000  Uiso   1.00
O892   O     0.18837   0.35058   0.92839   0.00000  Uiso   1.00
O893   O     0.24675   0.57129   0.79341   0.00000  Uiso   1.00
O894   O     0.24480   0.41892   0.76945   0.00000  Uiso   1.00
O895   O     0.25520   0.58108   0.89721   0.00000  Uiso   1.00
O896   O     0.18936   0.50488   0.88524   0.00000  Uiso   1.00
O897   O     0.31065   0.49512   0.78143   0.00000  Uiso   1.00
O898   O     0.18090   0.49510   0.78143   0.00000  Uiso   1.00
O899   O     0.31910   0.50490   0.88523   0.00000  Uiso   1.00
O900   O     0.36051   0.61588   0.85215   0.00000  Uiso   1.00
C901   C     0.74922   0.40021   0.81799   0.00000  Uiso   1.00
C902   C     0.59009   0.45002   0.81117   0.00000  Uiso   1.00
C903   C     0.88354   0.50328   0.83065   0.00000  Uiso   1.00
C904   C     0.61646   0.49672   0.83601   0.00000  Uiso   1.00
C905   C     0.90280   0.45694   0.80732   0.00000  Uiso   1.00
C906   C     0.59720   0.54306   0.85936   0.00000  Uiso   1.00
C907   C     0.94899   0.45528   0.80965   0.00000  Uiso   1.00
C908   C     0.55101   0.54472   0.85703   0.00000  Uiso   1.00
C909   C     0.97657   0.50133   0.83286   0.00000  Uiso   1.00
C910   C     0.52343   0.49867   0.83381   0.00000  Uiso   1.00
C911   C     0.95728   0.54982   0.85488   0.00000  Uiso   1.00
C912   C     0.75078   0.59979   0.84868   0.00000  Uiso   1.00
C913   C     0.54272   0.45018   0.81179   0.00000  Uiso   1.00
C914   C     0.96756   0.40750   0.79019   0.00000  Uiso   1.00
C915   C     0.53245   0.59250   0.87649   0.00000  Uiso   1.00
C916   C     0.88716   0.59722   0.88375   0.00000  Uiso   1.00
C917   C     0.61284   0.40279   0.78290   0.00000  Uiso   1.00
C918   C     0.76621   0.65156   0.74843   0.00000  Uiso   1.00
C919   C     0.73377   0.34843   0.91822   0.00000  Uiso   1.00
C920   C     0.51404   0.40395   0.79220   0.00000  Uiso   1.00
C921   C     0.98596   0.59605   0.87448   0.00000  Uiso   1.00
C922   C     0.75280   0.34515   0.80969   0.00000  Uiso   1.00
C923   C     0.74719   0.65485   0.85698   0.00000  Uiso   1.00
C924   C     0.66460   0.49901   0.83417   0.00000  Uiso   1.00
C925   C     0.83540   0.50099   0.83250   0.00000  Uiso   1.00
C926   C     0.90991   0.54998   0.85549   0.00000  Uiso   1.00
Cu927  Cu    0.75501   0.50579   0.89479   0.00000  Uiso   1.00
Cu928  Cu    0.74500   0.49421   0.77187   0.00000  Uiso   1.00
H929   H     0.88148   0.42148   0.78951   0.00000  Uiso   1.00
H930   H     0.99322   0.33882   0.90113   0.00000  Uiso   1.00
H931   H     0.81654   0.63104   0.69447   0.00000  Uiso   1.00
H932   H     0.68343   0.36898   0.97216   0.00000  Uiso   1.00
H933   H     0.61852   0.57851   0.87717   0.00000  Uiso   1.00
H934   H     0.94562   0.37236   0.77428   0.00000  Uiso   1.00
H935   H     0.55438   0.62764   0.89240   0.00000  Uiso   1.00
H936   H     0.71361   0.46128   0.98320   0.00000  Uiso   1.00
H937   H     0.78639   0.53872   0.68347   0.00000  Uiso   1.00
H938   H     0.87836   0.65161   0.96051   0.00000  Uiso   1.00
H939   H     0.62162   0.34840   0.70612   0.00000  Uiso   1.00
H940   H     0.50678   0.66117   0.76554   0.00000  Uiso   1.00
N941   N     0.73745   0.48547   0.67951   0.00000  Uiso   1.00
N942   N     0.76256   0.51453   0.98716   0.00000  Uiso   1.00
O943   O     0.75326   0.42871   0.87326   0.00000  Uiso   1.00
O944   O     0.89569   0.61955   0.94671   0.00000  Uiso   1.00
O945   O     0.63951   0.38413   0.81448   0.00000  Uiso   1.00
O946   O     0.60429   0.38046   0.71993   0.00000  Uiso   1.00
O947   O     0.53147   0.35553   0.77731   0.00000  Uiso   1.00
O948   O     0.96853   0.64447   0.88937   0.00000  Uiso   1.00
O949   O     0.73741   0.63246   0.70700   0.00000  Uiso   1.00
O950   O     0.81160   0.64944   0.73823   0.00000  Uiso   1.00
O951   O     0.76256   0.36752   0.95967   0.00000  Uiso   1.00
O952   O     0.68837   0.35058   0.92839   0.00000  Uiso   1.00
O953   O     0.74675   0.57129   0.79341   0.00000  Uiso   1.00
O954   O     0.74480   0.41892   0.76945   0.00000  Uiso   1.00
O955   O     0.75520   0.58108   0.89721   0.00000  Uiso   1.00
O956   O     0.68936   0.50488   0.88524   0.00000  Uiso   1.00
O957   O     0.81065   0.49512   0.78143   0.00000  Uiso   1.00
O958   O     0.68090   0.49510   0.78143   0.00000  Uiso   1.00
O959   O     0.81910   0.50490   0.88523   0.00000  Uiso   1.00
O960   O     0.86051   0.61588   0.85215   0.00000  Uiso   1.00
C961   C     0.24922   0.73354   0.81799   0.00000  Uiso   1.00
C962   C     0.09009   0.78335   0.81117   0.00000  Uiso   1.00
C963   C     0.38354   0.83661   0.83065   0.00000  Uiso   1.00
C964   C     0.11646   0.83005   0.83601   0.00000  Uiso   1.00
C965   C     0.40280   0.79027   0.80732   0.00000  Uiso   1.00
C966   C     0.09720   0.87639   0.85936   0.00000  Uiso   1.00
C967   C     0.44899   0.78861   0.80965   0.00000  Uiso   1.00
C968   C     0.05101   0.87805   0.85703   0.00000  Uiso   1.00
C969   C     0.47657   0.83466   0.83286   0.00000  Uiso   1.00
C970   C     0.02343   0.83200   0.83381   0.00000  Uiso   1.00
C971   C     0.45728   0.88315   0.85488   0.00000  Uiso   1.00
C972   C     0.25078   0.93313   0.84868   0.00000  Uiso   1.00
C973   C     0.04272   0.78351   0.81179   0.00000  Uiso   1.00
C974   C     0.46756   0.74083   0.79019   0.00000  Uiso   1.00
C975   C     0.03245   0.92583   0.87649   0.00000  Uiso   1.00
C976   C     0.38716   0.93055   0.88375   0.00000  Uiso   1.00
C977   C     0.11284   0.73612   0.78290   0.00000  Uiso   1.00
C978   C     0.26621   0.98490   0.74843   0.00000  Uiso   1.00
C979   C     0.23377   0.68177   0.91822   0.00000  Uiso   1.00
C980   C     0.01404   0.73728   0.79220   0.00000  Uiso   1.00
C981   C     0.48596   0.92939   0.87448   0.00000  Uiso   1.00
C982   C     0.25280   0.67848   0.80969   0.00000  Uiso   1.00
C983   C     0.24719   0.98818   0.85698   0.00000  Uiso   1.00
C984   C     0.16460   0.83234   0.83417   0.00000  Uiso   1.00
C985   C     0.33540   0.83433   0.83250   0.00000  Uiso   1.00
C986   C     0.40991   0.88332   0.85549   0.00000  Uiso   1.00
Cu987  Cu    0.25501   0.83913   0.89479   0.00000  Uiso   1.00
Cu988  Cu    0.24500   0.82754   0.77187   0.00000  Uiso   1.00
H989   H     0.38148   0.75482   0.78951   0.00000  Uiso   1.00
H990   H     0.49322   0.67216   0.90113   0.00000  Uiso   1.00
H991   H     0.31654   0.96437   0.69447   0.00000  Uiso   1.00
H992   H     0.18343   0.70231   0.97216   0.00000  Uiso   1.00
H993   H     0.11852   0.91185   0.87717   0.00000  Uiso   1.00
H994   H     0.44562   0.70569   0.77428   0.00000  Uiso   1.00
H995   H     0.05438   0.96097   0.89240   0.00000  Uiso   1.00
H996   H     0.21361   0.79461   0.98320   0.00000  Uiso   1.00
H997   H     0.28639   0.87206   0.68347   0.00000  Uiso   1.00
H998   H     0.37836   0.98495   0.96051   0.00000  Uiso   1.00
H999   H     0.12162   0.68173   0.70612   0.00000  Uiso   1.00
H1000  H     0.00678   0.99451   0.76554   0.00000  Uiso   1.00
N1001  N     0.23745   0.81881   0.67951   0.00000  Uiso   1.00
N1002  N     0.26256   0.84786   0.98716   0.00000  Uiso   1.00
O1003  O     0.25326   0.76204   0.87326   0.00000  Uiso   1.00
O1004  O     0.39569   0.95288   0.94671   0.00000  Uiso   1.00
O1005  O     0.13951   0.71746   0.81448   0.00000  Uiso   1.00
O1006  O     0.10429   0.71379   0.71993   0.00000  Uiso   1.00
O1007  O     0.03147   0.68886   0.77731   0.00000  Uiso   1.00
O1008  O     0.46853   0.97780   0.88937   0.00000  Uiso   1.00
O1009  O     0.23741   0.96579   0.70700   0.00000  Uiso   1.00
O1010  O     0.31160   0.98277   0.73823   0.00000  Uiso   1.00
O1011  O     0.26256   0.70085   0.95967   0.00000  Uiso   1.00
O1012  O     0.18837   0.68391   0.92839   0.00000  Uiso   1.00
O1013  O     0.24675   0.90462   0.79341   0.00000  Uiso   1.00
O1014  O     0.24480   0.75226   0.76945   0.00000  Uiso   1.00
O1015  O     0.25520   0.91441   0.89721   0.00000  Uiso   1.00
O1016  O     0.18936   0.83821   0.88524   0.00000  Uiso   1.00
O1017  O     0.31065   0.82845   0.78143   0.00000  Uiso   1.00
O1018  O     0.18090   0.82843   0.78143   0.00000  Uiso   1.00
O1019  O     0.31910   0.83824   0.88523   0.00000  Uiso   1.00
O1020  O     0.36051   0.94921   0.85215   0.00000  Uiso   1.00
C1021  C     0.74922   0.73354   0.81799   0.00000  Uiso   1.00
C1022  C     0.59009   0.78335   0.81117   0.00000  Uiso   1.00
C1023  C     0.88354   0.83661   0.83065   0.00000  Uiso   1.00
C1024  C     0.61646   0.83005   0.83601   0.00000  Uiso   1.00
C1025  C     0.90280   0.79027   0.80732   0.00000  Uiso   1.00
C1026  C     0.59720   0.87639   0.85936   0.00000  Uiso   1.00
C1027  C     0.94899   0.78861   0.80965   0.00000  Uiso   1.00
C1028  C     0.55101   0.87805   0.85703   0.00000  Uiso   1.00
C1029  C     0.97657   0.83466   0.83286   0.00000  Uiso   1.00
C1030  C     0.52343   0.83200   0.83381   0.00000  Uiso   1.00
C1031  C     0.95728   0.88315   0.85488   0.00000  Uiso   1.00
C1032  C     0.75078   0.93313   0.84868   0.00000  Uiso   1.00
C1033  C     0.54272   0.78351   0.81179   0.00000  Uiso   1.00
C1034  C     0.96756   0.74083   0.79019   0.00000  Uiso   1.00
C1035  C     0.53245   0.92583   0.87649   0.00000  Uiso   1.00
C1036  C     0.88716   0.93055   0.88375   0.00000  Uiso   1.00
C1037  C     0.61284   0.73612   0.78290   0.00000  Uiso   1.00
C1038  C     0.76621   0.98490   0.74843   0.00000  Uiso   1.00
C1039  C     0.73377   0.68177   0.91822   0.00000  Uiso   1.00
C1040  C     0.51404   0.73728   0.79220   0.00000  Uiso   1.00
C1041  C     0.98596   0.92939   0.87448   0.00000  Uiso   1.00
C1042  C     0.75280   0.67848   0.80969   0.00000  Uiso   1.00
C1043  C     0.74719   0.98818   0.85698   0.00000  Uiso   1.00
C1044  C     0.66460   0.83234   0.83417   0.00000  Uiso   1.00
C1045  C     0.83540   0.83433   0.83250   0.00000  Uiso   1.00
C1046  C     0.90991   0.88332   0.85549   0.00000  Uiso   1.00
Cu1047 Cu    0.75501   0.83913   0.89479   0.00000  Uiso   1.00
Cu1048 Cu    0.74500   0.82754   0.77187   0.00000  Uiso   1.00
H1049  H     0.88148   0.75482   0.78951   0.00000  Uiso   1.00
H1050  H     0.99322   0.67216   0.90113   0.00000  Uiso   1.00
H1051  H     0.81654   0.96437   0.69447   0.00000  Uiso   1.00
H1052  H     0.68343   0.70231   0.97216   0.00000  Uiso   1.00
H1053  H     0.61852   0.91185   0.87717   0.00000  Uiso   1.00
H1054  H     0.94562   0.70569   0.77428   0.00000  Uiso   1.00
H1055  H     0.55438   0.96097   0.89240   0.00000  Uiso   1.00
H1056  H     0.71361   0.79461   0.98320   0.00000  Uiso   1.00
H1057  H     0.78639   0.87206   0.68347   0.00000  Uiso   1.00
H1058  H     0.87836   0.98495   0.96051   0.00000  Uiso   1.00
H1059  H     0.62162   0.68173   0.70612   0.00000  Uiso   1.00
H1060  H     0.50678   0.99451   0.76554   0.00000  Uiso   1.00
N1061  N     0.73745   0.81881   0.67951   0.00000  Uiso   1.00
N1062  N     0.76256   0.84786   0.98716   0.00000  Uiso   1.00
O1063  O     0.75326   0.76204   0.87326   0.00000  Uiso   1.00
O1064  O     0.89569   0.95288   0.94671   0.00000  Uiso   1.00
O1065  O     0.63951   0.71746   0.81448   0.00000  Uiso   1.00
O1066  O     0.60429   0.71379   0.71993   0.00000  Uiso   1.00
O1067  O     0.53147   0.68886   0.77731   0.00000  Uiso   1.00
O1068  O     0.96853   0.97780   0.88937   0.00000  Uiso   1.00
O1069  O     0.73741   0.96579   0.70700   0.00000  Uiso   1.00
O1070  O     0.81160   0.98277   0.73823   0.00000  Uiso   1.00
O1071  O     0.76256   0.70085   0.95967   0.00000  Uiso   1.00
O1072  O     0.68837   0.68391   0.92839   0.00000  Uiso   1.00
O1073  O     0.74675   0.90462   0.79341   0.00000  Uiso   1.00
O1074  O     0.74480   0.75226   0.76945   0.00000  Uiso   1.00
O1075  O     0.75520   0.91441   0.89721   0.00000  Uiso   1.00
O1076  O     0.68936   0.83821   0.88524   0.00000  Uiso   1.00
O1077  O     0.81065   0.82845   0.78143   0.00000  Uiso   1.00
O1078  O     0.68090   0.82843   0.78143   0.00000  Uiso   1.00
O1079  O     0.81910   0.83824   0.88523   0.00000  Uiso   1.00
O1080  O     0.86051   0.94921   0.85215   0.00000  Uiso   1.00
loop_
_geom_bond_atom_site_label_1
_geom_bond_atom_site_label_2
_geom_bond_distance
_geom_bond_site_symmetry_2
_ccdc_geom_bond_type
C1     O54     1.288   .     A
C1     C22     1.431   .     S
C1     O43     1.288   .     A
C2     C4      1.409   .     A
C2     C17     1.485   .     S
C2     C13     1.421   .     A
C3     C26     1.409   .     A
C3     C25     1.445   .     S
C3     C5      1.387   .     A
C4     C24     1.445   .     S
C4     C6      1.387   .     A
C5     C7      1.385   .     A
C5     H29     1.086   .     S
C6     H33     1.086   .     S
C6     C8      1.385   .     A
C7     C9      1.409   .     A
C7     C14     1.394   .     A
C8     C10     1.409   .     A
C8     C15     1.394   .     A
C9     C11     1.429   .     A
C9     C70     1.409   .     S
C10    C13     1.429   .     A
C10    C69     1.409   1_455 S
C11    C26     1.421   .     A
C11    C21     1.422   .     A
C12    O53     1.288   .     A
C12    C23     1.431   .     S
C12    O55     1.288   .     A
C13    C20     1.422   .     A
C14    H34     1.085   .     S
C14    C80     1.400   .     S
C15    H35     1.085   .     S
C15    C81     1.400   1_455 S
C16    O44     1.398   .     S
C16    O60     1.223   .     D
C16    C26     1.485   .     S
C17    O45     1.223   .     D
C17    O46     1.398   .     S
C18    O50     1.397   .     S
C18    O49     1.223   .     D
C18    C142    1.485   .     S
C19    O51     1.223   .     D
C19    O52     1.397   .     S
C19    C263    1.485   1_545 S
C20    O47     1.383   .     S
C20    C74     1.400   1_455 S
C21    O48     1.383   .     S
C21    C75     1.400   .     S
C22    C258    1.485   1_545 S
C22    C263    1.355   1_545 S
C23    C142    1.355   .     S
C23    C139    1.485   .     S
C24    O56     1.292   .     A
C24    O58     1.290   .     A
C25    O57     1.292   .     A
C25    O59     1.290   .     A
Cu27   Cu28    2.686   .     S
Cu27   O59     1.949   .     S
Cu27   N42     2.019   .     S
Cu27   O55     1.972   .     S
Cu27   O43     1.977   .     S
Cu27   O56     1.964   .     S
Cu28   O58     1.949   .     S
Cu28   O53     1.977   .     S
Cu28   O57     1.964   .     S
Cu28   N41     2.019   .     S
Cu28   O54     1.972   .     S
H30    O288    0.992   1_545 S
H31    O50     1.013   .     S
H32    O52     1.013   .     S
H36    N401    1.028   .     S
H37    N762    1.028   1_554 S
H38    O44     1.014   .     S
H39    O46     1.014   .     S
H40    O167    0.992   .     S
N41    H756    1.028   1_554 S
N41    N762    1.295   1_554 S
N42    N401    1.295   .     S
N42    H397    1.028   .     S
O47    H280    0.992   1_545 S
O48    H150    0.992   .     S
C61    O114    1.288   .     A
C61    C82     1.431   .     S
C61    O103    1.288   .     A
C62    C64     1.409   .     A
C62    C77     1.485   .     S
C62    C73     1.421   .     A
C63    C86     1.409   .     A
C63    C85     1.445   .     S
C63    C65     1.387   .     A
C64    C84     1.445   .     S
C64    C66     1.387   .     A
C65    C67     1.385   .     A
C65    H89     1.086   .     S
C66    H93     1.086   .     S
C66    C68     1.385   .     A
C67    C69     1.409   .     A
C67    C74     1.394   .     A
C68    C70     1.409   .     A
C68    C75     1.394   .     A
C69    C71     1.429   .     A
C69    C10     1.409   1_655 S
C70    C73     1.429   .     A
C71    C86     1.421   .     A
C71    C81     1.422   .     A
C72    O113    1.288   .     A
C72    C83     1.431   .     S
C72    O115    1.288   .     A
C73    C80     1.422   .     A
C74    H94     1.085   .     S
C74    C20     1.400   1_655 S
C75    H95     1.085   .     S
C76    O104    1.398   .     S
C76    O120    1.223   .     D
C76    C86     1.485   .     S
C77    O105    1.223   .     D
C77    O106    1.398   .     S
C78    O110    1.397   .     S
C78    O109    1.223   .     D
C78    C202    1.485   .     S
C79    O111    1.223   .     D
C79    O112    1.397   .     S
C79    C323    1.485   1_545 S
C80    O107    1.383   .     S
C81    O108    1.383   .     S
C81    C15     1.400   1_655 S
C82    C318    1.485   1_545 S
C82    C323    1.355   1_545 S
C83    C202    1.355   .     S
C83    C199    1.485   .     S
C84    O116    1.292   .     A
C84    O118    1.290   .     A
C85    O117    1.292   .     A
C85    O119    1.290   .     A
Cu87   Cu88    2.686   .     S
Cu87   O119    1.949   .     S
Cu87   N102    2.019   .     S
Cu87   O115    1.972   .     S
Cu87   O103    1.977   .     S
Cu87   O116    1.964   .     S
Cu88   O118    1.949   .     S
Cu88   O113    1.977   .     S
Cu88   O117    1.964   .     S
Cu88   N101    2.019   .     S
Cu88   O114    1.972   .     S
H90    O348    0.992   1_545 S
H91    O110    1.013   .     S
H92    O112    1.013   .     S
H96    N461    1.028   .     S
H97    N822    1.028   1_554 S
H98    O104    1.014   .     S
H99    O106    1.014   .     S
H100   O227    0.992   .     S
N101   H816    1.028   1_554 S
N101   N822    1.295   1_554 S
N102   N461    1.295   .     S
N102   H457    1.028   .     S
O107   H340    0.992   1_545 S
O108   H210    0.992   .     S
C121   O174    1.288   .     A
C121   C142    1.431   .     S
C121   O163    1.288   .     A
C122   C124    1.409   .     A
C122   C137    1.485   .     S
C122   C133    1.421   .     A
C123   C146    1.409   .     A
C123   C145    1.445   .     S
C123   C125    1.387   .     A
C124   C144    1.445   .     S
C124   C126    1.387   .     A
C125   C127    1.385   .     A
C125   H149    1.086   .     S
C126   H153    1.086   .     S
C126   C128    1.385   .     A
C127   C129    1.409   .     A
C127   C134    1.394   .     A
C128   C130    1.409   .     A
C128   C135    1.394   .     A
C129   C131    1.429   .     A
C129   C190    1.409   .     S
C130   C133    1.429   .     A
C130   C189    1.409   1_455 S
C131   C146    1.421   .     A
C131   C141    1.422   .     A
C132   O173    1.288   .     A
C132   C143    1.431   .     S
C132   O175    1.288   .     A
C133   C140    1.422   .     A
C134   H154    1.085   .     S
C134   C200    1.400   .     S
C135   H155    1.085   .     S
C135   C201    1.400   1_455 S
C136   O164    1.398   .     S
C136   O180    1.223   .     D
C136   C146    1.485   .     S
C137   O165    1.223   .     D
C137   O166    1.398   .     S
C138   O170    1.397   .     S
C138   O169    1.223   .     D
C138   C262    1.485   .     S
C139   O171    1.223   .     D
C139   O172    1.397   .     S
C140   O167    1.383   .     S
C140   C194    1.400   1_455 S
C141   O168    1.383   .     S
C141   C195    1.400   .     S
C143   C262    1.355   .     S
C143   C259    1.485   .     S
C144   O176    1.292   .     A
C144   O178    1.290   .     A
C145   O177    1.292   .     A
C145   O179    1.290   .     A
Cu147  Cu148   2.686   .     S
Cu147  O179    1.949   .     S
Cu147  N162    2.019   .     S
Cu147  O175    1.972   .     S
Cu147  O163    1.977   .     S
Cu147  O176    1.964   .     S
Cu148  O178    1.949   .     S
Cu148  O173    1.977   .     S
Cu148  O177    1.964   .     S
Cu148  N161    2.019   .     S
Cu148  O174    1.972   .     S
H151   O170    1.013   .     S
H152   O172    1.013   .     S
H156   N521    1.028   .     S
H157   N882    1.028   1_554 S
H158   O164    1.014   .     S
H159   O166    1.014   .     S
H160   O287    0.992   .     S
N161   H876    1.028   1_554 S
N161   N882    1.295   1_554 S
N162   N521    1.295   .     S
N162   H517    1.028   .     S
O168   H270    0.992   .     S
C181   O234    1.288   .     A
C181   C202    1.431   .     S
C181   O223    1.288   .     A
C182   C184    1.409   .     A
C182   C197    1.485   .     S
C182   C193    1.421   .     A
C183   C206    1.409   .     A
C183   C205    1.445   .     S
C183   C185    1.387   .     A
C184   C204    1.445   .     S
C184   C186    1.387   .     A
C185   C187    1.385   .     A
C185   H209    1.086   .     S
C186   H213    1.086   .     S
C186   C188    1.385   .     A
C187   C189    1.409   .     A
C187   C194    1.394   .     A
C188   C190    1.409   .     A
C188   C195    1.394   .     A
C189   C191    1.429   .     A
C189   C130    1.409   1_655 S
C190   C193    1.429   .     A
C191   C206    1.421   .     A
C191   C201    1.422   .     A
C192   O233    1.288   .     A
C192   C203    1.431   .     S
C192   O235    1.288   .     A
C193   C200    1.422   .     A
C194   H214    1.085   .     S
C194   C140    1.400   1_655 S
C195   H215    1.085   .     S
C196   O224    1.398   .     S
C196   O240    1.223   .     D
C196   C206    1.485   .     S
C197   O225    1.223   .     D
C197   O226    1.398   .     S
C198   O230    1.397   .     S
C198   O229    1.223   .     D
C198   C322    1.485   .     S
C199   O231    1.223   .     D
C199   O232    1.397   .     S
C200   O227    1.383   .     S
C201   O228    1.383   .     S
C201   C135    1.400   1_655 S
C203   C322    1.355   .     S
C203   C319    1.485   .     S
C204   O236    1.292   .     A
C204   O238    1.290   .     A
C205   O237    1.292   .     A
C205   O239    1.290   .     A
Cu207  Cu208   2.686   .     S
Cu207  O239    1.949   .     S
Cu207  N222    2.019   .     S
Cu207  O235    1.972   .     S
Cu207  O223    1.977   .     S
Cu207  O236    1.964   .     S
Cu208  O238    1.949   .     S
Cu208  O233    1.977   .     S
Cu208  O237    1.964   .     S
Cu208  N221    2.019   .     S
Cu208  O234    1.972   .     S
H211   O230    1.013   .     S
H212   O232    1.013   .     S
H216   N581    1.028   .     S
H217   N942    1.028   1_554 S
H218   O224    1.014   .     S
H219   O226    1.014   .     S
H220   O347    0.992   .     S
N221   H936    1.028   1_554 S
N221   N942    1.295   1_554 S
N222   N581    1.295   .     S
N222   H577    1.028   .     S
O228   H330    0.992   .     S
C241   O294    1.288   .     A
C241   C262    1.431   .     S
C241   O283    1.288   .     A
C242   C244    1.409   .     A
C242   C257    1.485   .     S
C242   C253    1.421   .     A
C243   C266    1.409   .     A
C243   C265    1.445   .     S
C243   C245    1.387   .     A
C244   C264    1.445   .     S
C244   C246    1.387   .     A
C245   C247    1.385   .     A
C245   H269    1.086   .     S
C246   H273    1.086   .     S
C246   C248    1.385   .     A
C247   C249    1.409   .     A
C247   C254    1.394   .     A
C248   C250    1.409   .     A
C248   C255    1.394   .     A
C249   C251    1.429   .     A
C249   C310    1.409   .     S
C250   C253    1.429   .     A
C250   C309    1.409   1_455 S
C251   C266    1.421   .     A
C251   C261    1.422   .     A
C252   O293    1.288   .     A
C252   C263    1.431   .     S
C252   O295    1.288   .     A
C253   C260    1.422   .     A
C254   H274    1.085   .     S
C254   C320    1.400   .     S
C255   H275    1.085   .     S
C255   C321    1.400   1_455 S
C256   O284    1.398   .     S
C256   O300    1.223   .     D
C256   C266    1.485   .     S
C257   O285    1.223   .     D
C257   O286    1.398   .     S
C258   O290    1.397   .     S
C258   O289    1.223   .     D
C258   C22     1.485   1_565 S
C259   O291    1.223   .     D
C259   O292    1.397   .     S
C260   O287    1.383   .     S
C260   C314    1.400   1_455 S
C261   O288    1.383   .     S
C261   C315    1.400   .     S
C263   C22     1.355   1_565 S
C263   C19     1.485   1_565 S
C264   O296    1.292   .     A
C264   O298    1.290   .     A
C265   O297    1.292   .     A
C265   O299    1.290   .     A
Cu267  Cu268   2.686   .     S
Cu267  O299    1.949   .     S
Cu267  N282    2.019   .     S
Cu267  O295    1.972   .     S
Cu267  O283    1.977   .     S
Cu267  O296    1.964   .     S
Cu268  O298    1.949   .     S
Cu268  O293    1.977   .     S
Cu268  O297    1.964   .     S
Cu268  N281    2.019   .     S
Cu268  O294    1.972   .     S
H271   O290    1.013   .     S
H272   O292    1.013   .     S
H276   N641    1.028   .     S
H277   N1002   1.028   1_554 S
H278   O284    1.014   .     S
H279   O286    1.014   .     S
H280   O47     0.992   1_565 S
N281   H996    1.028   1_554 S
N281   N1002   1.295   1_554 S
N282   N641    1.295   .     S
N282   H637    1.028   .     S
O288   H30     0.992   1_565 S
C301   O354    1.288   .     A
C301   C322    1.431   .     S
C301   O343    1.288   .     A
C302   C304    1.409   .     A
C302   C317    1.485   .     S
C302   C313    1.421   .     A
C303   C326    1.409   .     A
C303   C325    1.445   .     S
C303   C305    1.387   .     A
C304   C324    1.445   .     S
C304   C306    1.387   .     A
C305   C307    1.385   .     A
C305   H329    1.086   .     S
C306   H333    1.086   .     S
C306   C308    1.385   .     A
C307   C309    1.409   .     A
C307   C314    1.394   .     A
C308   C310    1.409   .     A
C308   C315    1.394   .     A
C309   C311    1.429   .     A
C309   C250    1.409   1_655 S
C310   C313    1.429   .     A
C311   C326    1.421   .     A
C311   C321    1.422   .     A
C312   O353    1.288   .     A
C312   C323    1.431   .     S
C312   O355    1.288   .     A
C313   C320    1.422   .     A
C314   H334    1.085   .     S
C314   C260    1.400   1_655 S
C315   H335    1.085   .     S
C316   O344    1.398   .     S
C316   O360    1.223   .     D
C316   C326    1.485   .     S
C317   O345    1.223   .     D
C317   O346    1.398   .     S
C318   O350    1.397   .     S
C318   O349    1.223   .     D
C318   C82     1.485   1_565 S
C319   O351    1.223   .     D
C319   O352    1.397   .     S
C320   O347    1.383   .     S
C321   O348    1.383   .     S
C321   C255    1.400   1_655 S
C323   C82     1.355   1_565 S
C323   C79     1.485   1_565 S
C324   O356    1.292   .     A
C324   O358    1.290   .     A
C325   O357    1.292   .     A
C325   O359    1.290   .     A
Cu327  Cu328   2.686   .     S
Cu327  O359    1.949   .     S
Cu327  N342    2.019   .     S
Cu327  O355    1.972   .     S
Cu327  O343    1.977   .     S
Cu327  O356    1.964   .     S
Cu328  O358    1.949   .     S
Cu328  O353    1.977   .     S
Cu328  O357    1.964   .     S
Cu328  N341    2.019   .     S
Cu328  O354    1.972   .     S
H331   O350    1.013   .     S
H332   O352    1.013   .     S
H336   N701    1.028   .     S
H337   N1062   1.028   1_554 S
H338   O344    1.014   .     S
H339   O346    1.014   .     S
H340   O107    0.992   1_565 S
N341   H1056   1.028   1_554 S
N341   N1062   1.295   1_554 S
N342   N701    1.295   .     S
N342   H697    1.028   .     S
O348   H90     0.992   1_565 S
C361   O414    1.288   .     A
C361   C382    1.431   .     S
C361   O403    1.288   .     A
C362   C364    1.409   .     A
C362   C377    1.485   .     S
C362   C373    1.421   .     A
C363   C386    1.409   .     A
C363   C385    1.445   .     S
C363   C365    1.387   .     A
C364   C384    1.445   .     S
C364   C366    1.387   .     A
C365   C367    1.385   .     A
C365   H389    1.086   .     S
C366   H393    1.086   .     S
C366   C368    1.385   .     A
C367   C369    1.409   .     A
C367   C374    1.394   .     A
C368   C370    1.409   .     A
C368   C375    1.394   .     A
C369   C371    1.429   .     A
C369   C430    1.409   .     S
C370   C373    1.429   .     A
C370   C429    1.409   1_455 S
C371   C386    1.421   .     A
C371   C381    1.422   .     A
C372   O413    1.288   .     A
C372   C383    1.431   .     S
C372   O415    1.288   .     A
C373   C380    1.422   .     A
C374   H394    1.085   .     S
C374   C440    1.400   .     S
C375   H395    1.085   .     S
C375   C441    1.400   1_455 S
C376   O404    1.398   .     S
C376   O420    1.223   .     D
C376   C386    1.485   .     S
C377   O405    1.223   .     D
C377   O406    1.398   .     S
C378   O410    1.397   .     S
C378   O409    1.223   .     D
C378   C502    1.485   .     S
C379   O411    1.223   .     D
C379   O412    1.397   .     S
C379   C623    1.485   1_545 S
C380   O407    1.383   .     S
C380   C434    1.400   1_455 S
C381   O408    1.383   .     S
C381   C435    1.400   .     S
C382   C618    1.485   1_545 S
C382   C623    1.355   1_545 S
C383   C502    1.355   .     S
C383   C499    1.485   .     S
C384   O416    1.292   .     A
C384   O418    1.290   .     A
C385   O417    1.292   .     A
C385   O419    1.290   .     A
Cu387  Cu388   2.686   .     S
Cu387  O419    1.949   .     S
Cu387  N402    2.019   .     S
Cu387  O415    1.972   .     S
Cu387  O403    1.977   .     S
Cu387  O416    1.964   .     S
Cu388  O418    1.949   .     S
Cu388  O413    1.977   .     S
Cu388  O417    1.964   .     S
Cu388  N401    2.019   .     S
Cu388  O414    1.972   .     S
H390   O648    0.992   1_545 S
H391   O410    1.013   .     S
H392   O412    1.013   .     S
H396   N761    1.028   .     S
H398   O404    1.014   .     S
H399   O406    1.014   .     S
H400   O527    0.992   .     S
N402   N761    1.295   .     S
N402   H757    1.028   .     S
O407   H640    0.992   1_545 S
O408   H510    0.992   .     S
C421   O474    1.288   .     A
C421   C442    1.431   .     S
C421   O463    1.288   .     A
C422   C424    1.409   .     A
C422   C437    1.485   .     S
C422   C433    1.421   .     A
C423   C446    1.409   .     A
C423   C445    1.445   .     S
C423   C425    1.387   .     A
C424   C444    1.445   .     S
C424   C426    1.387   .     A
C425   C427    1.385   .     A
C425   H449    1.086   .     S
C426   H453    1.086   .     S
C426   C428    1.385   .     A
C427   C429    1.409   .     A
C427   C434    1.394   .     A
C428   C430    1.409   .     A
C428   C435    1.394   .     A
C429   C431    1.429   .     A
C429   C370    1.409   1_655 S
C430   C433    1.429   .     A
C431   C446    1.421   .     A
C431   C441    1.422   .     A
C432   O473    1.288   .     A
C432   C443    1.431   .     S
C432   O475    1.288   .     A
C433   C440    1.422   .     A
C434   H454    1.085   .     S
C434   C380    1.400   1_655 S
C435   H455    1.085   .     S
C436   O464    1.398   .     S
C436   O480    1.223   .     D
C436   C446    1.485   .     S
C437   O465    1.223   .     D
C437   O466    1.398   .     S
C438   O470    1.397   .     S
C438   O469    1.223   .     D
C438   C562    1.485   .     S
C439   O471    1.223   .     D
C439   O472    1.397   .     S
C439   C683    1.485   1_545 S
C440   O467    1.383   .     S
C441   O468    1.383   .     S
C441   C375    1.400   1_655 S
C442   C678    1.485   1_545 S
C442   C683    1.355   1_545 S
C443   C562    1.355   .     S
C443   C559    1.485   .     S
C444   O476    1.292   .     A
C444   O478    1.290   .     A
C445   O477    1.292   .     A
C445   O479    1.290   .     A
Cu447  Cu448   2.686   .     S
Cu447  O479    1.949   .     S
Cu447  N462    2.019   .     S
Cu447  O475    1.972   .     S
Cu447  O463    1.977   .     S
Cu447  O476    1.964   .     S
Cu448  O478    1.949   .     S
Cu448  O473    1.977   .     S
Cu448  O477    1.964   .     S
Cu448  N461    2.019   .     S
Cu448  O474    1.972   .     S
H450   O708    0.992   1_545 S
H451   O470    1.013   .     S
H452   O472    1.013   .     S
H456   N821    1.028   .     S
H458   O464    1.014   .     S
H459   O466    1.014   .     S
H460   O587    0.992   .     S
N462   N821    1.295   .     S
N462   H817    1.028   .     S
O467   H700    0.992   1_545 S
O468   H570    0.992   .     S
C481   O534    1.288   .     A
C481   C502    1.431   .     S
C481   O523    1.288   .     A
C482   C484    1.409   .     A
C482   C497    1.485   .     S
C482   C493    1.421   .     A
C483   C506    1.409   .     A
C483   C505    1.445   .     S
C483   C485    1.387   .     A
C484   C504    1.445   .     S
C484   C486    1.387   .     A
C485   C487    1.385   .     A
C485   H509    1.086   .     S
C486   H513    1.086   .     S
C486   C488    1.385   .     A
C487   C489    1.409   .     A
C487   C494    1.394   .     A
C488   C490    1.409   .     A
C488   C495    1.394   .     A
C489   C491    1.429   .     A
C489   C550    1.409   .     S
C490   C493    1.429   .     A
C490   C549    1.409   1_455 S
C491   C506    1.421   .     A
C491   C501    1.422   .     A
C492   O533    1.288   .     A
C492   C503    1.431   .     S
C492   O535    1.288   .     A
C493   C500    1.422   .     A
C494   H514    1.085   .     S
C494   C560    1.400   .     S
C495   H515    1.085   .     S
C495   C561    1.400   1_455 S
C496   O524    1.398   .     S
C496   O540    1.223   .     D
C496   C506    1.485   .     S
C497   O525    1.223   .     D
C497   O526    1.398   .     S
C498   O530    1.397   .     S
C498   O529    1.223   .     D
C498   C622    1.485   .     S
C499   O531    1.223   .     D
C499   O532    1.397   .     S
C500   O527    1.383   .     S
C500   C554    1.400   1_455 S
C501   O528    1.383   .     S
C501   C555    1.400   .     S
C503   C622    1.355   .     S
C503   C619    1.485   .     S
C504   O536    1.292   .     A
C504   O538    1.290   .     A
C505   O537    1.292   .     A
C505   O539    1.290   .     A
Cu507  Cu508   2.686   .     S
Cu507  O539    1.949   .     S
Cu507  N522    2.019   .     S
Cu507  O535    1.972   .     S
Cu507  O523    1.977   .     S
Cu507  O536    1.964   .     S
Cu508  O538    1.949   .     S
Cu508  O533    1.977   .     S
Cu508  O537    1.964   .     S
Cu508  N521    2.019   .     S
Cu508  O534    1.972   .     S
H511   O530    1.013   .     S
H512   O532    1.013   .     S
H516   N881    1.028   .     S
H518   O524    1.014   .     S
H519   O526    1.014   .     S
H520   O647    0.992   .     S
N522   N881    1.295   .     S
N522   H877    1.028   .     S
O528   H630    0.992   .     S
C541   O594    1.288   .     A
C541   C562    1.431   .     S
C541   O583    1.288   .     A
C542   C544    1.409   .     A
C542   C557    1.485   .     S
C542   C553    1.421   .     A
C543   C566    1.409   .     A
C543   C565    1.445   .     S
C543   C545    1.387   .     A
C544   C564    1.445   .     S
C544   C546    1.387   .     A
C545   C547    1.385   .     A
C545   H569    1.086   .     S
C546   H573    1.086   .     S
C546   C548    1.385   .     A
C547   C549    1.409   .     A
C547   C554    1.394   .     A
C548   C550    1.409   .     A
C548   C555    1.394   .     A
C549   C551    1.429   .     A
C549   C490    1.409   1_655 S
C550   C553    1.429   .     A
C551   C566    1.421   .     A
C551   C561    1.422   .     A
C552   O593    1.288   .     A
C552   C563    1.431   .     S
C552   O595    1.288   .     A
C553   C560    1.422   .     A
C554   H574    1.085   .     S
C554   C500    1.400   1_655 S
C555   H575    1.085   .     S
C556   O584    1.398   .     S
C556   O600    1.223   .     D
C556   C566    1.485   .     S
C557   O585    1.223   .     D
C557   O586    1.398   .     S
C558   O590    1.397   .     S
C558   O589    1.223   .     D
C558   C682    1.485   .     S
C559   O591    1.223   .     D
C559   O592    1.397   .     S
C560   O587    1.383   .     S
C561   O588    1.383   .     S
C561   C495    1.400   1_655 S
C563   C682    1.355   .     S
C563   C679    1.485   .     S
C564   O596    1.292   .     A
C564   O598    1.290   .     A
C565   O597    1.292   .     A
C565   O599    1.290   .     A
Cu567  Cu568   2.686   .     S
Cu567  O599    1.949   .     S
Cu567  N582    2.019   .     S
Cu567  O595    1.972   .     S
Cu567  O583    1.977   .     S
Cu567  O596    1.964   .     S
Cu568  O598    1.949   .     S
Cu568  O593    1.977   .     S
Cu568  O597    1.964   .     S
Cu568  N581    2.019   .     S
Cu568  O594    1.972   .     S
H571   O590    1.013   .     S
H572   O592    1.013   .     S
H576   N941    1.028   .     S
H578   O584    1.014   .     S
H579   O586    1.014   .     S
H580   O707    0.992   .     S
N582   N941    1.295   .     S
N582   H937    1.028   .     S
O588   H690    0.992   .     S
C601   O654    1.288   .     A
C601   C622    1.431   .     S
C601   O643    1.288   .     A
C602   C604    1.409   .     A
C602   C617    1.485   .     S
C602   C613    1.421   .     A
C603   C626    1.409   .     A
C603   C625    1.445   .     S
C603   C605    1.387   .     A
C604   C624    1.445   .     S
C604   C606    1.387   .     A
C605   C607    1.385   .     A
C605   H629    1.086   .     S
C606   H633    1.086   .     S
C606   C608    1.385   .     A
C607   C609    1.409   .     A
C607   C614    1.394   .     A
C608   C610    1.409   .     A
C608   C615    1.394   .     A
C609   C611    1.429   .     A
C609   C670    1.409   .     S
C610   C613    1.429   .     A
C610   C669    1.409   1_455 S
C611   C626    1.421   .     A
C611   C621    1.422   .     A
C612   O653    1.288   .     A
C612   C623    1.431   .     S
C612   O655    1.288   .     A
C613   C620    1.422   .     A
C614   H634    1.085   .     S
C614   C680    1.400   .     S
C615   H635    1.085   .     S
C615   C681    1.400   1_455 S
C616   O644    1.398   .     S
C616   O660    1.223   .     D
C616   C626    1.485   .     S
C617   O645    1.223   .     D
C617   O646    1.398   .     S
C618   O650    1.397   .     S
C618   O649    1.223   .     D
C618   C382    1.485   1_565 S
C619   O651    1.223   .     D
C619   O652    1.397   .     S
C620   O647    1.383   .     S
C620   C674    1.400   1_455 S
C621   O648    1.383   .     S
C621   C675    1.400   .     S
C623   C382    1.355   1_565 S
C623   C379    1.485   1_565 S
C624   O656    1.292   .     A
C624   O658    1.290   .     A
C625   O657    1.292   .     A
C625   O659    1.290   .     A
Cu627  Cu628   2.686   .     S
Cu627  O659    1.949   .     S
Cu627  N642    2.019   .     S
Cu627  O655    1.972   .     S
Cu627  O643    1.977   .     S
Cu627  O656    1.964   .     S
Cu628  O658    1.949   .     S
Cu628  O653    1.977   .     S
Cu628  O657    1.964   .     S
Cu628  N641    2.019   .     S
Cu628  O654    1.972   .     S
H631   O650    1.013   .     S
H632   O652    1.013   .     S
H636   N1001   1.028   .     S
H638   O644    1.014   .     S
H639   O646    1.014   .     S
H640   O407    0.992   1_565 S
N642   N1001   1.295   .     S
N642   H997    1.028   .     S
O648   H390    0.992   1_565 S
C661   O714    1.288   .     A
C661   C682    1.431   .     S
C661   O703    1.288   .     A
C662   C664    1.409   .     A
C662   C677    1.485   .     S
C662   C673    1.421   .     A
C663   C686    1.409   .     A
C663   C685    1.445   .     S
C663   C665    1.387   .     A
C664   C684    1.445   .     S
C664   C666    1.387   .     A
C665   C667    1.385   .     A
C665   H689    1.086   .     S
C666   H693    1.086   .     S
C666   C668    1.385   .     A
C667   C669    1.409   .     A
C667   C674    1.394   .     A
C668   C670    1.409   .     A
C668   C675    1.394   .     A
C669   C671    1.429   .     A
C669   C610    1.409   1_655 S
C670   C673    1.429   .     A
C671   C686    1.421   .     A
C671   C681    1.422   .     A
C672   O713    1.288   .     A
C672   C683    1.431   .     S
C672   O715    1.288   .     A
C673   C680    1.422   .     A
C674   H694    1.085   .     S
C674   C620    1.400   1_655 S
C675   H695    1.085   .     S
C676   O704    1.398   .     S
C676   O720    1.223   .     D
C676   C686    1.485   .     S
C677   O705    1.223   .     D
C677   O706    1.398   .     S
C678   O710    1.397   .     S
C678   O709    1.223   .     D
C678   C442    1.485   1_565 S
C679   O711    1.223   .     D
C679   O712    1.397   .     S
C680   O707    1.383   .     S
C681   O708    1.383   .     S
C681   C615    1.400   1_655 S
C683   C442    1.355   1_565 S
C683   C439    1.485   1_565 S
C684   O716    1.292   .     A
C684   O718    1.290   .     A
C685   O717    1.292   .     A
C685   O719    1.290   .     A
Cu687  Cu688   2.686   .     S
Cu687  O719    1.949   .     S
Cu687  N702    2.019   .     S
Cu687  O715    1.972   .     S
Cu687  O703    1.977   .     S
Cu687  O716    1.964   .     S
Cu688  O718    1.949   .     S
Cu688  O713    1.977   .     S
Cu688  O717    1.964   .     S
Cu688  N701    2.019   .     S
Cu688  O714    1.972   .     S
H691   O710    1.013   .     S
H692   O712    1.013   .     S
H696   N1061   1.028   .     S
H698   O704    1.014   .     S
H699   O706    1.014   .     S
H700   O467    0.992   1_565 S
N702   N1061   1.295   .     S
N702   H1057   1.028   .     S
O708   H450    0.992   1_565 S
C721   O774    1.288   .     A
C721   C742    1.431   .     S
C721   O763    1.288   .     A
C722   C724    1.409   .     A
C722   C737    1.485   .     S
C722   C733    1.421   .     A
C723   C746    1.409   .     A
C723   C745    1.445   .     S
C723   C725    1.387   .     A
C724   C744    1.445   .     S
C724   C726    1.387   .     A
C725   C727    1.385   .     A
C725   H749    1.086   .     S
C726   H753    1.086   .     S
C726   C728    1.385   .     A
C727   C729    1.409   .     A
C727   C734    1.394   .     A
C728   C730    1.409   .     A
C728   C735    1.394   .     A
C729   C731    1.429   .     A
C729   C790    1.409   .     S
C730   C733    1.429   .     A
C730   C789    1.409   1_455 S
C731   C746    1.421   .     A
C731   C741    1.422   .     A
C732   O773    1.288   .     A
C732   C743    1.431   .     S
C732   O775    1.288   .     A
C733   C740    1.422   .     A
C734   H754    1.085   .     S
C734   C800    1.400   .     S
C735   H755    1.085   .     S
C735   C801    1.400   1_455 S
C736   O764    1.398   .     S
C736   O780    1.223   .     D
C736   C746    1.485   .     S
C737   O765    1.223   .     D
C737   O766    1.398   .     S
C738   O770    1.397   .     S
C738   O769    1.223   .     D
C738   C862    1.485   .     S
C739   O771    1.223   .     D
C739   O772    1.397   .     S
C739   C983    1.485   1_545 S
C740   O767    1.383   .     S
C740   C794    1.400   1_455 S
C741   O768    1.383   .     S
C741   C795    1.400   .     S
C742   C978    1.485   1_545 S
C742   C983    1.355   1_545 S
C743   C862    1.355   .     S
C743   C859    1.485   .     S
C744   O776    1.292   .     A
C744   O778    1.290   .     A
C745   O777    1.292   .     A
C745   O779    1.290   .     A
Cu747  Cu748   2.686   .     S
Cu747  O779    1.949   .     S
Cu747  N762    2.019   .     S
Cu747  O775    1.972   .     S
Cu747  O763    1.977   .     S
Cu747  O776    1.964   .     S
Cu748  O778    1.949   .     S
Cu748  O773    1.977   .     S
Cu748  O777    1.964   .     S
Cu748  N761    2.019   .     S
Cu748  O774    1.972   .     S
H750   O1008   0.992   1_545 S
H751   O770    1.013   .     S
H752   O772    1.013   .     S
H756   N41     1.028   1_556 S
H758   O764    1.014   .     S
H759   O766    1.014   .     S
H760   O887    0.992   .     S
N762   N41     1.295   1_556 S
N762   H37     1.028   1_556 S
O767   H1000   0.992   1_545 S
O768   H870    0.992   .     S
C781   O834    1.288   .     A
C781   C802    1.431   .     S
C781   O823    1.288   .     A
C782   C784    1.409   .     A
C782   C797    1.485   .     S
C782   C793    1.421   .     A
C783   C806    1.409   .     A
C783   C805    1.445   .     S
C783   C785    1.387   .     A
C784   C804    1.445   .     S
C784   C786    1.387   .     A
C785   C787    1.385   .     A
C785   H809    1.086   .     S
C786   H813    1.086   .     S
C786   C788    1.385   .     A
C787   C789    1.409   .     A
C787   C794    1.394   .     A
C788   C790    1.409   .     A
C788   C795    1.394   .     A
C789   C791    1.429   .     A
C789   C730    1.409   1_655 S
C790   C793    1.429   .     A
C791   C806    1.421   .     A
C791   C801    1.422   .     A
C792   O833    1.288   .     A
C792   C803    1.431   .     S
C792   O835    1.288   .     A
C793   C800    1.422   .     A
C794   H814    1.085   .     S
C794   C740    1.400   1_655 S
C795   H815    1.085   .     S
C796   O824    1.398   .     S
C796   O840    1.223   .     D
C796   C806    1.485   .     S
C797   O825    1.223   .     D
C797   O826    1.398   .     S
C798   O830    1.397   .     S
C798   O829    1.223   .     D
C798   C922    1.485   .     S
C799   O831    1.223   .     D
C799   O832    1.397   .     S
C799   C1043   1.485   1_545 S
C800   O827    1.383   .     S
C801   O828    1.383   .     S
C801   C735    1.400   1_655 S
C802   C1038   1.485   1_545 S
C802   C1043   1.355   1_545 S
C803   C922    1.355   .     S
C803   C919    1.485   .     S
C804   O836    1.292   .     A
C804   O838    1.290   .     A
C805   O837    1.292   .     A
C805   O839    1.290   .     A
Cu807  Cu808   2.686   .     S
Cu807  O839    1.949   .     S
Cu807  N822    2.019   .     S
Cu807  O835    1.972   .     S
Cu807  O823    1.977   .     S
Cu807  O836    1.964   .     S
Cu808  O838    1.949   .     S
Cu808  O833    1.977   .     S
Cu808  O837    1.964   .     S
Cu808  N821    2.019   .     S
Cu808  O834    1.972   .     S
H810   O1068   0.992   1_545 S
H811   O830    1.013   .     S
H812   O832    1.013   .     S
H816   N101    1.028   1_556 S
H818   O824    1.014   .     S
H819   O826    1.014   .     S
H820   O947    0.992   .     S
N822   N101    1.295   1_556 S
N822   H97     1.028   1_556 S
O827   H1060   0.992   1_545 S
O828   H930    0.992   .     S
C841   O894    1.288   .     A
C841   C862    1.431   .     S
C841   O883    1.288   .     A
C842   C844    1.409   .     A
C842   C857    1.485   .     S
C842   C853    1.421   .     A
C843   C866    1.409   .     A
C843   C865    1.445   .     S
C843   C845    1.387   .     A
C844   C864    1.445   .     S
C844   C846    1.387   .     A
C845   C847    1.385   .     A
C845   H869    1.086   .     S
C846   H873    1.086   .     S
C846   C848    1.385   .     A
C847   C849    1.409   .     A
C847   C854    1.394   .     A
C848   C850    1.409   .     A
C848   C855    1.394   .     A
C849   C851    1.429   .     A
C849   C910    1.409   .     S
C850   C853    1.429   .     A
C850   C909    1.409   1_455 S
C851   C866    1.421   .     A
C851   C861    1.422   .     A
C852   O893    1.288   .     A
C852   C863    1.431   .     S
C852   O895    1.288   .     A
C853   C860    1.422   .     A
C854   H874    1.085   .     S
C854   C920    1.400   .     S
C855   H875    1.085   .     S
C855   C921    1.400   1_455 S
C856   O884    1.398   .     S
C856   O900    1.223   .     D
C856   C866    1.485   .     S
C857   O885    1.223   .     D
C857   O886    1.398   .     S
C858   O890    1.397   .     S
C858   O889    1.223   .     D
C858   C982    1.485   .     S
C859   O891    1.223   .     D
C859   O892    1.397   .     S
C860   O887    1.383   .     S
C860   C914    1.400   1_455 S
C861   O888    1.383   .     S
C861   C915    1.400   .     S
C863   C982    1.355   .     S
C863   C979    1.485   .     S
C864   O896    1.292   .     A
C864   O898    1.290   .     A
C865   O897    1.292   .     A
C865   O899    1.290   .     A
Cu867  Cu868   2.686   .     S
Cu867  O899    1.949   .     S
Cu867  N882    2.019   .     S
Cu867  O895    1.972   .     S
Cu867  O883    1.977   .     S
Cu867  O896    1.964   .     S
Cu868  O898    1.949   .     S
Cu868  O893    1.977   .     S
Cu868  O897    1.964   .     S
Cu868  N881    2.019   .     S
Cu868  O894    1.972   .     S
H871   O890    1.013   .     S
H872   O892    1.013   .     S
H876   N161    1.028   1_556 S
H878   O884    1.014   .     S
H879   O886    1.014   .     S
H880   O1007   0.992   .     S
N882   N161    1.295   1_556 S
N882   H157    1.028   1_556 S
O888   H990    0.992   .     S
C901   O954    1.288   .     A
C901   C922    1.431   .     S
C901   O943    1.288   .     A
C902   C904    1.409   .     A
C902   C917    1.485   .     S
C902   C913    1.421   .     A
C903   C926    1.409   .     A
C903   C925    1.445   .     S
C903   C905    1.387   .     A
C904   C924    1.445   .     S
C904   C906    1.387   .     A
C905   C907    1.385   .     A
C905   H929    1.086   .     S
C906   H933    1.086   .     S
C906   C908    1.385   .     A
C907   C909    1.409   .     A
C907   C914    1.394   .     A
C908   C910    1.409   .     A
C908   C915    1.394   .     A
C909   C911    1.429   .     A
C909   C850    1.409   1_655 S
C910   C913    1.429   .     A
C911   C926    1.421   .     A
C911   C921    1.422   .     A
C912   O953    1.288   .     A
C912   C923    1.431   .     S
C912   O955    1.288   .     A
C913   C920    1.422   .     A
C914   H934    1.085   .     S
C914   C860    1.400   1_655 S
C915   H935    1.085   .     S
C916   O944    1.398   .     S
C916   O960    1.223   .     D
C916   C926    1.485   .     S
C917   O945    1.223   .     D
C917   O946    1.398   .     S
C918   O950    1.397   .     S
C918   O949    1.223   .     D
C918   C1042   1.485   .     S
C919   O951    1.223   .     D
C919   O952    1.397   .     S
C920   O947    1.383   .     S
C921   O948    1.383   .     S
C921   C855    1.400   1_655 S
C923   C1042   1.355   .     S
C923   C1039   1.485   .     S
C924   O956    1.292   .     A
C924   O958    1.290   .     A
C925   O957    1.292   .     A
C925   O959    1.290   .     A
Cu927  Cu928   2.686   .     S
Cu927  O959    1.949   .     S
Cu927  N942    2.019   .     S
Cu927  O955    1.972   .     S
Cu927  O943    1.977   .     S
Cu927  O956    1.964   .     S
Cu928  O958    1.949   .     S
Cu928  O953    1.977   .     S
Cu928  O957    1.964   .     S
Cu928  N941    2.019   .     S
Cu928  O954    1.972   .     S
H931   O950    1.013   .     S
H932   O952    1.013   .     S
H936   N221    1.028   1_556 S
H938   O944    1.014   .     S
H939   O946    1.014   .     S
H940   O1067   0.992   .     S
N942   N221    1.295   1_556 S
N942   H217    1.028   1_556 S
O948   H1050   0.992   .     S
C961   O1014   1.288   .     A
C961   C982    1.431   .     S
C961   O1003   1.288   .     A
C962   C964    1.409   .     A
C962   C977    1.485   .     S
C962   C973    1.421   .     A
C963   C986    1.409   .     A
C963   C985    1.445   .     S
C963   C965    1.387   .     A
C964   C984    1.445   .     S
C964   C966    1.387   .     A
C965   C967    1.385   .     A
C965   H989    1.086   .     S
C966   H993    1.086   .     S
C966   C968    1.385   .     A
C967   C969    1.409   .     A
C967   C974    1.394   .     A
C968   C970    1.409   .     A
C968   C975    1.394   .     A
C969   C971    1.429   .     A
C969   C1030   1.409   .     S
C970   C973    1.429   .     A
C970   C1029   1.409   1_455 S
C971   C986    1.421   .     A
C971   C981    1.422   .     A
C972   O1013   1.288   .     A
C972   C983    1.431   .     S
C972   O1015   1.288   .     A
C973   C980    1.422   .     A
C974   H994    1.085   .     S
C974   C1040   1.400   .     S
C975   H995    1.085   .     S
C975   C1041   1.400   1_455 S
C976   O1004   1.398   .     S
C976   O1020   1.223   .     D
C976   C986    1.485   .     S
C977   O1005   1.223   .     D
C977   O1006   1.398   .     S
C978   O1010   1.397   .     S
C978   O1009   1.223   .     D
C978   C742    1.485   1_565 S
C979   O1011   1.223   .     D
C979   O1012   1.397   .     S
C980   O1007   1.383   .     S
C980   C1034   1.400   1_455 S
C981   O1008   1.383   .     S
C981   C1035   1.400   .     S
C983   C742    1.355   1_565 S
C983   C739    1.485   1_565 S
C984   O1016   1.292   .     A
C984   O1018   1.290   .     A
C985   O1017   1.292   .     A
C985   O1019   1.290   .     A
Cu987  Cu988   2.686   .     S
Cu987  O1019   1.949   .     S
Cu987  N1002   2.019   .     S
Cu987  O1015   1.972   .     S
Cu987  O1003   1.977   .     S
Cu987  O1016   1.964   .     S
Cu988  O1018   1.949   .     S
Cu988  O1013   1.977   .     S
Cu988  O1017   1.964   .     S
Cu988  N1001   2.019   .     S
Cu988  O1014   1.972   .     S
H991   O1010   1.013   .     S
H992   O1012   1.013   .     S
H996   N281    1.028   1_556 S
H998   O1004   1.014   .     S
H999   O1006   1.014   .     S
H1000  O767    0.992   1_565 S
N1002  N281    1.295   1_556 S
N1002  H277    1.028   1_556 S
O1008  H750    0.992   1_565 S
C1021  O1074   1.288   .     A
C1021  C1042   1.431   .     S
C1021  O1063   1.288   .     A
C1022  C1024   1.409   .     A
C1022  C1037   1.485   .     S
C1022  C1033   1.421   .     A
C1023  C1046   1.409   .     A
C1023  C1045   1.445   .     S
C1023  C1025   1.387   .     A
C1024  C1044   1.445   .     S
C1024  C1026   1.387   .     A
C1025  C1027   1.385   .     A
C1025  H1049   1.086   .     S
C1026  H1053   1.086   .     S
C1026  C1028   1.385   .     A
C1027  C1029   1.409   .     A
C1027  C1034   1.394   .     A
C1028  C1030   1.409   .     A
C1028  C1035   1.394   .     A
C1029  C1031   1.429   .     A
C1029  C970    1.409   1_655 S
C1030  C1033   1.429   .     A
C1031  C1046   1.421   .     A
C1031  C1041   1.422   .     A
C1032  O1073   1.288   .     A
C1032  C1043   1.431   .     S
C1032  O1075   1.288   .     A
C1033  C1040   1.422   .     A
C1034  H1054   1.085   .     S
C1034  C980    1.400   1_655 S
C1035  H1055   1.085   .     S
C1036  O1064   1.398   .     S
C1036  O1080   1.223   .     D
C1036  C1046   1.485   .     S
C1037  O1065   1.223   .     D
C1037  O1066   1.398   .     S
C1038  O1070   1.397   .     S
C1038  O1069   1.223   .     D
C1038  C802    1.485   1_565 S
C1039  O1071   1.223   .     D
C1039  O1072   1.397   .     S
C1040  O1067   1.383   .     S
C1041  O1068   1.383   .     S
C1041  C975    1.400   1_655 S
C1043  C802    1.355   1_565 S
C1043  C799    1.485   1_565 S
C1044  O1076   1.292   .     A
C1044  O1078   1.290   .     A
C1045  O1077   1.292   .     A
C1045  O1079   1.290   .     A
Cu1047 Cu1048  2.686   .     S
Cu1047 O1079   1.949   .     S
Cu1047 N1062   2.019   .     S
Cu1047 O1075   1.972   .     S
Cu1047 O1063   1.977   .     S
Cu1047 O1076   1.964   .     S
Cu1048 O1078   1.949   .     S
Cu1048 O1073   1.977   .     S
Cu1048 O1077   1.964   .     S
Cu1048 N1061   2.019   .     S
Cu1048 O1074   1.972   .     S
H1051  O1070   1.013   .     S
H1052  O1072   1.013   .     S
H1056  N341    1.028   1_556 S
H1058  O1064   1.014   .     S
H1059  O1066   1.014   .     S
H1060  O827    0.992   1_565 S
N1062  N341    1.295   1_556 S
N1062  H337    1.028   1_556 S
O1068  H810    0.992   1_565 S
