data_str_m2_o10_o18_pcu_sym.134
_audit_creation_date              2020-01-03
_audit_creation_method            'Materials Studio'
_symmetry_space_group_name_H-M    'P1'
_symmetry_Int_Tables_number       1
_symmetry_cell_setting            triclinic
loop_
_symmetry_equiv_pos_as_xyz
  x,y,z
_cell_length_a                    22.5079
_cell_length_b                    26.0605
_cell_length_c                    31.2748
_cell_angle_alpha                 94.3367
_cell_angle_beta                  75.2449
_cell_angle_gamma                 103.2493
loop_
_atom_site_label
_atom_site_type_symbol
_atom_site_fract_x
_atom_site_fract_y
_atom_site_fract_z
_atom_site_U_iso_or_equiv
_atom_site_adp_type
_atom_site_occupancy
C1     C     0.18167   0.26664   0.25133   0.00000  Uiso   1.00
C2     C     0.15167   0.06669   0.24867   0.00000  Uiso   1.00
C3     C     0.10332   0.14227   0.04213   0.00000  Uiso   1.00
C4     C     0.24591   0.20189   0.45807   0.00000  Uiso   1.00
C5     C     0.06301   0.11935   0.01546   0.00000  Uiso   1.00
C6     C     0.29021   0.21094   0.48333   0.00000  Uiso   1.00
C7     C     0.18998   0.32269   0.25199   0.00000  Uiso   1.00
C8     C     0.14336   0.01063   0.24798   0.00000  Uiso   1.00
C9     C     0.12838   0.16324   0.33326   0.00000  Uiso   1.00
C10    C     0.20522   0.17222   0.16682   0.00000  Uiso   1.00
C11    C     0.10601   0.15805   0.38146   0.00000  Uiso   1.00
C12    C     0.22846   0.18174   0.11902   0.00000  Uiso   1.00
C13    C     0.03497   0.11135   0.44505   0.00000  Uiso   1.00
C14    C     0.31389   0.20297   0.05370   0.00000  Uiso   1.00
C15    C     0.04989   0.12283   0.40025   0.00000  Uiso   1.00
C16    C     0.29171   0.18533   0.09728   0.00000  Uiso   1.00
C17    C     0.14577   0.18404   0.40826   0.00000  Uiso   1.00
C18    C     0.18874   0.19662   0.09659   0.00000  Uiso   1.00
C19    C     0.13553   0.16746   0.45213   0.00000  Uiso   1.00
C20    C     0.20605   0.19337   0.04998   0.00000  Uiso   1.00
C21    C     0.07759   0.13271   0.47098   0.00000  Uiso   1.00
C22    C     0.27065   0.20426   0.02894   0.00000  Uiso   1.00
C23    C     0.18098   0.18350   0.47770   0.00000  Uiso   1.00
C24    C     0.16207   0.17530   0.02404   0.00000  Uiso   1.00
Cu25   Cu    0.10737   0.16108   0.24517   0.00000  Uiso   1.00
Cu26   Cu    0.22596   0.17225   0.25484   0.00000  Uiso   1.00
H27    H     0.01908   0.09263   0.03015   0.00000  Uiso   1.00
H28    H     0.00655   0.22040   0.46687   0.00000  Uiso   1.00
H29    H     0.32328   0.17613   0.11459   0.00000  Uiso   1.00
H30    H     0.01848   0.10316   0.38007   0.00000  Uiso   1.00
H31    H     0.32430   0.08438   0.45914   0.00000  Uiso   1.00
H32    H     0.03031   0.21119   0.03819   0.00000  Uiso   1.00
H33    H     0.08983   0.13124   0.07649   0.00000  Uiso   1.00
H34    H     0.26459   0.20356   0.42274   0.00000  Uiso   1.00
N35    N     0.31506   0.18068   0.26212   0.00000  Uiso   1.00
N36    N     0.01827   0.15265   0.23788   0.00000  Uiso   1.00
O37    O     0.12815   0.23809   0.24686   0.00000  Uiso   1.00
O38    O     0.20518   0.09524   0.25314   0.00000  Uiso   1.00
O39    O     0.22829   0.24753   0.25503   0.00000  Uiso   1.00
O40    O     0.10504   0.08580   0.24498   0.00000  Uiso   1.00
O41    O     0.08851   0.15930   0.30855   0.00000  Uiso   1.00
O42    O     0.24482   0.17403   0.19145   0.00000  Uiso   1.00
O43    O     0.18866   0.16874   0.31671   0.00000  Uiso   1.00
O44    O     0.14468   0.16460   0.18329   0.00000  Uiso   1.00
O45    O     0.16562   0.24008   0.11575   0.00000  Uiso   1.00
C46    C     0.10027   0.23011   0.12244   0.00000  Uiso   1.00
H47    H     0.08834   0.23379   0.09079   0.00000  Uiso   1.00
H48    H     0.08243   0.26079   0.14542   0.00000  Uiso   1.00
H49    H     0.07705   0.19140   0.13820   0.00000  Uiso   1.00
O50    O     0.19332   0.22663   0.39127   0.00000  Uiso   1.00
C51    C     0.16995   0.27292   0.40245   0.00000  Uiso   1.00
H52    H     0.15581   0.27891   0.43896   0.00000  Uiso   1.00
H53    H     0.12976   0.27239   0.38762   0.00000  Uiso   1.00
H54    H     0.20793   0.30716   0.38884   0.00000  Uiso   1.00
H55    H     0.23484   0.01322   0.25581   0.00000  Uiso   1.00
H56    H     0.09850   0.32009   0.24415   0.00000  Uiso   1.00
H57    H     0.00105   0.20541   0.28463   0.00000  Uiso   1.00
H58    H     0.33232   0.12798   0.21532   0.00000  Uiso   1.00
C59    C     0.51500   0.26664   0.25133   0.00000  Uiso   1.00
C60    C     0.48500   0.06669   0.24867   0.00000  Uiso   1.00
C61    C     0.43665   0.14227   0.04213   0.00000  Uiso   1.00
C62    C     0.57925   0.20189   0.45807   0.00000  Uiso   1.00
C63    C     0.39634   0.11935   0.01546   0.00000  Uiso   1.00
C64    C     0.62355   0.21094   0.48333   0.00000  Uiso   1.00
C65    C     0.52331   0.32269   0.25199   0.00000  Uiso   1.00
C66    C     0.47669   0.01063   0.24798   0.00000  Uiso   1.00
C67    C     0.46171   0.16324   0.33326   0.00000  Uiso   1.00
C68    C     0.53855   0.17222   0.16682   0.00000  Uiso   1.00
C69    C     0.43934   0.15805   0.38146   0.00000  Uiso   1.00
C70    C     0.56180   0.18174   0.11902   0.00000  Uiso   1.00
C71    C     0.36831   0.11135   0.44505   0.00000  Uiso   1.00
C72    C     0.64722   0.20297   0.05370   0.00000  Uiso   1.00
C73    C     0.38322   0.12283   0.40025   0.00000  Uiso   1.00
C74    C     0.62504   0.18533   0.09728   0.00000  Uiso   1.00
C75    C     0.47910   0.18404   0.40826   0.00000  Uiso   1.00
C76    C     0.52207   0.19662   0.09659   0.00000  Uiso   1.00
C77    C     0.46886   0.16746   0.45213   0.00000  Uiso   1.00
C78    C     0.53938   0.19337   0.04998   0.00000  Uiso   1.00
C79    C     0.41093   0.13271   0.47098   0.00000  Uiso   1.00
C80    C     0.60399   0.20426   0.02894   0.00000  Uiso   1.00
C81    C     0.51432   0.18350   0.47770   0.00000  Uiso   1.00
C82    C     0.49540   0.17530   0.02404   0.00000  Uiso   1.00
Cu83   Cu    0.44071   0.16108   0.24517   0.00000  Uiso   1.00
Cu84   Cu    0.55929   0.17225   0.25484   0.00000  Uiso   1.00
H85    H     0.35241   0.09263   0.03015   0.00000  Uiso   1.00
H86    H     0.33988   0.22040   0.46687   0.00000  Uiso   1.00
H87    H     0.65662   0.17613   0.11459   0.00000  Uiso   1.00
H88    H     0.35181   0.10316   0.38007   0.00000  Uiso   1.00
H89    H     0.65763   0.08438   0.45914   0.00000  Uiso   1.00
H90    H     0.36365   0.21119   0.03819   0.00000  Uiso   1.00
H91    H     0.42316   0.13124   0.07649   0.00000  Uiso   1.00
H92    H     0.59792   0.20356   0.42274   0.00000  Uiso   1.00
N93    N     0.64839   0.18068   0.26212   0.00000  Uiso   1.00
N94    N     0.35161   0.15265   0.23788   0.00000  Uiso   1.00
O95    O     0.46148   0.23809   0.24686   0.00000  Uiso   1.00
O96    O     0.53852   0.09524   0.25314   0.00000  Uiso   1.00
O97    O     0.56163   0.24753   0.25503   0.00000  Uiso   1.00
O98    O     0.43837   0.08580   0.24498   0.00000  Uiso   1.00
O99    O     0.42185   0.15930   0.30855   0.00000  Uiso   1.00
O100   O     0.57815   0.17403   0.19145   0.00000  Uiso   1.00
O101   O     0.52199   0.16874   0.31671   0.00000  Uiso   1.00
O102   O     0.47801   0.16460   0.18329   0.00000  Uiso   1.00
O103   O     0.49896   0.24008   0.11575   0.00000  Uiso   1.00
C104   C     0.43360   0.23011   0.12244   0.00000  Uiso   1.00
H105   H     0.42167   0.23379   0.09079   0.00000  Uiso   1.00
H106   H     0.41576   0.26079   0.14542   0.00000  Uiso   1.00
H107   H     0.41038   0.19140   0.13820   0.00000  Uiso   1.00
O108   O     0.52666   0.22663   0.39127   0.00000  Uiso   1.00
C109   C     0.50328   0.27292   0.40245   0.00000  Uiso   1.00
H110   H     0.48914   0.27891   0.43896   0.00000  Uiso   1.00
H111   H     0.46309   0.27239   0.38762   0.00000  Uiso   1.00
H112   H     0.54126   0.30716   0.38884   0.00000  Uiso   1.00
H113   H     0.56817   0.01322   0.25581   0.00000  Uiso   1.00
H114   H     0.43184   0.32009   0.24415   0.00000  Uiso   1.00
H115   H     0.33438   0.20541   0.28463   0.00000  Uiso   1.00
H116   H     0.66565   0.12798   0.21532   0.00000  Uiso   1.00
C117   C     0.84833   0.26664   0.25133   0.00000  Uiso   1.00
C118   C     0.81833   0.06669   0.24867   0.00000  Uiso   1.00
C119   C     0.76998   0.14227   0.04213   0.00000  Uiso   1.00
C120   C     0.91258   0.20189   0.45807   0.00000  Uiso   1.00
C121   C     0.72967   0.11935   0.01546   0.00000  Uiso   1.00
C122   C     0.95688   0.21094   0.48333   0.00000  Uiso   1.00
C123   C     0.85664   0.32269   0.25199   0.00000  Uiso   1.00
C124   C     0.81002   0.01063   0.24798   0.00000  Uiso   1.00
C125   C     0.79505   0.16324   0.33326   0.00000  Uiso   1.00
C126   C     0.87189   0.17222   0.16682   0.00000  Uiso   1.00
C127   C     0.77267   0.15805   0.38146   0.00000  Uiso   1.00
C128   C     0.89513   0.18174   0.11902   0.00000  Uiso   1.00
C129   C     0.70164   0.11135   0.44505   0.00000  Uiso   1.00
C130   C     0.98055   0.20297   0.05370   0.00000  Uiso   1.00
C131   C     0.71656   0.12283   0.40025   0.00000  Uiso   1.00
C132   C     0.95837   0.18533   0.09728   0.00000  Uiso   1.00
C133   C     0.81244   0.18404   0.40826   0.00000  Uiso   1.00
C134   C     0.85541   0.19662   0.09659   0.00000  Uiso   1.00
C135   C     0.80219   0.16746   0.45213   0.00000  Uiso   1.00
C136   C     0.87272   0.19337   0.04998   0.00000  Uiso   1.00
C137   C     0.74426   0.13271   0.47098   0.00000  Uiso   1.00
C138   C     0.93732   0.20426   0.02894   0.00000  Uiso   1.00
C139   C     0.84765   0.18350   0.47770   0.00000  Uiso   1.00
C140   C     0.82874   0.17530   0.02404   0.00000  Uiso   1.00
Cu141  Cu    0.77404   0.16108   0.24517   0.00000  Uiso   1.00
Cu142  Cu    0.89263   0.17225   0.25484   0.00000  Uiso   1.00
H143   H     0.68575   0.09263   0.03015   0.00000  Uiso   1.00
H144   H     0.67321   0.22040   0.46687   0.00000  Uiso   1.00
H145   H     0.98995   0.17613   0.11459   0.00000  Uiso   1.00
H146   H     0.68515   0.10316   0.38007   0.00000  Uiso   1.00
H147   H     0.99097   0.08438   0.45914   0.00000  Uiso   1.00
H148   H     0.69698   0.21119   0.03819   0.00000  Uiso   1.00
H149   H     0.75650   0.13124   0.07649   0.00000  Uiso   1.00
H150   H     0.93126   0.20356   0.42274   0.00000  Uiso   1.00
N151   N     0.98173   0.18068   0.26212   0.00000  Uiso   1.00
N152   N     0.68494   0.15265   0.23788   0.00000  Uiso   1.00
O153   O     0.79482   0.23809   0.24686   0.00000  Uiso   1.00
O154   O     0.87185   0.09524   0.25314   0.00000  Uiso   1.00
O155   O     0.89496   0.24753   0.25503   0.00000  Uiso   1.00
O156   O     0.77171   0.08580   0.24498   0.00000  Uiso   1.00
O157   O     0.75518   0.15930   0.30855   0.00000  Uiso   1.00
O158   O     0.91149   0.17403   0.19145   0.00000  Uiso   1.00
O159   O     0.85532   0.16874   0.31671   0.00000  Uiso   1.00
O160   O     0.81134   0.16460   0.18329   0.00000  Uiso   1.00
O161   O     0.83229   0.24008   0.11575   0.00000  Uiso   1.00
C162   C     0.76694   0.23011   0.12244   0.00000  Uiso   1.00
H163   H     0.75501   0.23379   0.09079   0.00000  Uiso   1.00
H164   H     0.74909   0.26079   0.14542   0.00000  Uiso   1.00
H165   H     0.74371   0.19140   0.13820   0.00000  Uiso   1.00
O166   O     0.85999   0.22663   0.39127   0.00000  Uiso   1.00
C167   C     0.83661   0.27292   0.40245   0.00000  Uiso   1.00
H168   H     0.82248   0.27891   0.43896   0.00000  Uiso   1.00
H169   H     0.79643   0.27239   0.38762   0.00000  Uiso   1.00
H170   H     0.87459   0.30716   0.38884   0.00000  Uiso   1.00
H171   H     0.90150   0.01322   0.25581   0.00000  Uiso   1.00
H172   H     0.76517   0.32009   0.24415   0.00000  Uiso   1.00
H173   H     0.66772   0.20541   0.28463   0.00000  Uiso   1.00
H174   H     0.99898   0.12798   0.21532   0.00000  Uiso   1.00
C175   C     0.18167   0.59998   0.25133   0.00000  Uiso   1.00
C176   C     0.15167   0.40002   0.24867   0.00000  Uiso   1.00
C177   C     0.10332   0.47560   0.04213   0.00000  Uiso   1.00
C178   C     0.24591   0.53522   0.45807   0.00000  Uiso   1.00
C179   C     0.06301   0.45268   0.01546   0.00000  Uiso   1.00
C180   C     0.29021   0.54428   0.48333   0.00000  Uiso   1.00
C181   C     0.18998   0.65602   0.25199   0.00000  Uiso   1.00
C182   C     0.14336   0.34396   0.24798   0.00000  Uiso   1.00
C183   C     0.12838   0.49657   0.33326   0.00000  Uiso   1.00
C184   C     0.20522   0.50555   0.16682   0.00000  Uiso   1.00
C185   C     0.10601   0.49138   0.38146   0.00000  Uiso   1.00
C186   C     0.22846   0.51507   0.11902   0.00000  Uiso   1.00
C187   C     0.03497   0.44469   0.44505   0.00000  Uiso   1.00
C188   C     0.31389   0.53631   0.05370   0.00000  Uiso   1.00
C189   C     0.04989   0.45616   0.40025   0.00000  Uiso   1.00
C190   C     0.29171   0.51866   0.09728   0.00000  Uiso   1.00
C191   C     0.14577   0.51737   0.40826   0.00000  Uiso   1.00
C192   C     0.18874   0.52995   0.09659   0.00000  Uiso   1.00
C193   C     0.13553   0.50079   0.45213   0.00000  Uiso   1.00
C194   C     0.20605   0.52671   0.04998   0.00000  Uiso   1.00
C195   C     0.07759   0.46604   0.47098   0.00000  Uiso   1.00
C196   C     0.27065   0.53760   0.02894   0.00000  Uiso   1.00
C197   C     0.18098   0.51684   0.47770   0.00000  Uiso   1.00
C198   C     0.16207   0.50863   0.02404   0.00000  Uiso   1.00
Cu199  Cu    0.10737   0.49441   0.24517   0.00000  Uiso   1.00
Cu200  Cu    0.22596   0.50559   0.25484   0.00000  Uiso   1.00
H201   H     0.01908   0.42596   0.03015   0.00000  Uiso   1.00
H202   H     0.00655   0.55374   0.46687   0.00000  Uiso   1.00
H203   H     0.32328   0.50946   0.11459   0.00000  Uiso   1.00
H204   H     0.01848   0.43649   0.38007   0.00000  Uiso   1.00
H205   H     0.32430   0.41772   0.45914   0.00000  Uiso   1.00
H206   H     0.03031   0.54452   0.03819   0.00000  Uiso   1.00
H207   H     0.08983   0.46458   0.07649   0.00000  Uiso   1.00
H208   H     0.26459   0.53689   0.42274   0.00000  Uiso   1.00
N209   N     0.31506   0.51401   0.26212   0.00000  Uiso   1.00
N210   N     0.01827   0.48599   0.23788   0.00000  Uiso   1.00
O211   O     0.12815   0.57142   0.24686   0.00000  Uiso   1.00
O212   O     0.20518   0.42858   0.25314   0.00000  Uiso   1.00
O213   O     0.22829   0.58086   0.25503   0.00000  Uiso   1.00
O214   O     0.10504   0.41914   0.24498   0.00000  Uiso   1.00
O215   O     0.08851   0.49263   0.30855   0.00000  Uiso   1.00
O216   O     0.24482   0.50737   0.19145   0.00000  Uiso   1.00
O217   O     0.18866   0.50207   0.31671   0.00000  Uiso   1.00
O218   O     0.14468   0.49793   0.18329   0.00000  Uiso   1.00
O219   O     0.16562   0.57342   0.11575   0.00000  Uiso   1.00
C220   C     0.10027   0.56344   0.12244   0.00000  Uiso   1.00
H221   H     0.08834   0.56712   0.09079   0.00000  Uiso   1.00
H222   H     0.08243   0.59412   0.14542   0.00000  Uiso   1.00
H223   H     0.07705   0.52473   0.13820   0.00000  Uiso   1.00
O224   O     0.19332   0.55996   0.39127   0.00000  Uiso   1.00
C225   C     0.16995   0.60626   0.40245   0.00000  Uiso   1.00
H226   H     0.15581   0.61224   0.43896   0.00000  Uiso   1.00
H227   H     0.12976   0.60572   0.38762   0.00000  Uiso   1.00
H228   H     0.20793   0.64049   0.38884   0.00000  Uiso   1.00
H229   H     0.23484   0.34656   0.25581   0.00000  Uiso   1.00
H230   H     0.09850   0.65342   0.24415   0.00000  Uiso   1.00
H231   H     0.00105   0.53875   0.28463   0.00000  Uiso   1.00
H232   H     0.33232   0.46131   0.21532   0.00000  Uiso   1.00
C233   C     0.51500   0.59998   0.25133   0.00000  Uiso   1.00
C234   C     0.48500   0.40002   0.24867   0.00000  Uiso   1.00
C235   C     0.43665   0.47560   0.04213   0.00000  Uiso   1.00
C236   C     0.57925   0.53522   0.45807   0.00000  Uiso   1.00
C237   C     0.39634   0.45268   0.01546   0.00000  Uiso   1.00
C238   C     0.62355   0.54428   0.48333   0.00000  Uiso   1.00
C239   C     0.52331   0.65602   0.25199   0.00000  Uiso   1.00
C240   C     0.47669   0.34396   0.24798   0.00000  Uiso   1.00
C241   C     0.46171   0.49657   0.33326   0.00000  Uiso   1.00
C242   C     0.53855   0.50555   0.16682   0.00000  Uiso   1.00
C243   C     0.43934   0.49138   0.38146   0.00000  Uiso   1.00
C244   C     0.56180   0.51507   0.11902   0.00000  Uiso   1.00
C245   C     0.36831   0.44469   0.44505   0.00000  Uiso   1.00
C246   C     0.64722   0.53631   0.05370   0.00000  Uiso   1.00
C247   C     0.38322   0.45616   0.40025   0.00000  Uiso   1.00
C248   C     0.62504   0.51866   0.09728   0.00000  Uiso   1.00
C249   C     0.47910   0.51737   0.40826   0.00000  Uiso   1.00
C250   C     0.52207   0.52995   0.09659   0.00000  Uiso   1.00
C251   C     0.46886   0.50079   0.45213   0.00000  Uiso   1.00
C252   C     0.53938   0.52671   0.04998   0.00000  Uiso   1.00
C253   C     0.41093   0.46604   0.47098   0.00000  Uiso   1.00
C254   C     0.60399   0.53760   0.02894   0.00000  Uiso   1.00
C255   C     0.51432   0.51684   0.47770   0.00000  Uiso   1.00
C256   C     0.49540   0.50863   0.02404   0.00000  Uiso   1.00
Cu257  Cu    0.44071   0.49441   0.24517   0.00000  Uiso   1.00
Cu258  Cu    0.55929   0.50559   0.25484   0.00000  Uiso   1.00
H259   H     0.35241   0.42596   0.03015   0.00000  Uiso   1.00
H260   H     0.33988   0.55374   0.46687   0.00000  Uiso   1.00
H261   H     0.65662   0.50946   0.11459   0.00000  Uiso   1.00
H262   H     0.35181   0.43649   0.38007   0.00000  Uiso   1.00
H263   H     0.65763   0.41772   0.45914   0.00000  Uiso   1.00
H264   H     0.36365   0.54452   0.03819   0.00000  Uiso   1.00
H265   H     0.42316   0.46458   0.07649   0.00000  Uiso   1.00
H266   H     0.59792   0.53689   0.42274   0.00000  Uiso   1.00
N267   N     0.64839   0.51401   0.26212   0.00000  Uiso   1.00
N268   N     0.35161   0.48599   0.23788   0.00000  Uiso   1.00
O269   O     0.46148   0.57142   0.24686   0.00000  Uiso   1.00
O270   O     0.53852   0.42858   0.25314   0.00000  Uiso   1.00
O271   O     0.56163   0.58086   0.25503   0.00000  Uiso   1.00
O272   O     0.43837   0.41914   0.24498   0.00000  Uiso   1.00
O273   O     0.42185   0.49263   0.30855   0.00000  Uiso   1.00
O274   O     0.57815   0.50737   0.19145   0.00000  Uiso   1.00
O275   O     0.52199   0.50207   0.31671   0.00000  Uiso   1.00
O276   O     0.47801   0.49793   0.18329   0.00000  Uiso   1.00
O277   O     0.49896   0.57342   0.11575   0.00000  Uiso   1.00
C278   C     0.43360   0.56344   0.12244   0.00000  Uiso   1.00
H279   H     0.42167   0.56712   0.09079   0.00000  Uiso   1.00
H280   H     0.41576   0.59412   0.14542   0.00000  Uiso   1.00
H281   H     0.41038   0.52473   0.13820   0.00000  Uiso   1.00
O282   O     0.52666   0.55996   0.39127   0.00000  Uiso   1.00
C283   C     0.50328   0.60626   0.40245   0.00000  Uiso   1.00
H284   H     0.48914   0.61224   0.43896   0.00000  Uiso   1.00
H285   H     0.46309   0.60572   0.38762   0.00000  Uiso   1.00
H286   H     0.54126   0.64049   0.38884   0.00000  Uiso   1.00
H287   H     0.56817   0.34656   0.25581   0.00000  Uiso   1.00
H288   H     0.43184   0.65342   0.24415   0.00000  Uiso   1.00
H289   H     0.33438   0.53875   0.28463   0.00000  Uiso   1.00
H290   H     0.66565   0.46131   0.21532   0.00000  Uiso   1.00
C291   C     0.84833   0.59998   0.25133   0.00000  Uiso   1.00
C292   C     0.81833   0.40002   0.24867   0.00000  Uiso   1.00
C293   C     0.76998   0.47560   0.04213   0.00000  Uiso   1.00
C294   C     0.91258   0.53522   0.45807   0.00000  Uiso   1.00
C295   C     0.72967   0.45268   0.01546   0.00000  Uiso   1.00
C296   C     0.95688   0.54428   0.48333   0.00000  Uiso   1.00
C297   C     0.85664   0.65602   0.25199   0.00000  Uiso   1.00
C298   C     0.81002   0.34396   0.24798   0.00000  Uiso   1.00
C299   C     0.79505   0.49657   0.33326   0.00000  Uiso   1.00
C300   C     0.87189   0.50555   0.16682   0.00000  Uiso   1.00
C301   C     0.77267   0.49138   0.38146   0.00000  Uiso   1.00
C302   C     0.89513   0.51507   0.11902   0.00000  Uiso   1.00
C303   C     0.70164   0.44469   0.44505   0.00000  Uiso   1.00
C304   C     0.98055   0.53631   0.05370   0.00000  Uiso   1.00
C305   C     0.71656   0.45616   0.40025   0.00000  Uiso   1.00
C306   C     0.95837   0.51866   0.09728   0.00000  Uiso   1.00
C307   C     0.81244   0.51737   0.40826   0.00000  Uiso   1.00
C308   C     0.85541   0.52995   0.09659   0.00000  Uiso   1.00
C309   C     0.80219   0.50079   0.45213   0.00000  Uiso   1.00
C310   C     0.87272   0.52671   0.04998   0.00000  Uiso   1.00
C311   C     0.74426   0.46604   0.47098   0.00000  Uiso   1.00
C312   C     0.93732   0.53760   0.02894   0.00000  Uiso   1.00
C313   C     0.84765   0.51684   0.47770   0.00000  Uiso   1.00
C314   C     0.82874   0.50863   0.02404   0.00000  Uiso   1.00
Cu315  Cu    0.77404   0.49441   0.24517   0.00000  Uiso   1.00
Cu316  Cu    0.89263   0.50559   0.25484   0.00000  Uiso   1.00
H317   H     0.68575   0.42596   0.03015   0.00000  Uiso   1.00
H318   H     0.67321   0.55374   0.46687   0.00000  Uiso   1.00
H319   H     0.98995   0.50946   0.11459   0.00000  Uiso   1.00
H320   H     0.68515   0.43649   0.38007   0.00000  Uiso   1.00
H321   H     0.99097   0.41772   0.45914   0.00000  Uiso   1.00
H322   H     0.69698   0.54452   0.03819   0.00000  Uiso   1.00
H323   H     0.75650   0.46458   0.07649   0.00000  Uiso   1.00
H324   H     0.93126   0.53689   0.42274   0.00000  Uiso   1.00
N325   N     0.98173   0.51401   0.26212   0.00000  Uiso   1.00
N326   N     0.68494   0.48599   0.23788   0.00000  Uiso   1.00
O327   O     0.79482   0.57142   0.24686   0.00000  Uiso   1.00
O328   O     0.87185   0.42858   0.25314   0.00000  Uiso   1.00
O329   O     0.89496   0.58086   0.25503   0.00000  Uiso   1.00
O330   O     0.77171   0.41914   0.24498   0.00000  Uiso   1.00
O331   O     0.75518   0.49263   0.30855   0.00000  Uiso   1.00
O332   O     0.91149   0.50737   0.19145   0.00000  Uiso   1.00
O333   O     0.85532   0.50207   0.31671   0.00000  Uiso   1.00
O334   O     0.81134   0.49793   0.18329   0.00000  Uiso   1.00
O335   O     0.83229   0.57342   0.11575   0.00000  Uiso   1.00
C336   C     0.76694   0.56344   0.12244   0.00000  Uiso   1.00
H337   H     0.75501   0.56712   0.09079   0.00000  Uiso   1.00
H338   H     0.74909   0.59412   0.14542   0.00000  Uiso   1.00
H339   H     0.74371   0.52473   0.13820   0.00000  Uiso   1.00
O340   O     0.85999   0.55996   0.39127   0.00000  Uiso   1.00
C341   C     0.83661   0.60626   0.40245   0.00000  Uiso   1.00
H342   H     0.82248   0.61224   0.43896   0.00000  Uiso   1.00
H343   H     0.79643   0.60572   0.38762   0.00000  Uiso   1.00
H344   H     0.87459   0.64049   0.38884   0.00000  Uiso   1.00
H345   H     0.90150   0.34656   0.25581   0.00000  Uiso   1.00
H346   H     0.76517   0.65342   0.24415   0.00000  Uiso   1.00
H347   H     0.66772   0.53875   0.28463   0.00000  Uiso   1.00
H348   H     0.99898   0.46131   0.21532   0.00000  Uiso   1.00
C349   C     0.18167   0.93331   0.25133   0.00000  Uiso   1.00
C350   C     0.15167   0.73335   0.24867   0.00000  Uiso   1.00
C351   C     0.10332   0.80893   0.04213   0.00000  Uiso   1.00
C352   C     0.24591   0.86856   0.45807   0.00000  Uiso   1.00
C353   C     0.06301   0.78601   0.01546   0.00000  Uiso   1.00
C354   C     0.29021   0.87761   0.48333   0.00000  Uiso   1.00
C355   C     0.18998   0.98936   0.25199   0.00000  Uiso   1.00
C356   C     0.14336   0.67729   0.24798   0.00000  Uiso   1.00
C357   C     0.12838   0.82991   0.33326   0.00000  Uiso   1.00
C358   C     0.20522   0.83888   0.16682   0.00000  Uiso   1.00
C359   C     0.10601   0.82471   0.38146   0.00000  Uiso   1.00
C360   C     0.22846   0.84840   0.11902   0.00000  Uiso   1.00
C361   C     0.03497   0.77802   0.44505   0.00000  Uiso   1.00
C362   C     0.31389   0.86964   0.05370   0.00000  Uiso   1.00
C363   C     0.04989   0.78949   0.40025   0.00000  Uiso   1.00
C364   C     0.29171   0.85200   0.09728   0.00000  Uiso   1.00
C365   C     0.14577   0.85070   0.40826   0.00000  Uiso   1.00
C366   C     0.18874   0.86328   0.09659   0.00000  Uiso   1.00
C367   C     0.13553   0.83412   0.45213   0.00000  Uiso   1.00
C368   C     0.20605   0.86004   0.04998   0.00000  Uiso   1.00
C369   C     0.07759   0.79938   0.47098   0.00000  Uiso   1.00
C370   C     0.27065   0.87093   0.02894   0.00000  Uiso   1.00
C371   C     0.18098   0.85017   0.47770   0.00000  Uiso   1.00
C372   C     0.16207   0.84196   0.02404   0.00000  Uiso   1.00
Cu373  Cu    0.10737   0.82775   0.24517   0.00000  Uiso   1.00
Cu374  Cu    0.22596   0.83892   0.25484   0.00000  Uiso   1.00
H375   H     0.01908   0.75929   0.03015   0.00000  Uiso   1.00
H376   H     0.00655   0.88707   0.46687   0.00000  Uiso   1.00
H377   H     0.32328   0.84279   0.11459   0.00000  Uiso   1.00
H378   H     0.01848   0.76983   0.38007   0.00000  Uiso   1.00
H379   H     0.32430   0.75105   0.45914   0.00000  Uiso   1.00
H380   H     0.03031   0.87785   0.03819   0.00000  Uiso   1.00
H381   H     0.08983   0.79791   0.07649   0.00000  Uiso   1.00
H382   H     0.26459   0.87023   0.42274   0.00000  Uiso   1.00
N383   N     0.31506   0.84735   0.26212   0.00000  Uiso   1.00
N384   N     0.01827   0.81932   0.23788   0.00000  Uiso   1.00
O385   O     0.12815   0.90476   0.24686   0.00000  Uiso   1.00
O386   O     0.20518   0.76191   0.25314   0.00000  Uiso   1.00
O387   O     0.22829   0.91420   0.25503   0.00000  Uiso   1.00
O388   O     0.10504   0.75247   0.24498   0.00000  Uiso   1.00
O389   O     0.08851   0.82597   0.30855   0.00000  Uiso   1.00
O390   O     0.24482   0.84070   0.19145   0.00000  Uiso   1.00
O391   O     0.18866   0.83540   0.31671   0.00000  Uiso   1.00
O392   O     0.14468   0.83126   0.18329   0.00000  Uiso   1.00
O393   O     0.16562   0.90675   0.11575   0.00000  Uiso   1.00
C394   C     0.10027   0.89678   0.12244   0.00000  Uiso   1.00
H395   H     0.08834   0.90046   0.09079   0.00000  Uiso   1.00
H396   H     0.08243   0.92746   0.14542   0.00000  Uiso   1.00
H397   H     0.07705   0.85807   0.13820   0.00000  Uiso   1.00
O398   O     0.19332   0.89330   0.39127   0.00000  Uiso   1.00
C399   C     0.16995   0.93959   0.40245   0.00000  Uiso   1.00
H400   H     0.15581   0.94558   0.43896   0.00000  Uiso   1.00
H401   H     0.12976   0.93905   0.38762   0.00000  Uiso   1.00
H402   H     0.20793   0.97383   0.38884   0.00000  Uiso   1.00
H403   H     0.23484   0.67989   0.25581   0.00000  Uiso   1.00
H404   H     0.09850   0.98676   0.24415   0.00000  Uiso   1.00
H405   H     0.00105   0.87208   0.28463   0.00000  Uiso   1.00
H406   H     0.33232   0.79465   0.21532   0.00000  Uiso   1.00
C407   C     0.51500   0.93331   0.25133   0.00000  Uiso   1.00
C408   C     0.48500   0.73335   0.24867   0.00000  Uiso   1.00
C409   C     0.43665   0.80893   0.04213   0.00000  Uiso   1.00
C410   C     0.57925   0.86856   0.45807   0.00000  Uiso   1.00
C411   C     0.39634   0.78601   0.01546   0.00000  Uiso   1.00
C412   C     0.62355   0.87761   0.48333   0.00000  Uiso   1.00
C413   C     0.52331   0.98936   0.25199   0.00000  Uiso   1.00
C414   C     0.47669   0.67729   0.24798   0.00000  Uiso   1.00
C415   C     0.46171   0.82991   0.33326   0.00000  Uiso   1.00
C416   C     0.53855   0.83888   0.16682   0.00000  Uiso   1.00
C417   C     0.43934   0.82471   0.38146   0.00000  Uiso   1.00
C418   C     0.56180   0.84840   0.11902   0.00000  Uiso   1.00
C419   C     0.36831   0.77802   0.44505   0.00000  Uiso   1.00
C420   C     0.64722   0.86964   0.05370   0.00000  Uiso   1.00
C421   C     0.38322   0.78949   0.40025   0.00000  Uiso   1.00
C422   C     0.62504   0.85200   0.09728   0.00000  Uiso   1.00
C423   C     0.47910   0.85070   0.40826   0.00000  Uiso   1.00
C424   C     0.52207   0.86328   0.09659   0.00000  Uiso   1.00
C425   C     0.46886   0.83412   0.45213   0.00000  Uiso   1.00
C426   C     0.53938   0.86004   0.04998   0.00000  Uiso   1.00
C427   C     0.41093   0.79938   0.47098   0.00000  Uiso   1.00
C428   C     0.60399   0.87093   0.02894   0.00000  Uiso   1.00
C429   C     0.51432   0.85017   0.47770   0.00000  Uiso   1.00
C430   C     0.49540   0.84196   0.02404   0.00000  Uiso   1.00
Cu431  Cu    0.44071   0.82775   0.24517   0.00000  Uiso   1.00
Cu432  Cu    0.55929   0.83892   0.25484   0.00000  Uiso   1.00
H433   H     0.35241   0.75929   0.03015   0.00000  Uiso   1.00
H434   H     0.33988   0.88707   0.46687   0.00000  Uiso   1.00
H435   H     0.65662   0.84279   0.11459   0.00000  Uiso   1.00
H436   H     0.35181   0.76983   0.38007   0.00000  Uiso   1.00
H437   H     0.65763   0.75105   0.45914   0.00000  Uiso   1.00
H438   H     0.36365   0.87785   0.03819   0.00000  Uiso   1.00
H439   H     0.42316   0.79791   0.07649   0.00000  Uiso   1.00
H440   H     0.59792   0.87023   0.42274   0.00000  Uiso   1.00
N441   N     0.64839   0.84735   0.26212   0.00000  Uiso   1.00
N442   N     0.35161   0.81932   0.23788   0.00000  Uiso   1.00
O443   O     0.46148   0.90476   0.24686   0.00000  Uiso   1.00
O444   O     0.53852   0.76191   0.25314   0.00000  Uiso   1.00
O445   O     0.56163   0.91420   0.25503   0.00000  Uiso   1.00
O446   O     0.43837   0.75247   0.24498   0.00000  Uiso   1.00
O447   O     0.42185   0.82597   0.30855   0.00000  Uiso   1.00
O448   O     0.57815   0.84070   0.19145   0.00000  Uiso   1.00
O449   O     0.52199   0.83540   0.31671   0.00000  Uiso   1.00
O450   O     0.47801   0.83126   0.18329   0.00000  Uiso   1.00
O451   O     0.49896   0.90675   0.11575   0.00000  Uiso   1.00
C452   C     0.43360   0.89678   0.12244   0.00000  Uiso   1.00
H453   H     0.42167   0.90046   0.09079   0.00000  Uiso   1.00
H454   H     0.41576   0.92746   0.14542   0.00000  Uiso   1.00
H455   H     0.41038   0.85807   0.13820   0.00000  Uiso   1.00
O456   O     0.52666   0.89330   0.39127   0.00000  Uiso   1.00
C457   C     0.50328   0.93959   0.40245   0.00000  Uiso   1.00
H458   H     0.48914   0.94558   0.43896   0.00000  Uiso   1.00
H459   H     0.46309   0.93905   0.38762   0.00000  Uiso   1.00
H460   H     0.54126   0.97383   0.38884   0.00000  Uiso   1.00
H461   H     0.56817   0.67989   0.25581   0.00000  Uiso   1.00
H462   H     0.43184   0.98676   0.24415   0.00000  Uiso   1.00
H463   H     0.33438   0.87208   0.28463   0.00000  Uiso   1.00
H464   H     0.66565   0.79465   0.21532   0.00000  Uiso   1.00
C465   C     0.84833   0.93331   0.25133   0.00000  Uiso   1.00
C466   C     0.81833   0.73335   0.24867   0.00000  Uiso   1.00
C467   C     0.76998   0.80893   0.04213   0.00000  Uiso   1.00
C468   C     0.91258   0.86856   0.45807   0.00000  Uiso   1.00
C469   C     0.72967   0.78601   0.01546   0.00000  Uiso   1.00
C470   C     0.95688   0.87761   0.48333   0.00000  Uiso   1.00
C471   C     0.85664   0.98936   0.25199   0.00000  Uiso   1.00
C472   C     0.81002   0.67729   0.24798   0.00000  Uiso   1.00
C473   C     0.79505   0.82991   0.33326   0.00000  Uiso   1.00
C474   C     0.87189   0.83888   0.16682   0.00000  Uiso   1.00
C475   C     0.77267   0.82471   0.38146   0.00000  Uiso   1.00
C476   C     0.89513   0.84840   0.11902   0.00000  Uiso   1.00
C477   C     0.70164   0.77802   0.44505   0.00000  Uiso   1.00
C478   C     0.98055   0.86964   0.05370   0.00000  Uiso   1.00
C479   C     0.71656   0.78949   0.40025   0.00000  Uiso   1.00
C480   C     0.95837   0.85200   0.09728   0.00000  Uiso   1.00
C481   C     0.81244   0.85070   0.40826   0.00000  Uiso   1.00
C482   C     0.85541   0.86328   0.09659   0.00000  Uiso   1.00
C483   C     0.80219   0.83412   0.45213   0.00000  Uiso   1.00
C484   C     0.87272   0.86004   0.04998   0.00000  Uiso   1.00
C485   C     0.74426   0.79938   0.47098   0.00000  Uiso   1.00
C486   C     0.93732   0.87093   0.02894   0.00000  Uiso   1.00
C487   C     0.84765   0.85017   0.47770   0.00000  Uiso   1.00
C488   C     0.82874   0.84196   0.02404   0.00000  Uiso   1.00
Cu489  Cu    0.77404   0.82775   0.24517   0.00000  Uiso   1.00
Cu490  Cu    0.89263   0.83892   0.25484   0.00000  Uiso   1.00
H491   H     0.68575   0.75929   0.03015   0.00000  Uiso   1.00
H492   H     0.67321   0.88707   0.46687   0.00000  Uiso   1.00
H493   H     0.98995   0.84279   0.11459   0.00000  Uiso   1.00
H494   H     0.68515   0.76983   0.38007   0.00000  Uiso   1.00
H495   H     0.99097   0.75105   0.45914   0.00000  Uiso   1.00
H496   H     0.69698   0.87785   0.03819   0.00000  Uiso   1.00
H497   H     0.75650   0.79791   0.07649   0.00000  Uiso   1.00
H498   H     0.93126   0.87023   0.42274   0.00000  Uiso   1.00
N499   N     0.98173   0.84735   0.26212   0.00000  Uiso   1.00
N500   N     0.68494   0.81932   0.23788   0.00000  Uiso   1.00
O501   O     0.79482   0.90476   0.24686   0.00000  Uiso   1.00
O502   O     0.87185   0.76191   0.25314   0.00000  Uiso   1.00
O503   O     0.89496   0.91420   0.25503   0.00000  Uiso   1.00
O504   O     0.77171   0.75247   0.24498   0.00000  Uiso   1.00
O505   O     0.75518   0.82597   0.30855   0.00000  Uiso   1.00
O506   O     0.91149   0.84070   0.19145   0.00000  Uiso   1.00
O507   O     0.85532   0.83540   0.31671   0.00000  Uiso   1.00
O508   O     0.81134   0.83126   0.18329   0.00000  Uiso   1.00
O509   O     0.83229   0.90675   0.11575   0.00000  Uiso   1.00
C510   C     0.76694   0.89678   0.12244   0.00000  Uiso   1.00
H511   H     0.75501   0.90046   0.09079   0.00000  Uiso   1.00
H512   H     0.74909   0.92746   0.14542   0.00000  Uiso   1.00
H513   H     0.74371   0.85807   0.13820   0.00000  Uiso   1.00
O514   O     0.85999   0.89330   0.39127   0.00000  Uiso   1.00
C515   C     0.83661   0.93959   0.40245   0.00000  Uiso   1.00
H516   H     0.82248   0.94558   0.43896   0.00000  Uiso   1.00
H517   H     0.79643   0.93905   0.38762   0.00000  Uiso   1.00
H518   H     0.87459   0.97383   0.38884   0.00000  Uiso   1.00
H519   H     0.90150   0.67989   0.25581   0.00000  Uiso   1.00
H520   H     0.76517   0.98676   0.24415   0.00000  Uiso   1.00
H521   H     0.66772   0.87208   0.28463   0.00000  Uiso   1.00
H522   H     0.99898   0.79465   0.21532   0.00000  Uiso   1.00
C523   C     0.18167   0.26664   0.75133   0.00000  Uiso   1.00
C524   C     0.15167   0.06669   0.74867   0.00000  Uiso   1.00
C525   C     0.10332   0.14227   0.54213   0.00000  Uiso   1.00
C526   C     0.24591   0.20189   0.95807   0.00000  Uiso   1.00
C527   C     0.06301   0.11935   0.51546   0.00000  Uiso   1.00
C528   C     0.29021   0.21094   0.98333   0.00000  Uiso   1.00
C529   C     0.18998   0.32269   0.75199   0.00000  Uiso   1.00
C530   C     0.14336   0.01063   0.74798   0.00000  Uiso   1.00
C531   C     0.12838   0.16324   0.83326   0.00000  Uiso   1.00
C532   C     0.20522   0.17222   0.66682   0.00000  Uiso   1.00
C533   C     0.10601   0.15805   0.88146   0.00000  Uiso   1.00
C534   C     0.22846   0.18174   0.61902   0.00000  Uiso   1.00
C535   C     0.03497   0.11135   0.94505   0.00000  Uiso   1.00
C536   C     0.31389   0.20297   0.55370   0.00000  Uiso   1.00
C537   C     0.04989   0.12283   0.90025   0.00000  Uiso   1.00
C538   C     0.29171   0.18533   0.59728   0.00000  Uiso   1.00
C539   C     0.14577   0.18404   0.90826   0.00000  Uiso   1.00
C540   C     0.18874   0.19662   0.59659   0.00000  Uiso   1.00
C541   C     0.13553   0.16746   0.95213   0.00000  Uiso   1.00
C542   C     0.20605   0.19337   0.54998   0.00000  Uiso   1.00
C543   C     0.07759   0.13271   0.97098   0.00000  Uiso   1.00
C544   C     0.27065   0.20426   0.52894   0.00000  Uiso   1.00
C545   C     0.18098   0.18350   0.97770   0.00000  Uiso   1.00
C546   C     0.16207   0.17530   0.52404   0.00000  Uiso   1.00
Cu547  Cu    0.10737   0.16108   0.74517   0.00000  Uiso   1.00
Cu548  Cu    0.22596   0.17225   0.75484   0.00000  Uiso   1.00
H549   H     0.01908   0.09263   0.53015   0.00000  Uiso   1.00
H550   H     0.00655   0.22040   0.96687   0.00000  Uiso   1.00
H551   H     0.32328   0.17613   0.61459   0.00000  Uiso   1.00
H552   H     0.01848   0.10316   0.88007   0.00000  Uiso   1.00
H553   H     0.32430   0.08438   0.95914   0.00000  Uiso   1.00
H554   H     0.03031   0.21119   0.53819   0.00000  Uiso   1.00
H555   H     0.08983   0.13124   0.57649   0.00000  Uiso   1.00
H556   H     0.26459   0.20356   0.92274   0.00000  Uiso   1.00
N557   N     0.31506   0.18068   0.76212   0.00000  Uiso   1.00
N558   N     0.01827   0.15265   0.73788   0.00000  Uiso   1.00
O559   O     0.12815   0.23809   0.74686   0.00000  Uiso   1.00
O560   O     0.20518   0.09524   0.75314   0.00000  Uiso   1.00
O561   O     0.22829   0.24753   0.75503   0.00000  Uiso   1.00
O562   O     0.10504   0.08580   0.74498   0.00000  Uiso   1.00
O563   O     0.08851   0.15930   0.80855   0.00000  Uiso   1.00
O564   O     0.24482   0.17403   0.69145   0.00000  Uiso   1.00
O565   O     0.18866   0.16874   0.81671   0.00000  Uiso   1.00
O566   O     0.14468   0.16460   0.68329   0.00000  Uiso   1.00
O567   O     0.16562   0.24008   0.61575   0.00000  Uiso   1.00
C568   C     0.10027   0.23011   0.62244   0.00000  Uiso   1.00
H569   H     0.08834   0.23379   0.59079   0.00000  Uiso   1.00
H570   H     0.08243   0.26079   0.64542   0.00000  Uiso   1.00
H571   H     0.07705   0.19140   0.63820   0.00000  Uiso   1.00
O572   O     0.19332   0.22663   0.89127   0.00000  Uiso   1.00
C573   C     0.16995   0.27292   0.90245   0.00000  Uiso   1.00
H574   H     0.15581   0.27891   0.93896   0.00000  Uiso   1.00
H575   H     0.12976   0.27239   0.88762   0.00000  Uiso   1.00
H576   H     0.20793   0.30716   0.88884   0.00000  Uiso   1.00
H577   H     0.23484   0.01322   0.75581   0.00000  Uiso   1.00
H578   H     0.09850   0.32009   0.74415   0.00000  Uiso   1.00
H579   H     0.00105   0.20541   0.78463   0.00000  Uiso   1.00
H580   H     0.33232   0.12798   0.71532   0.00000  Uiso   1.00
C581   C     0.51500   0.26664   0.75133   0.00000  Uiso   1.00
C582   C     0.48500   0.06669   0.74867   0.00000  Uiso   1.00
C583   C     0.43665   0.14227   0.54213   0.00000  Uiso   1.00
C584   C     0.57925   0.20189   0.95807   0.00000  Uiso   1.00
C585   C     0.39634   0.11935   0.51546   0.00000  Uiso   1.00
C586   C     0.62355   0.21094   0.98333   0.00000  Uiso   1.00
C587   C     0.52331   0.32269   0.75199   0.00000  Uiso   1.00
C588   C     0.47669   0.01063   0.74798   0.00000  Uiso   1.00
C589   C     0.46171   0.16324   0.83326   0.00000  Uiso   1.00
C590   C     0.53855   0.17222   0.66682   0.00000  Uiso   1.00
C591   C     0.43934   0.15805   0.88146   0.00000  Uiso   1.00
C592   C     0.56180   0.18174   0.61902   0.00000  Uiso   1.00
C593   C     0.36831   0.11135   0.94505   0.00000  Uiso   1.00
C594   C     0.64722   0.20297   0.55370   0.00000  Uiso   1.00
C595   C     0.38322   0.12283   0.90025   0.00000  Uiso   1.00
C596   C     0.62504   0.18533   0.59728   0.00000  Uiso   1.00
C597   C     0.47910   0.18404   0.90826   0.00000  Uiso   1.00
C598   C     0.52207   0.19662   0.59659   0.00000  Uiso   1.00
C599   C     0.46886   0.16746   0.95213   0.00000  Uiso   1.00
C600   C     0.53938   0.19337   0.54998   0.00000  Uiso   1.00
C601   C     0.41093   0.13271   0.97098   0.00000  Uiso   1.00
C602   C     0.60399   0.20426   0.52894   0.00000  Uiso   1.00
C603   C     0.51432   0.18350   0.97770   0.00000  Uiso   1.00
C604   C     0.49540   0.17530   0.52404   0.00000  Uiso   1.00
Cu605  Cu    0.44071   0.16108   0.74517   0.00000  Uiso   1.00
Cu606  Cu    0.55929   0.17225   0.75484   0.00000  Uiso   1.00
H607   H     0.35241   0.09263   0.53015   0.00000  Uiso   1.00
H608   H     0.33988   0.22040   0.96687   0.00000  Uiso   1.00
H609   H     0.65662   0.17613   0.61459   0.00000  Uiso   1.00
H610   H     0.35181   0.10316   0.88007   0.00000  Uiso   1.00
H611   H     0.65763   0.08438   0.95914   0.00000  Uiso   1.00
H612   H     0.36365   0.21119   0.53819   0.00000  Uiso   1.00
H613   H     0.42316   0.13124   0.57649   0.00000  Uiso   1.00
H614   H     0.59792   0.20356   0.92274   0.00000  Uiso   1.00
N615   N     0.64839   0.18068   0.76212   0.00000  Uiso   1.00
N616   N     0.35161   0.15265   0.73788   0.00000  Uiso   1.00
O617   O     0.46148   0.23809   0.74686   0.00000  Uiso   1.00
O618   O     0.53852   0.09524   0.75314   0.00000  Uiso   1.00
O619   O     0.56163   0.24753   0.75503   0.00000  Uiso   1.00
O620   O     0.43837   0.08580   0.74498   0.00000  Uiso   1.00
O621   O     0.42185   0.15930   0.80855   0.00000  Uiso   1.00
O622   O     0.57815   0.17403   0.69145   0.00000  Uiso   1.00
O623   O     0.52199   0.16874   0.81671   0.00000  Uiso   1.00
O624   O     0.47801   0.16460   0.68329   0.00000  Uiso   1.00
O625   O     0.49896   0.24008   0.61575   0.00000  Uiso   1.00
C626   C     0.43360   0.23011   0.62244   0.00000  Uiso   1.00
H627   H     0.42167   0.23379   0.59079   0.00000  Uiso   1.00
H628   H     0.41576   0.26079   0.64542   0.00000  Uiso   1.00
H629   H     0.41038   0.19140   0.63820   0.00000  Uiso   1.00
O630   O     0.52666   0.22663   0.89127   0.00000  Uiso   1.00
C631   C     0.50328   0.27292   0.90245   0.00000  Uiso   1.00
H632   H     0.48914   0.27891   0.93896   0.00000  Uiso   1.00
H633   H     0.46309   0.27239   0.88762   0.00000  Uiso   1.00
H634   H     0.54126   0.30716   0.88884   0.00000  Uiso   1.00
H635   H     0.56817   0.01322   0.75581   0.00000  Uiso   1.00
H636   H     0.43184   0.32009   0.74415   0.00000  Uiso   1.00
H637   H     0.33438   0.20541   0.78463   0.00000  Uiso   1.00
H638   H     0.66565   0.12798   0.71532   0.00000  Uiso   1.00
C639   C     0.84833   0.26664   0.75133   0.00000  Uiso   1.00
C640   C     0.81833   0.06669   0.74867   0.00000  Uiso   1.00
C641   C     0.76998   0.14227   0.54213   0.00000  Uiso   1.00
C642   C     0.91258   0.20189   0.95807   0.00000  Uiso   1.00
C643   C     0.72967   0.11935   0.51546   0.00000  Uiso   1.00
C644   C     0.95688   0.21094   0.98333   0.00000  Uiso   1.00
C645   C     0.85664   0.32269   0.75199   0.00000  Uiso   1.00
C646   C     0.81002   0.01063   0.74798   0.00000  Uiso   1.00
C647   C     0.79505   0.16324   0.83326   0.00000  Uiso   1.00
C648   C     0.87189   0.17222   0.66682   0.00000  Uiso   1.00
C649   C     0.77267   0.15805   0.88146   0.00000  Uiso   1.00
C650   C     0.89513   0.18174   0.61902   0.00000  Uiso   1.00
C651   C     0.70164   0.11135   0.94505   0.00000  Uiso   1.00
C652   C     0.98055   0.20297   0.55370   0.00000  Uiso   1.00
C653   C     0.71656   0.12283   0.90025   0.00000  Uiso   1.00
C654   C     0.95837   0.18533   0.59728   0.00000  Uiso   1.00
C655   C     0.81244   0.18404   0.90826   0.00000  Uiso   1.00
C656   C     0.85541   0.19662   0.59659   0.00000  Uiso   1.00
C657   C     0.80219   0.16746   0.95213   0.00000  Uiso   1.00
C658   C     0.87272   0.19337   0.54998   0.00000  Uiso   1.00
C659   C     0.74426   0.13271   0.97098   0.00000  Uiso   1.00
C660   C     0.93732   0.20426   0.52894   0.00000  Uiso   1.00
C661   C     0.84765   0.18350   0.97770   0.00000  Uiso   1.00
C662   C     0.82874   0.17530   0.52404   0.00000  Uiso   1.00
Cu663  Cu    0.77404   0.16108   0.74517   0.00000  Uiso   1.00
Cu664  Cu    0.89263   0.17225   0.75484   0.00000  Uiso   1.00
H665   H     0.68575   0.09263   0.53015   0.00000  Uiso   1.00
H666   H     0.67321   0.22040   0.96687   0.00000  Uiso   1.00
H667   H     0.98995   0.17613   0.61459   0.00000  Uiso   1.00
H668   H     0.68515   0.10316   0.88007   0.00000  Uiso   1.00
H669   H     0.99097   0.08438   0.95914   0.00000  Uiso   1.00
H670   H     0.69698   0.21119   0.53819   0.00000  Uiso   1.00
H671   H     0.75650   0.13124   0.57649   0.00000  Uiso   1.00
H672   H     0.93126   0.20356   0.92274   0.00000  Uiso   1.00
N673   N     0.98173   0.18068   0.76212   0.00000  Uiso   1.00
N674   N     0.68494   0.15265   0.73788   0.00000  Uiso   1.00
O675   O     0.79482   0.23809   0.74686   0.00000  Uiso   1.00
O676   O     0.87185   0.09524   0.75314   0.00000  Uiso   1.00
O677   O     0.89496   0.24753   0.75503   0.00000  Uiso   1.00
O678   O     0.77171   0.08580   0.74498   0.00000  Uiso   1.00
O679   O     0.75518   0.15930   0.80855   0.00000  Uiso   1.00
O680   O     0.91149   0.17403   0.69145   0.00000  Uiso   1.00
O681   O     0.85532   0.16874   0.81671   0.00000  Uiso   1.00
O682   O     0.81134   0.16460   0.68329   0.00000  Uiso   1.00
O683   O     0.83229   0.24008   0.61575   0.00000  Uiso   1.00
C684   C     0.76694   0.23011   0.62244   0.00000  Uiso   1.00
H685   H     0.75501   0.23379   0.59079   0.00000  Uiso   1.00
H686   H     0.74909   0.26079   0.64542   0.00000  Uiso   1.00
H687   H     0.74371   0.19140   0.63820   0.00000  Uiso   1.00
O688   O     0.85999   0.22663   0.89127   0.00000  Uiso   1.00
C689   C     0.83661   0.27292   0.90245   0.00000  Uiso   1.00
H690   H     0.82248   0.27891   0.93896   0.00000  Uiso   1.00
H691   H     0.79643   0.27239   0.88762   0.00000  Uiso   1.00
H692   H     0.87459   0.30716   0.88884   0.00000  Uiso   1.00
H693   H     0.90150   0.01322   0.75581   0.00000  Uiso   1.00
H694   H     0.76517   0.32009   0.74415   0.00000  Uiso   1.00
H695   H     0.66772   0.20541   0.78463   0.00000  Uiso   1.00
H696   H     0.99898   0.12798   0.71532   0.00000  Uiso   1.00
C697   C     0.18167   0.59998   0.75133   0.00000  Uiso   1.00
C698   C     0.15167   0.40002   0.74867   0.00000  Uiso   1.00
C699   C     0.10332   0.47560   0.54213   0.00000  Uiso   1.00
C700   C     0.24591   0.53522   0.95807   0.00000  Uiso   1.00
C701   C     0.06301   0.45268   0.51546   0.00000  Uiso   1.00
C702   C     0.29021   0.54428   0.98333   0.00000  Uiso   1.00
C703   C     0.18998   0.65602   0.75199   0.00000  Uiso   1.00
C704   C     0.14336   0.34396   0.74798   0.00000  Uiso   1.00
C705   C     0.12838   0.49657   0.83326   0.00000  Uiso   1.00
C706   C     0.20522   0.50555   0.66682   0.00000  Uiso   1.00
C707   C     0.10601   0.49138   0.88146   0.00000  Uiso   1.00
C708   C     0.22846   0.51507   0.61902   0.00000  Uiso   1.00
C709   C     0.03497   0.44469   0.94505   0.00000  Uiso   1.00
C710   C     0.31389   0.53631   0.55370   0.00000  Uiso   1.00
C711   C     0.04989   0.45616   0.90025   0.00000  Uiso   1.00
C712   C     0.29171   0.51866   0.59728   0.00000  Uiso   1.00
C713   C     0.14577   0.51737   0.90826   0.00000  Uiso   1.00
C714   C     0.18874   0.52995   0.59659   0.00000  Uiso   1.00
C715   C     0.13553   0.50079   0.95213   0.00000  Uiso   1.00
C716   C     0.20605   0.52671   0.54998   0.00000  Uiso   1.00
C717   C     0.07759   0.46604   0.97098   0.00000  Uiso   1.00
C718   C     0.27065   0.53760   0.52894   0.00000  Uiso   1.00
C719   C     0.18098   0.51684   0.97770   0.00000  Uiso   1.00
C720   C     0.16207   0.50863   0.52404   0.00000  Uiso   1.00
Cu721  Cu    0.10737   0.49441   0.74517   0.00000  Uiso   1.00
Cu722  Cu    0.22596   0.50559   0.75484   0.00000  Uiso   1.00
H723   H     0.01908   0.42596   0.53015   0.00000  Uiso   1.00
H724   H     0.00655   0.55374   0.96687   0.00000  Uiso   1.00
H725   H     0.32328   0.50946   0.61459   0.00000  Uiso   1.00
H726   H     0.01848   0.43649   0.88007   0.00000  Uiso   1.00
H727   H     0.32430   0.41772   0.95914   0.00000  Uiso   1.00
H728   H     0.03031   0.54452   0.53819   0.00000  Uiso   1.00
H729   H     0.08983   0.46458   0.57649   0.00000  Uiso   1.00
H730   H     0.26459   0.53689   0.92274   0.00000  Uiso   1.00
N731   N     0.31506   0.51401   0.76212   0.00000  Uiso   1.00
N732   N     0.01827   0.48599   0.73788   0.00000  Uiso   1.00
O733   O     0.12815   0.57142   0.74686   0.00000  Uiso   1.00
O734   O     0.20518   0.42858   0.75314   0.00000  Uiso   1.00
O735   O     0.22829   0.58086   0.75503   0.00000  Uiso   1.00
O736   O     0.10504   0.41914   0.74498   0.00000  Uiso   1.00
O737   O     0.08851   0.49263   0.80855   0.00000  Uiso   1.00
O738   O     0.24482   0.50737   0.69145   0.00000  Uiso   1.00
O739   O     0.18866   0.50207   0.81671   0.00000  Uiso   1.00
O740   O     0.14468   0.49793   0.68329   0.00000  Uiso   1.00
O741   O     0.16562   0.57342   0.61575   0.00000  Uiso   1.00
C742   C     0.10027   0.56344   0.62244   0.00000  Uiso   1.00
H743   H     0.08834   0.56712   0.59079   0.00000  Uiso   1.00
H744   H     0.08243   0.59412   0.64542   0.00000  Uiso   1.00
H745   H     0.07705   0.52473   0.63820   0.00000  Uiso   1.00
O746   O     0.19332   0.55996   0.89127   0.00000  Uiso   1.00
C747   C     0.16995   0.60626   0.90245   0.00000  Uiso   1.00
H748   H     0.15581   0.61224   0.93896   0.00000  Uiso   1.00
H749   H     0.12976   0.60572   0.88762   0.00000  Uiso   1.00
H750   H     0.20793   0.64049   0.88884   0.00000  Uiso   1.00
H751   H     0.23484   0.34656   0.75581   0.00000  Uiso   1.00
H752   H     0.09850   0.65342   0.74415   0.00000  Uiso   1.00
H753   H     0.00105   0.53875   0.78463   0.00000  Uiso   1.00
H754   H     0.33232   0.46131   0.71532   0.00000  Uiso   1.00
C755   C     0.51500   0.59998   0.75133   0.00000  Uiso   1.00
C756   C     0.48500   0.40002   0.74867   0.00000  Uiso   1.00
C757   C     0.43665   0.47560   0.54213   0.00000  Uiso   1.00
C758   C     0.57925   0.53522   0.95807   0.00000  Uiso   1.00
C759   C     0.39634   0.45268   0.51546   0.00000  Uiso   1.00
C760   C     0.62355   0.54428   0.98333   0.00000  Uiso   1.00
C761   C     0.52331   0.65602   0.75199   0.00000  Uiso   1.00
C762   C     0.47669   0.34396   0.74798   0.00000  Uiso   1.00
C763   C     0.46171   0.49657   0.83326   0.00000  Uiso   1.00
C764   C     0.53855   0.50555   0.66682   0.00000  Uiso   1.00
C765   C     0.43934   0.49138   0.88146   0.00000  Uiso   1.00
C766   C     0.56180   0.51507   0.61902   0.00000  Uiso   1.00
C767   C     0.36831   0.44469   0.94505   0.00000  Uiso   1.00
C768   C     0.64722   0.53631   0.55370   0.00000  Uiso   1.00
C769   C     0.38322   0.45616   0.90025   0.00000  Uiso   1.00
C770   C     0.62504   0.51866   0.59728   0.00000  Uiso   1.00
C771   C     0.47910   0.51737   0.90826   0.00000  Uiso   1.00
C772   C     0.52207   0.52995   0.59659   0.00000  Uiso   1.00
C773   C     0.46886   0.50079   0.95213   0.00000  Uiso   1.00
C774   C     0.53938   0.52671   0.54998   0.00000  Uiso   1.00
C775   C     0.41093   0.46604   0.97098   0.00000  Uiso   1.00
C776   C     0.60399   0.53760   0.52894   0.00000  Uiso   1.00
C777   C     0.51432   0.51684   0.97770   0.00000  Uiso   1.00
C778   C     0.49540   0.50863   0.52404   0.00000  Uiso   1.00
Cu779  Cu    0.44071   0.49441   0.74517   0.00000  Uiso   1.00
Cu780  Cu    0.55929   0.50559   0.75484   0.00000  Uiso   1.00
H781   H     0.35241   0.42596   0.53015   0.00000  Uiso   1.00
H782   H     0.33988   0.55374   0.96687   0.00000  Uiso   1.00
H783   H     0.65662   0.50946   0.61459   0.00000  Uiso   1.00
H784   H     0.35181   0.43649   0.88007   0.00000  Uiso   1.00
H785   H     0.65763   0.41772   0.95914   0.00000  Uiso   1.00
H786   H     0.36365   0.54452   0.53819   0.00000  Uiso   1.00
H787   H     0.42316   0.46458   0.57649   0.00000  Uiso   1.00
H788   H     0.59792   0.53689   0.92274   0.00000  Uiso   1.00
N789   N     0.64839   0.51401   0.76212   0.00000  Uiso   1.00
N790   N     0.35161   0.48599   0.73788   0.00000  Uiso   1.00
O791   O     0.46148   0.57142   0.74686   0.00000  Uiso   1.00
O792   O     0.53852   0.42858   0.75314   0.00000  Uiso   1.00
O793   O     0.56163   0.58086   0.75503   0.00000  Uiso   1.00
O794   O     0.43837   0.41914   0.74498   0.00000  Uiso   1.00
O795   O     0.42185   0.49263   0.80855   0.00000  Uiso   1.00
O796   O     0.57815   0.50737   0.69145   0.00000  Uiso   1.00
O797   O     0.52199   0.50207   0.81671   0.00000  Uiso   1.00
O798   O     0.47801   0.49793   0.68329   0.00000  Uiso   1.00
O799   O     0.49896   0.57342   0.61575   0.00000  Uiso   1.00
C800   C     0.43360   0.56344   0.62244   0.00000  Uiso   1.00
H801   H     0.42167   0.56712   0.59079   0.00000  Uiso   1.00
H802   H     0.41576   0.59412   0.64542   0.00000  Uiso   1.00
H803   H     0.41038   0.52473   0.63820   0.00000  Uiso   1.00
O804   O     0.52666   0.55996   0.89127   0.00000  Uiso   1.00
C805   C     0.50328   0.60626   0.90245   0.00000  Uiso   1.00
H806   H     0.48914   0.61224   0.93896   0.00000  Uiso   1.00
H807   H     0.46309   0.60572   0.88762   0.00000  Uiso   1.00
H808   H     0.54126   0.64049   0.88884   0.00000  Uiso   1.00
H809   H     0.56817   0.34656   0.75581   0.00000  Uiso   1.00
H810   H     0.43184   0.65342   0.74415   0.00000  Uiso   1.00
H811   H     0.33438   0.53875   0.78463   0.00000  Uiso   1.00
H812   H     0.66565   0.46131   0.71532   0.00000  Uiso   1.00
C813   C     0.84833   0.59998   0.75133   0.00000  Uiso   1.00
C814   C     0.81833   0.40002   0.74867   0.00000  Uiso   1.00
C815   C     0.76998   0.47560   0.54213   0.00000  Uiso   1.00
C816   C     0.91258   0.53522   0.95807   0.00000  Uiso   1.00
C817   C     0.72967   0.45268   0.51546   0.00000  Uiso   1.00
C818   C     0.95688   0.54428   0.98333   0.00000  Uiso   1.00
C819   C     0.85664   0.65602   0.75199   0.00000  Uiso   1.00
C820   C     0.81002   0.34396   0.74798   0.00000  Uiso   1.00
C821   C     0.79505   0.49657   0.83326   0.00000  Uiso   1.00
C822   C     0.87189   0.50555   0.66682   0.00000  Uiso   1.00
C823   C     0.77267   0.49138   0.88146   0.00000  Uiso   1.00
C824   C     0.89513   0.51507   0.61902   0.00000  Uiso   1.00
C825   C     0.70164   0.44469   0.94505   0.00000  Uiso   1.00
C826   C     0.98055   0.53631   0.55370   0.00000  Uiso   1.00
C827   C     0.71656   0.45616   0.90025   0.00000  Uiso   1.00
C828   C     0.95837   0.51866   0.59728   0.00000  Uiso   1.00
C829   C     0.81244   0.51737   0.90826   0.00000  Uiso   1.00
C830   C     0.85541   0.52995   0.59659   0.00000  Uiso   1.00
C831   C     0.80219   0.50079   0.95213   0.00000  Uiso   1.00
C832   C     0.87272   0.52671   0.54998   0.00000  Uiso   1.00
C833   C     0.74426   0.46604   0.97098   0.00000  Uiso   1.00
C834   C     0.93732   0.53760   0.52894   0.00000  Uiso   1.00
C835   C     0.84765   0.51684   0.97770   0.00000  Uiso   1.00
C836   C     0.82874   0.50863   0.52404   0.00000  Uiso   1.00
Cu837  Cu    0.77404   0.49441   0.74517   0.00000  Uiso   1.00
Cu838  Cu    0.89263   0.50559   0.75484   0.00000  Uiso   1.00
H839   H     0.68575   0.42596   0.53015   0.00000  Uiso   1.00
H840   H     0.67321   0.55374   0.96687   0.00000  Uiso   1.00
H841   H     0.98995   0.50946   0.61459   0.00000  Uiso   1.00
H842   H     0.68515   0.43649   0.88007   0.00000  Uiso   1.00
H843   H     0.99097   0.41772   0.95914   0.00000  Uiso   1.00
H844   H     0.69698   0.54452   0.53819   0.00000  Uiso   1.00
H845   H     0.75650   0.46458   0.57649   0.00000  Uiso   1.00
H846   H     0.93126   0.53689   0.92274   0.00000  Uiso   1.00
N847   N     0.98173   0.51401   0.76212   0.00000  Uiso   1.00
N848   N     0.68494   0.48599   0.73788   0.00000  Uiso   1.00
O849   O     0.79482   0.57142   0.74686   0.00000  Uiso   1.00
O850   O     0.87185   0.42858   0.75314   0.00000  Uiso   1.00
O851   O     0.89496   0.58086   0.75503   0.00000  Uiso   1.00
O852   O     0.77171   0.41914   0.74498   0.00000  Uiso   1.00
O853   O     0.75518   0.49263   0.80855   0.00000  Uiso   1.00
O854   O     0.91149   0.50737   0.69145   0.00000  Uiso   1.00
O855   O     0.85532   0.50207   0.81671   0.00000  Uiso   1.00
O856   O     0.81134   0.49793   0.68329   0.00000  Uiso   1.00
O857   O     0.83229   0.57342   0.61575   0.00000  Uiso   1.00
C858   C     0.76694   0.56344   0.62244   0.00000  Uiso   1.00
H859   H     0.75501   0.56712   0.59079   0.00000  Uiso   1.00
H860   H     0.74909   0.59412   0.64542   0.00000  Uiso   1.00
H861   H     0.74371   0.52473   0.63820   0.00000  Uiso   1.00
O862   O     0.85999   0.55996   0.89127   0.00000  Uiso   1.00
C863   C     0.83661   0.60626   0.90245   0.00000  Uiso   1.00
H864   H     0.82248   0.61224   0.93896   0.00000  Uiso   1.00
H865   H     0.79643   0.60572   0.88762   0.00000  Uiso   1.00
H866   H     0.87459   0.64049   0.88884   0.00000  Uiso   1.00
H867   H     0.90150   0.34656   0.75581   0.00000  Uiso   1.00
H868   H     0.76517   0.65342   0.74415   0.00000  Uiso   1.00
H869   H     0.66772   0.53875   0.78463   0.00000  Uiso   1.00
H870   H     0.99898   0.46131   0.71532   0.00000  Uiso   1.00
C871   C     0.18167   0.93331   0.75133   0.00000  Uiso   1.00
C872   C     0.15167   0.73335   0.74867   0.00000  Uiso   1.00
C873   C     0.10332   0.80893   0.54213   0.00000  Uiso   1.00
C874   C     0.24591   0.86856   0.95807   0.00000  Uiso   1.00
C875   C     0.06301   0.78601   0.51546   0.00000  Uiso   1.00
C876   C     0.29021   0.87761   0.98333   0.00000  Uiso   1.00
C877   C     0.18998   0.98936   0.75199   0.00000  Uiso   1.00
C878   C     0.14336   0.67729   0.74798   0.00000  Uiso   1.00
C879   C     0.12838   0.82991   0.83326   0.00000  Uiso   1.00
C880   C     0.20522   0.83888   0.66682   0.00000  Uiso   1.00
C881   C     0.10601   0.82471   0.88146   0.00000  Uiso   1.00
C882   C     0.22846   0.84840   0.61902   0.00000  Uiso   1.00
C883   C     0.03497   0.77802   0.94505   0.00000  Uiso   1.00
C884   C     0.31389   0.86964   0.55370   0.00000  Uiso   1.00
C885   C     0.04989   0.78949   0.90025   0.00000  Uiso   1.00
C886   C     0.29171   0.85200   0.59728   0.00000  Uiso   1.00
C887   C     0.14577   0.85070   0.90826   0.00000  Uiso   1.00
C888   C     0.18874   0.86328   0.59659   0.00000  Uiso   1.00
C889   C     0.13553   0.83412   0.95213   0.00000  Uiso   1.00
C890   C     0.20605   0.86004   0.54998   0.00000  Uiso   1.00
C891   C     0.07759   0.79938   0.97098   0.00000  Uiso   1.00
C892   C     0.27065   0.87093   0.52894   0.00000  Uiso   1.00
C893   C     0.18098   0.85017   0.97770   0.00000  Uiso   1.00
C894   C     0.16207   0.84196   0.52404   0.00000  Uiso   1.00
Cu895  Cu    0.10737   0.82775   0.74517   0.00000  Uiso   1.00
Cu896  Cu    0.22596   0.83892   0.75484   0.00000  Uiso   1.00
H897   H     0.01908   0.75929   0.53015   0.00000  Uiso   1.00
H898   H     0.00655   0.88707   0.96687   0.00000  Uiso   1.00
H899   H     0.32328   0.84279   0.61459   0.00000  Uiso   1.00
H900   H     0.01848   0.76983   0.88007   0.00000  Uiso   1.00
H901   H     0.32430   0.75105   0.95914   0.00000  Uiso   1.00
H902   H     0.03031   0.87785   0.53819   0.00000  Uiso   1.00
H903   H     0.08983   0.79791   0.57649   0.00000  Uiso   1.00
H904   H     0.26459   0.87023   0.92274   0.00000  Uiso   1.00
N905   N     0.31506   0.84735   0.76212   0.00000  Uiso   1.00
N906   N     0.01827   0.81932   0.73788   0.00000  Uiso   1.00
O907   O     0.12815   0.90476   0.74686   0.00000  Uiso   1.00
O908   O     0.20518   0.76191   0.75314   0.00000  Uiso   1.00
O909   O     0.22829   0.91420   0.75503   0.00000  Uiso   1.00
O910   O     0.10504   0.75247   0.74498   0.00000  Uiso   1.00
O911   O     0.08851   0.82597   0.80855   0.00000  Uiso   1.00
O912   O     0.24482   0.84070   0.69145   0.00000  Uiso   1.00
O913   O     0.18866   0.83540   0.81671   0.00000  Uiso   1.00
O914   O     0.14468   0.83126   0.68329   0.00000  Uiso   1.00
O915   O     0.16562   0.90675   0.61575   0.00000  Uiso   1.00
C916   C     0.10027   0.89678   0.62244   0.00000  Uiso   1.00
H917   H     0.08834   0.90046   0.59079   0.00000  Uiso   1.00
H918   H     0.08243   0.92746   0.64542   0.00000  Uiso   1.00
H919   H     0.07705   0.85807   0.63820   0.00000  Uiso   1.00
O920   O     0.19332   0.89330   0.89127   0.00000  Uiso   1.00
C921   C     0.16995   0.93959   0.90245   0.00000  Uiso   1.00
H922   H     0.15581   0.94558   0.93896   0.00000  Uiso   1.00
H923   H     0.12976   0.93905   0.88762   0.00000  Uiso   1.00
H924   H     0.20793   0.97383   0.88884   0.00000  Uiso   1.00
H925   H     0.23484   0.67989   0.75581   0.00000  Uiso   1.00
H926   H     0.09850   0.98676   0.74415   0.00000  Uiso   1.00
H927   H     0.00105   0.87208   0.78463   0.00000  Uiso   1.00
H928   H     0.33232   0.79465   0.71532   0.00000  Uiso   1.00
C929   C     0.51500   0.93331   0.75133   0.00000  Uiso   1.00
C930   C     0.48500   0.73335   0.74867   0.00000  Uiso   1.00
C931   C     0.43665   0.80893   0.54213   0.00000  Uiso   1.00
C932   C     0.57925   0.86856   0.95807   0.00000  Uiso   1.00
C933   C     0.39634   0.78601   0.51546   0.00000  Uiso   1.00
C934   C     0.62355   0.87761   0.98333   0.00000  Uiso   1.00
C935   C     0.52331   0.98936   0.75199   0.00000  Uiso   1.00
C936   C     0.47669   0.67729   0.74798   0.00000  Uiso   1.00
C937   C     0.46171   0.82991   0.83326   0.00000  Uiso   1.00
C938   C     0.53855   0.83888   0.66682   0.00000  Uiso   1.00
C939   C     0.43934   0.82471   0.88146   0.00000  Uiso   1.00
C940   C     0.56180   0.84840   0.61902   0.00000  Uiso   1.00
C941   C     0.36831   0.77802   0.94505   0.00000  Uiso   1.00
C942   C     0.64722   0.86964   0.55370   0.00000  Uiso   1.00
C943   C     0.38322   0.78949   0.90025   0.00000  Uiso   1.00
C944   C     0.62504   0.85200   0.59728   0.00000  Uiso   1.00
C945   C     0.47910   0.85070   0.90826   0.00000  Uiso   1.00
C946   C     0.52207   0.86328   0.59659   0.00000  Uiso   1.00
C947   C     0.46886   0.83412   0.95213   0.00000  Uiso   1.00
C948   C     0.53938   0.86004   0.54998   0.00000  Uiso   1.00
C949   C     0.41093   0.79938   0.97098   0.00000  Uiso   1.00
C950   C     0.60399   0.87093   0.52894   0.00000  Uiso   1.00
C951   C     0.51432   0.85017   0.97770   0.00000  Uiso   1.00
C952   C     0.49540   0.84196   0.52404   0.00000  Uiso   1.00
Cu953  Cu    0.44071   0.82775   0.74517   0.00000  Uiso   1.00
Cu954  Cu    0.55929   0.83892   0.75484   0.00000  Uiso   1.00
H955   H     0.35241   0.75929   0.53015   0.00000  Uiso   1.00
H956   H     0.33988   0.88707   0.96687   0.00000  Uiso   1.00
H957   H     0.65662   0.84279   0.61459   0.00000  Uiso   1.00
H958   H     0.35181   0.76983   0.88007   0.00000  Uiso   1.00
H959   H     0.65763   0.75105   0.95914   0.00000  Uiso   1.00
H960   H     0.36365   0.87785   0.53819   0.00000  Uiso   1.00
H961   H     0.42316   0.79791   0.57649   0.00000  Uiso   1.00
H962   H     0.59792   0.87023   0.92274   0.00000  Uiso   1.00
N963   N     0.64839   0.84735   0.76212   0.00000  Uiso   1.00
N964   N     0.35161   0.81932   0.73788   0.00000  Uiso   1.00
O965   O     0.46148   0.90476   0.74686   0.00000  Uiso   1.00
O966   O     0.53852   0.76191   0.75314   0.00000  Uiso   1.00
O967   O     0.56163   0.91420   0.75503   0.00000  Uiso   1.00
O968   O     0.43837   0.75247   0.74498   0.00000  Uiso   1.00
O969   O     0.42185   0.82597   0.80855   0.00000  Uiso   1.00
O970   O     0.57815   0.84070   0.69145   0.00000  Uiso   1.00
O971   O     0.52199   0.83540   0.81671   0.00000  Uiso   1.00
O972   O     0.47801   0.83126   0.68329   0.00000  Uiso   1.00
O973   O     0.49896   0.90675   0.61575   0.00000  Uiso   1.00
C974   C     0.43360   0.89678   0.62244   0.00000  Uiso   1.00
H975   H     0.42167   0.90046   0.59079   0.00000  Uiso   1.00
H976   H     0.41576   0.92746   0.64542   0.00000  Uiso   1.00
H977   H     0.41038   0.85807   0.63820   0.00000  Uiso   1.00
O978   O     0.52666   0.89330   0.89127   0.00000  Uiso   1.00
C979   C     0.50328   0.93959   0.90245   0.00000  Uiso   1.00
H980   H     0.48914   0.94558   0.93896   0.00000  Uiso   1.00
H981   H     0.46309   0.93905   0.88762   0.00000  Uiso   1.00
H982   H     0.54126   0.97383   0.88884   0.00000  Uiso   1.00
H983   H     0.56817   0.67989   0.75581   0.00000  Uiso   1.00
H984   H     0.43184   0.98676   0.74415   0.00000  Uiso   1.00
H985   H     0.33438   0.87208   0.78463   0.00000  Uiso   1.00
H986   H     0.66565   0.79465   0.71532   0.00000  Uiso   1.00
C987   C     0.84833   0.93331   0.75133   0.00000  Uiso   1.00
C988   C     0.81833   0.73335   0.74867   0.00000  Uiso   1.00
C989   C     0.76998   0.80893   0.54213   0.00000  Uiso   1.00
C990   C     0.91258   0.86856   0.95807   0.00000  Uiso   1.00
C991   C     0.72967   0.78601   0.51546   0.00000  Uiso   1.00
C992   C     0.95688   0.87761   0.98333   0.00000  Uiso   1.00
C993   C     0.85664   0.98936   0.75199   0.00000  Uiso   1.00
C994   C     0.81002   0.67729   0.74798   0.00000  Uiso   1.00
C995   C     0.79505   0.82991   0.83326   0.00000  Uiso   1.00
C996   C     0.87189   0.83888   0.66682   0.00000  Uiso   1.00
C997   C     0.77267   0.82471   0.88146   0.00000  Uiso   1.00
C998   C     0.89513   0.84840   0.61902   0.00000  Uiso   1.00
C999   C     0.70164   0.77802   0.94505   0.00000  Uiso   1.00
C1000  C     0.98055   0.86964   0.55370   0.00000  Uiso   1.00
C1001  C     0.71656   0.78949   0.90025   0.00000  Uiso   1.00
C1002  C     0.95837   0.85200   0.59728   0.00000  Uiso   1.00
C1003  C     0.81244   0.85070   0.90826   0.00000  Uiso   1.00
C1004  C     0.85541   0.86328   0.59659   0.00000  Uiso   1.00
C1005  C     0.80219   0.83412   0.95213   0.00000  Uiso   1.00
C1006  C     0.87272   0.86004   0.54998   0.00000  Uiso   1.00
C1007  C     0.74426   0.79938   0.97098   0.00000  Uiso   1.00
C1008  C     0.93732   0.87093   0.52894   0.00000  Uiso   1.00
C1009  C     0.84765   0.85017   0.97770   0.00000  Uiso   1.00
C1010  C     0.82874   0.84196   0.52404   0.00000  Uiso   1.00
Cu1011 Cu    0.77404   0.82775   0.74517   0.00000  Uiso   1.00
Cu1012 Cu    0.89263   0.83892   0.75484   0.00000  Uiso   1.00
H1013  H     0.68575   0.75929   0.53015   0.00000  Uiso   1.00
H1014  H     0.67321   0.88707   0.96687   0.00000  Uiso   1.00
H1015  H     0.98995   0.84279   0.61459   0.00000  Uiso   1.00
H1016  H     0.68515   0.76983   0.88007   0.00000  Uiso   1.00
H1017  H     0.99097   0.75105   0.95914   0.00000  Uiso   1.00
H1018  H     0.69698   0.87785   0.53819   0.00000  Uiso   1.00
H1019  H     0.75650   0.79791   0.57649   0.00000  Uiso   1.00
H1020  H     0.93126   0.87023   0.92274   0.00000  Uiso   1.00
N1021  N     0.98173   0.84735   0.76212   0.00000  Uiso   1.00
N1022  N     0.68494   0.81932   0.73788   0.00000  Uiso   1.00
O1023  O     0.79482   0.90476   0.74686   0.00000  Uiso   1.00
O1024  O     0.87185   0.76191   0.75314   0.00000  Uiso   1.00
O1025  O     0.89496   0.91420   0.75503   0.00000  Uiso   1.00
O1026  O     0.77171   0.75247   0.74498   0.00000  Uiso   1.00
O1027  O     0.75518   0.82597   0.80855   0.00000  Uiso   1.00
O1028  O     0.91149   0.84070   0.69145   0.00000  Uiso   1.00
O1029  O     0.85532   0.83540   0.81671   0.00000  Uiso   1.00
O1030  O     0.81134   0.83126   0.68329   0.00000  Uiso   1.00
O1031  O     0.83229   0.90675   0.61575   0.00000  Uiso   1.00
C1032  C     0.76694   0.89678   0.62244   0.00000  Uiso   1.00
H1033  H     0.75501   0.90046   0.59079   0.00000  Uiso   1.00
H1034  H     0.74909   0.92746   0.64542   0.00000  Uiso   1.00
H1035  H     0.74371   0.85807   0.63820   0.00000  Uiso   1.00
O1036  O     0.85999   0.89330   0.89127   0.00000  Uiso   1.00
C1037  C     0.83661   0.93959   0.90245   0.00000  Uiso   1.00
H1038  H     0.82248   0.94558   0.93896   0.00000  Uiso   1.00
H1039  H     0.79643   0.93905   0.88762   0.00000  Uiso   1.00
H1040  H     0.87459   0.97383   0.88884   0.00000  Uiso   1.00
H1041  H     0.90150   0.67989   0.75581   0.00000  Uiso   1.00
H1042  H     0.76517   0.98676   0.74415   0.00000  Uiso   1.00
H1043  H     0.66772   0.87208   0.78463   0.00000  Uiso   1.00
H1044  H     0.99898   0.79465   0.71532   0.00000  Uiso   1.00
loop_
_geom_bond_atom_site_label_1
_geom_bond_atom_site_label_2
_geom_bond_distance
_geom_bond_site_symmetry_2
_ccdc_geom_bond_type
C1     C7      1.429   .     S
C1     O39     1.293   .     A
C1     O37     1.297   .     A
C2     O38     1.297   .     A
C2     O40     1.293   .     A
C2     C8      1.429   .     S
C3     C24     1.407   .     A
C3     H33     1.082   .     S
C3     C5      1.392   .     A
C4     H34     1.078   .     S
C4     C6      1.392   .     A
C4     C23     1.417   .     A
C5     H27     1.084   .     S
C5     C543    1.397   1_554 S
C6     C544    1.393   .     S
C6     H86     1.084   .     S
C7     C182    1.330   .     S
C7     H229    1.088   .     S
C8     C355    1.330   1_545 S
C8     H404    1.088   1_545 S
C9     O41     1.309   .     A
C9     C11     1.469   .     S
C9     O43     1.301   .     A
C10    O42     1.310   .     A
C10    C12     1.473   .     S
C10    O44     1.302   .     A
C11    C15     1.398   .     A
C11    C17     1.407   .     A
C12    C18     1.401   .     A
C12    C16     1.397   .     A
C13    C21     1.404   .     A
C13    C15     1.394   .     A
C13    H147    1.084   1_455 S
C14    C16     1.400   .     A
C14    C22     1.397   .     A
C14    H90     1.079   .     S
C15    H30     1.083   .     S
C16    H29     1.072   .     S
C17    O50     1.384   .     S
C17    C19     1.416   .     A
C18    O45     1.386   .     S
C18    C20     1.411   .     A
C19    C23     1.425   .     A
C19    C21     1.420   .     A
C20    C22     1.407   .     A
C20    C24     1.413   .     A
C21    C527    1.397   .     S
C22    C528    1.393   1_554 S
C23    C546    1.421   .     S
C24    C545    1.421   1_554 S
Cu25   Cu26    2.710   .     S
Cu25   O41     1.920   .     S
Cu25   O44     1.903   .     S
Cu25   O40     1.950   .     S
Cu25   N36     2.036   .     S
Cu25   O37     1.953   .     S
Cu26   O43     1.903   .     S
Cu26   O39     1.950   .     S
Cu26   N35     2.036   .     S
Cu26   O42     1.920   .     S
Cu26   O38     1.953   .     S
H28    C122    1.084   1_455 S
H31    C71     1.084   .     S
H32    C130    1.079   1_455 S
N35    N94     1.288   .     S
N35    H115    1.029   .     S
N36    N151    1.288   1_455 S
N36    H174    1.029   1_455 S
O45    C46     1.397   .     S
C46    H49     1.112   .     S
C46    H48     1.109   .     S
C46    H47     1.106   .     S
O50    C51     1.410   .     S
C51    H54     1.109   .     S
C51    H52     1.114   .     S
C51    H53     1.114   .     S
H55    C355    1.088   1_545 S
H56    C182    1.088   .     S
H57    N151    1.029   1_455 S
H58    N94     1.029   .     S
C59    C65     1.429   .     S
C59    O97     1.293   .     A
C59    O95     1.297   .     A
C60    O96     1.297   .     A
C60    O98     1.293   .     A
C60    C66     1.429   .     S
C61    C82     1.407   .     A
C61    H91     1.082   .     S
C61    C63     1.392   .     A
C62    H92     1.078   .     S
C62    C64     1.392   .     A
C62    C81     1.417   .     A
C63    H85     1.084   .     S
C63    C601    1.397   1_554 S
C64    C602    1.393   .     S
C64    H144    1.084   .     S
C65    C240    1.330   .     S
C65    H287    1.088   .     S
C66    C413    1.330   1_545 S
C66    H462    1.088   1_545 S
C67    O99     1.309   .     A
C67    C69     1.469   .     S
C67    O101    1.301   .     A
C68    O100    1.310   .     A
C68    C70     1.473   .     S
C68    O102    1.302   .     A
C69    C73     1.398   .     A
C69    C75     1.407   .     A
C70    C76     1.401   .     A
C70    C74     1.397   .     A
C71    C79     1.404   .     A
C71    C73     1.394   .     A
C72    C74     1.400   .     A
C72    C80     1.397   .     A
C72    H148    1.079   .     S
C73    H88     1.083   .     S
C74    H87     1.072   .     S
C75    O108    1.384   .     S
C75    C77     1.416   .     A
C76    O103    1.386   .     S
C76    C78     1.411   .     A
C77    C81     1.425   .     A
C77    C79     1.420   .     A
C78    C80     1.407   .     A
C78    C82     1.413   .     A
C79    C585    1.397   .     S
C80    C586    1.393   1_554 S
C81    C604    1.421   .     S
C82    C603    1.421   1_554 S
Cu83   Cu84    2.710   .     S
Cu83   O99     1.920   .     S
Cu83   O102    1.903   .     S
Cu83   O98     1.950   .     S
Cu83   N94     2.036   .     S
Cu83   O95     1.953   .     S
Cu84   O101    1.903   .     S
Cu84   O97     1.950   .     S
Cu84   N93     2.036   .     S
Cu84   O100    1.920   .     S
Cu84   O96     1.953   .     S
H89    C129    1.084   .     S
N93    N152    1.288   .     S
N93    H173    1.029   .     S
O103   C104    1.397   .     S
C104   H107    1.112   .     S
C104   H106    1.109   .     S
C104   H105    1.106   .     S
O108   C109    1.410   .     S
C109   H112    1.109   .     S
C109   H110    1.114   .     S
C109   H111    1.114   .     S
H113   C413    1.088   1_545 S
H114   C240    1.088   .     S
H116   N152    1.029   .     S
C117   C123    1.429   .     S
C117   O155    1.293   .     A
C117   O153    1.297   .     A
C118   O154    1.297   .     A
C118   O156    1.293   .     A
C118   C124    1.429   .     S
C119   C140    1.407   .     A
C119   H149    1.082   .     S
C119   C121    1.392   .     A
C120   H150    1.078   .     S
C120   C122    1.392   .     A
C120   C139    1.417   .     A
C121   H143    1.084   .     S
C121   C659    1.397   1_554 S
C122   C660    1.393   .     S
C122   H28     1.084   1_655 S
C123   C298    1.330   .     S
C123   H345    1.088   .     S
C124   C471    1.330   1_545 S
C124   H520    1.088   1_545 S
C125   O157    1.309   .     A
C125   C127    1.469   .     S
C125   O159    1.301   .     A
C126   O158    1.310   .     A
C126   C128    1.473   .     S
C126   O160    1.302   .     A
C127   C131    1.398   .     A
C127   C133    1.407   .     A
C128   C134    1.401   .     A
C128   C132    1.397   .     A
C129   C137    1.404   .     A
C129   C131    1.394   .     A
C130   C132    1.400   .     A
C130   C138    1.397   .     A
C130   H32     1.079   1_655 S
C131   H146    1.083   .     S
C132   H145    1.072   .     S
C133   O166    1.384   .     S
C133   C135    1.416   .     A
C134   O161    1.386   .     S
C134   C136    1.411   .     A
C135   C139    1.425   .     A
C135   C137    1.420   .     A
C136   C138    1.407   .     A
C136   C140    1.413   .     A
C137   C643    1.397   .     S
C138   C644    1.393   1_554 S
C139   C662    1.421   .     S
C140   C661    1.421   1_554 S
Cu141  Cu142   2.710   .     S
Cu141  O157    1.920   .     S
Cu141  O160    1.903   .     S
Cu141  O156    1.950   .     S
Cu141  N152    2.036   .     S
Cu141  O153    1.953   .     S
Cu142  O159    1.903   .     S
Cu142  O155    1.950   .     S
Cu142  N151    2.036   .     S
Cu142  O158    1.920   .     S
Cu142  O154    1.953   .     S
H147   C13     1.084   1_655 S
N151   N36     1.288   1_655 S
N151   H57     1.029   1_655 S
O161   C162    1.397   .     S
C162   H165    1.112   .     S
C162   H164    1.109   .     S
C162   H163    1.106   .     S
O166   C167    1.410   .     S
C167   H170    1.109   .     S
C167   H168    1.114   .     S
C167   H169    1.114   .     S
H171   C471    1.088   1_545 S
H172   C298    1.088   .     S
H174   N36     1.029   1_655 S
C175   C181    1.429   .     S
C175   O213    1.293   .     A
C175   O211    1.297   .     A
C176   O212    1.297   .     A
C176   O214    1.293   .     A
C176   C182    1.429   .     S
C177   C198    1.407   .     A
C177   H207    1.082   .     S
C177   C179    1.392   .     A
C178   H208    1.078   .     S
C178   C180    1.392   .     A
C178   C197    1.417   .     A
C179   H201    1.084   .     S
C179   C717    1.397   1_554 S
C180   C718    1.393   .     S
C180   H260    1.084   .     S
C181   C356    1.330   .     S
C181   H403    1.088   .     S
C183   O215    1.309   .     A
C183   C185    1.469   .     S
C183   O217    1.301   .     A
C184   O216    1.310   .     A
C184   C186    1.473   .     S
C184   O218    1.302   .     A
C185   C189    1.398   .     A
C185   C191    1.407   .     A
C186   C192    1.401   .     A
C186   C190    1.397   .     A
C187   C195    1.404   .     A
C187   C189    1.394   .     A
C187   H321    1.084   1_455 S
C188   C190    1.400   .     A
C188   C196    1.397   .     A
C188   H264    1.079   .     S
C189   H204    1.083   .     S
C190   H203    1.072   .     S
C191   O224    1.384   .     S
C191   C193    1.416   .     A
C192   O219    1.386   .     S
C192   C194    1.411   .     A
C193   C197    1.425   .     A
C193   C195    1.420   .     A
C194   C196    1.407   .     A
C194   C198    1.413   .     A
C195   C701    1.397   .     S
C196   C702    1.393   1_554 S
C197   C720    1.421   .     S
C198   C719    1.421   1_554 S
Cu199  Cu200   2.710   .     S
Cu199  O215    1.920   .     S
Cu199  O218    1.903   .     S
Cu199  O214    1.950   .     S
Cu199  N210    2.036   .     S
Cu199  O211    1.953   .     S
Cu200  O217    1.903   .     S
Cu200  O213    1.950   .     S
Cu200  N209    2.036   .     S
Cu200  O216    1.920   .     S
Cu200  O212    1.953   .     S
H202   C296    1.084   1_455 S
H205   C245    1.084   .     S
H206   C304    1.079   1_455 S
N209   N268    1.288   .     S
N209   H289    1.029   .     S
N210   N325    1.288   1_455 S
N210   H348    1.029   1_455 S
O219   C220    1.397   .     S
C220   H223    1.112   .     S
C220   H222    1.109   .     S
C220   H221    1.106   .     S
O224   C225    1.410   .     S
C225   H228    1.109   .     S
C225   H226    1.114   .     S
C225   H227    1.114   .     S
H230   C356    1.088   .     S
H231   N325    1.029   1_455 S
H232   N268    1.029   .     S
C233   C239    1.429   .     S
C233   O271    1.293   .     A
C233   O269    1.297   .     A
C234   O270    1.297   .     A
C234   O272    1.293   .     A
C234   C240    1.429   .     S
C235   C256    1.407   .     A
C235   H265    1.082   .     S
C235   C237    1.392   .     A
C236   H266    1.078   .     S
C236   C238    1.392   .     A
C236   C255    1.417   .     A
C237   H259    1.084   .     S
C237   C775    1.397   1_554 S
C238   C776    1.393   .     S
C238   H318    1.084   .     S
C239   C414    1.330   .     S
C239   H461    1.088   .     S
C241   O273    1.309   .     A
C241   C243    1.469   .     S
C241   O275    1.301   .     A
C242   O274    1.310   .     A
C242   C244    1.473   .     S
C242   O276    1.302   .     A
C243   C247    1.398   .     A
C243   C249    1.407   .     A
C244   C250    1.401   .     A
C244   C248    1.397   .     A
C245   C253    1.404   .     A
C245   C247    1.394   .     A
C246   C248    1.400   .     A
C246   C254    1.397   .     A
C246   H322    1.079   .     S
C247   H262    1.083   .     S
C248   H261    1.072   .     S
C249   O282    1.384   .     S
C249   C251    1.416   .     A
C250   O277    1.386   .     S
C250   C252    1.411   .     A
C251   C255    1.425   .     A
C251   C253    1.420   .     A
C252   C254    1.407   .     A
C252   C256    1.413   .     A
C253   C759    1.397   .     S
C254   C760    1.393   1_554 S
C255   C778    1.421   .     S
C256   C777    1.421   1_554 S
Cu257  Cu258   2.710   .     S
Cu257  O273    1.920   .     S
Cu257  O276    1.903   .     S
Cu257  O272    1.950   .     S
Cu257  N268    2.036   .     S
Cu257  O269    1.953   .     S
Cu258  O275    1.903   .     S
Cu258  O271    1.950   .     S
Cu258  N267    2.036   .     S
Cu258  O274    1.920   .     S
Cu258  O270    1.953   .     S
H263   C303    1.084   .     S
N267   N326    1.288   .     S
N267   H347    1.029   .     S
O277   C278    1.397   .     S
C278   H281    1.112   .     S
C278   H280    1.109   .     S
C278   H279    1.106   .     S
O282   C283    1.410   .     S
C283   H286    1.109   .     S
C283   H284    1.114   .     S
C283   H285    1.114   .     S
H288   C414    1.088   .     S
H290   N326    1.029   .     S
C291   C297    1.429   .     S
C291   O329    1.293   .     A
C291   O327    1.297   .     A
C292   O328    1.297   .     A
C292   O330    1.293   .     A
C292   C298    1.429   .     S
C293   C314    1.407   .     A
C293   H323    1.082   .     S
C293   C295    1.392   .     A
C294   H324    1.078   .     S
C294   C296    1.392   .     A
C294   C313    1.417   .     A
C295   H317    1.084   .     S
C295   C833    1.397   1_554 S
C296   C834    1.393   .     S
C296   H202    1.084   1_655 S
C297   C472    1.330   .     S
C297   H519    1.088   .     S
C299   O331    1.309   .     A
C299   C301    1.469   .     S
C299   O333    1.301   .     A
C300   O332    1.310   .     A
C300   C302    1.473   .     S
C300   O334    1.302   .     A
C301   C305    1.398   .     A
C301   C307    1.407   .     A
C302   C308    1.401   .     A
C302   C306    1.397   .     A
C303   C311    1.404   .     A
C303   C305    1.394   .     A
C304   C306    1.400   .     A
C304   C312    1.397   .     A
C304   H206    1.079   1_655 S
C305   H320    1.083   .     S
C306   H319    1.072   .     S
C307   O340    1.384   .     S
C307   C309    1.416   .     A
C308   O335    1.386   .     S
C308   C310    1.411   .     A
C309   C313    1.425   .     A
C309   C311    1.420   .     A
C310   C312    1.407   .     A
C310   C314    1.413   .     A
C311   C817    1.397   .     S
C312   C818    1.393   1_554 S
C313   C836    1.421   .     S
C314   C835    1.421   1_554 S
Cu315  Cu316   2.710   .     S
Cu315  O331    1.920   .     S
Cu315  O334    1.903   .     S
Cu315  O330    1.950   .     S
Cu315  N326    2.036   .     S
Cu315  O327    1.953   .     S
Cu316  O333    1.903   .     S
Cu316  O329    1.950   .     S
Cu316  N325    2.036   .     S
Cu316  O332    1.920   .     S
Cu316  O328    1.953   .     S
H321   C187    1.084   1_655 S
N325   N210    1.288   1_655 S
N325   H231    1.029   1_655 S
O335   C336    1.397   .     S
C336   H339    1.112   .     S
C336   H338    1.109   .     S
C336   H337    1.106   .     S
O340   C341    1.410   .     S
C341   H344    1.109   .     S
C341   H342    1.114   .     S
C341   H343    1.114   .     S
H346   C472    1.088   .     S
H348   N210    1.029   1_655 S
C349   C355    1.429   .     S
C349   O387    1.293   .     A
C349   O385    1.297   .     A
C350   O386    1.297   .     A
C350   O388    1.293   .     A
C350   C356    1.429   .     S
C351   C372    1.407   .     A
C351   H381    1.082   .     S
C351   C353    1.392   .     A
C352   H382    1.078   .     S
C352   C354    1.392   .     A
C352   C371    1.417   .     A
C353   H375    1.084   .     S
C353   C891    1.397   1_554 S
C354   C892    1.393   .     S
C354   H434    1.084   .     S
C355   C8      1.330   1_565 S
C355   H55     1.088   1_565 S
C357   O389    1.309   .     A
C357   C359    1.469   .     S
C357   O391    1.301   .     A
C358   O390    1.310   .     A
C358   C360    1.473   .     S
C358   O392    1.302   .     A
C359   C363    1.398   .     A
C359   C365    1.407   .     A
C360   C366    1.401   .     A
C360   C364    1.397   .     A
C361   C369    1.404   .     A
C361   C363    1.394   .     A
C361   H495    1.084   1_455 S
C362   C364    1.400   .     A
C362   C370    1.397   .     A
C362   H438    1.079   .     S
C363   H378    1.083   .     S
C364   H377    1.072   .     S
C365   O398    1.384   .     S
C365   C367    1.416   .     A
C366   O393    1.386   .     S
C366   C368    1.411   .     A
C367   C371    1.425   .     A
C367   C369    1.420   .     A
C368   C370    1.407   .     A
C368   C372    1.413   .     A
C369   C875    1.397   .     S
C370   C876    1.393   1_554 S
C371   C894    1.421   .     S
C372   C893    1.421   1_554 S
Cu373  Cu374   2.710   .     S
Cu373  O389    1.920   .     S
Cu373  O392    1.903   .     S
Cu373  O388    1.950   .     S
Cu373  N384    2.036   .     S
Cu373  O385    1.953   .     S
Cu374  O391    1.903   .     S
Cu374  O387    1.950   .     S
Cu374  N383    2.036   .     S
Cu374  O390    1.920   .     S
Cu374  O386    1.953   .     S
H376   C470    1.084   1_455 S
H379   C419    1.084   .     S
H380   C478    1.079   1_455 S
N383   N442    1.288   .     S
N383   H463    1.029   .     S
N384   N499    1.288   1_455 S
N384   H522    1.029   1_455 S
O393   C394    1.397   .     S
C394   H397    1.112   .     S
C394   H396    1.109   .     S
C394   H395    1.106   .     S
O398   C399    1.410   .     S
C399   H402    1.109   .     S
C399   H400    1.114   .     S
C399   H401    1.114   .     S
H404   C8      1.088   1_565 S
H405   N499    1.029   1_455 S
H406   N442    1.029   .     S
C407   C413    1.429   .     S
C407   O445    1.293   .     A
C407   O443    1.297   .     A
C408   O444    1.297   .     A
C408   O446    1.293   .     A
C408   C414    1.429   .     S
C409   C430    1.407   .     A
C409   H439    1.082   .     S
C409   C411    1.392   .     A
C410   H440    1.078   .     S
C410   C412    1.392   .     A
C410   C429    1.417   .     A
C411   H433    1.084   .     S
C411   C949    1.397   1_554 S
C412   C950    1.393   .     S
C412   H492    1.084   .     S
C413   C66     1.330   1_565 S
C413   H113    1.088   1_565 S
C415   O447    1.309   .     A
C415   C417    1.469   .     S
C415   O449    1.301   .     A
C416   O448    1.310   .     A
C416   C418    1.473   .     S
C416   O450    1.302   .     A
C417   C421    1.398   .     A
C417   C423    1.407   .     A
C418   C424    1.401   .     A
C418   C422    1.397   .     A
C419   C427    1.404   .     A
C419   C421    1.394   .     A
C420   C422    1.400   .     A
C420   C428    1.397   .     A
C420   H496    1.079   .     S
C421   H436    1.083   .     S
C422   H435    1.072   .     S
C423   O456    1.384   .     S
C423   C425    1.416   .     A
C424   O451    1.386   .     S
C424   C426    1.411   .     A
C425   C429    1.425   .     A
C425   C427    1.420   .     A
C426   C428    1.407   .     A
C426   C430    1.413   .     A
C427   C933    1.397   .     S
C428   C934    1.393   1_554 S
C429   C952    1.421   .     S
C430   C951    1.421   1_554 S
Cu431  Cu432   2.710   .     S
Cu431  O447    1.920   .     S
Cu431  O450    1.903   .     S
Cu431  O446    1.950   .     S
Cu431  N442    2.036   .     S
Cu431  O443    1.953   .     S
Cu432  O449    1.903   .     S
Cu432  O445    1.950   .     S
Cu432  N441    2.036   .     S
Cu432  O448    1.920   .     S
Cu432  O444    1.953   .     S
H437   C477    1.084   .     S
N441   N500    1.288   .     S
N441   H521    1.029   .     S
O451   C452    1.397   .     S
C452   H455    1.112   .     S
C452   H454    1.109   .     S
C452   H453    1.106   .     S
O456   C457    1.410   .     S
C457   H460    1.109   .     S
C457   H458    1.114   .     S
C457   H459    1.114   .     S
H462   C66     1.088   1_565 S
H464   N500    1.029   .     S
C465   C471    1.429   .     S
C465   O503    1.293   .     A
C465   O501    1.297   .     A
C466   O502    1.297   .     A
C466   O504    1.293   .     A
C466   C472    1.429   .     S
C467   C488    1.407   .     A
C467   H497    1.082   .     S
C467   C469    1.392   .     A
C468   H498    1.078   .     S
C468   C470    1.392   .     A
C468   C487    1.417   .     A
C469   H491    1.084   .     S
C469   C1007   1.397   1_554 S
C470   C1008   1.393   .     S
C470   H376    1.084   1_655 S
C471   C124    1.330   1_565 S
C471   H171    1.088   1_565 S
C473   O505    1.309   .     A
C473   C475    1.469   .     S
C473   O507    1.301   .     A
C474   O506    1.310   .     A
C474   C476    1.473   .     S
C474   O508    1.302   .     A
C475   C479    1.398   .     A
C475   C481    1.407   .     A
C476   C482    1.401   .     A
C476   C480    1.397   .     A
C477   C485    1.404   .     A
C477   C479    1.394   .     A
C478   C480    1.400   .     A
C478   C486    1.397   .     A
C478   H380    1.079   1_655 S
C479   H494    1.083   .     S
C480   H493    1.072   .     S
C481   O514    1.384   .     S
C481   C483    1.416   .     A
C482   O509    1.386   .     S
C482   C484    1.411   .     A
C483   C487    1.425   .     A
C483   C485    1.420   .     A
C484   C486    1.407   .     A
C484   C488    1.413   .     A
C485   C991    1.397   .     S
C486   C992    1.393   1_554 S
C487   C1010   1.421   .     S
C488   C1009   1.421   1_554 S
Cu489  Cu490   2.710   .     S
Cu489  O505    1.920   .     S
Cu489  O508    1.903   .     S
Cu489  O504    1.950   .     S
Cu489  N500    2.036   .     S
Cu489  O501    1.953   .     S
Cu490  O507    1.903   .     S
Cu490  O503    1.950   .     S
Cu490  N499    2.036   .     S
Cu490  O506    1.920   .     S
Cu490  O502    1.953   .     S
H495   C361    1.084   1_655 S
N499   N384    1.288   1_655 S
N499   H405    1.029   1_655 S
O509   C510    1.397   .     S
C510   H513    1.112   .     S
C510   H512    1.109   .     S
C510   H511    1.106   .     S
O514   C515    1.410   .     S
C515   H518    1.109   .     S
C515   H516    1.114   .     S
C515   H517    1.114   .     S
H520   C124    1.088   1_565 S
H522   N384    1.029   1_655 S
C523   C529    1.429   .     S
C523   O561    1.293   .     A
C523   O559    1.297   .     A
C524   O560    1.297   .     A
C524   O562    1.293   .     A
C524   C530    1.429   .     S
C525   C546    1.407   .     A
C525   H555    1.082   .     S
C525   C527    1.392   .     A
C526   H556    1.078   .     S
C526   C528    1.392   .     A
C526   C545    1.417   .     A
C527   H549    1.084   .     S
C528   C22     1.393   1_556 S
C528   H608    1.084   .     S
C529   C704    1.330   .     S
C529   H751    1.088   .     S
C530   C877    1.330   1_545 S
C530   H926    1.088   1_545 S
C531   O563    1.309   .     A
C531   C533    1.469   .     S
C531   O565    1.301   .     A
C532   O564    1.310   .     A
C532   C534    1.473   .     S
C532   O566    1.302   .     A
C533   C537    1.398   .     A
C533   C539    1.407   .     A
C534   C540    1.401   .     A
C534   C538    1.397   .     A
C535   C543    1.404   .     A
C535   C537    1.394   .     A
C535   H669    1.084   1_455 S
C536   C538    1.400   .     A
C536   C544    1.397   .     A
C536   H612    1.079   .     S
C537   H552    1.083   .     S
C538   H551    1.072   .     S
C539   O572    1.384   .     S
C539   C541    1.416   .     A
C540   O567    1.386   .     S
C540   C542    1.411   .     A
C541   C545    1.425   .     A
C541   C543    1.420   .     A
C542   C544    1.407   .     A
C542   C546    1.413   .     A
C543   C5      1.397   1_556 S
C545   C24     1.421   1_556 S
Cu547  Cu548   2.710   .     S
Cu547  O563    1.920   .     S
Cu547  O566    1.903   .     S
Cu547  O562    1.950   .     S
Cu547  N558    2.036   .     S
Cu547  O559    1.953   .     S
Cu548  O565    1.903   .     S
Cu548  O561    1.950   .     S
Cu548  N557    2.036   .     S
Cu548  O564    1.920   .     S
Cu548  O560    1.953   .     S
H550   C644    1.084   1_455 S
H553   C593    1.084   .     S
H554   C652    1.079   1_455 S
N557   N616    1.288   .     S
N557   H637    1.029   .     S
N558   N673    1.288   1_455 S
N558   H696    1.029   1_455 S
O567   C568    1.397   .     S
C568   H571    1.112   .     S
C568   H570    1.109   .     S
C568   H569    1.106   .     S
O572   C573    1.410   .     S
C573   H576    1.109   .     S
C573   H574    1.114   .     S
C573   H575    1.114   .     S
H577   C877    1.088   1_545 S
H578   C704    1.088   .     S
H579   N673    1.029   1_455 S
H580   N616    1.029   .     S
C581   C587    1.429   .     S
C581   O619    1.293   .     A
C581   O617    1.297   .     A
C582   O618    1.297   .     A
C582   O620    1.293   .     A
C582   C588    1.429   .     S
C583   C604    1.407   .     A
C583   H613    1.082   .     S
C583   C585    1.392   .     A
C584   H614    1.078   .     S
C584   C586    1.392   .     A
C584   C603    1.417   .     A
C585   H607    1.084   .     S
C586   C80     1.393   1_556 S
C586   H666    1.084   .     S
C587   C762    1.330   .     S
C587   H809    1.088   .     S
C588   C935    1.330   1_545 S
C588   H984    1.088   1_545 S
C589   O621    1.309   .     A
C589   C591    1.469   .     S
C589   O623    1.301   .     A
C590   O622    1.310   .     A
C590   C592    1.473   .     S
C590   O624    1.302   .     A
C591   C595    1.398   .     A
C591   C597    1.407   .     A
C592   C598    1.401   .     A
C592   C596    1.397   .     A
C593   C601    1.404   .     A
C593   C595    1.394   .     A
C594   C596    1.400   .     A
C594   C602    1.397   .     A
C594   H670    1.079   .     S
C595   H610    1.083   .     S
C596   H609    1.072   .     S
C597   O630    1.384   .     S
C597   C599    1.416   .     A
C598   O625    1.386   .     S
C598   C600    1.411   .     A
C599   C603    1.425   .     A
C599   C601    1.420   .     A
C600   C602    1.407   .     A
C600   C604    1.413   .     A
C601   C63     1.397   1_556 S
C603   C82     1.421   1_556 S
Cu605  Cu606   2.710   .     S
Cu605  O621    1.920   .     S
Cu605  O624    1.903   .     S
Cu605  O620    1.950   .     S
Cu605  N616    2.036   .     S
Cu605  O617    1.953   .     S
Cu606  O623    1.903   .     S
Cu606  O619    1.950   .     S
Cu606  N615    2.036   .     S
Cu606  O622    1.920   .     S
Cu606  O618    1.953   .     S
H611   C651    1.084   .     S
N615   N674    1.288   .     S
N615   H695    1.029   .     S
O625   C626    1.397   .     S
C626   H629    1.112   .     S
C626   H628    1.109   .     S
C626   H627    1.106   .     S
O630   C631    1.410   .     S
C631   H634    1.109   .     S
C631   H632    1.114   .     S
C631   H633    1.114   .     S
H635   C935    1.088   1_545 S
H636   C762    1.088   .     S
H638   N674    1.029   .     S
C639   C645    1.429   .     S
C639   O677    1.293   .     A
C639   O675    1.297   .     A
C640   O676    1.297   .     A
C640   O678    1.293   .     A
C640   C646    1.429   .     S
C641   C662    1.407   .     A
C641   H671    1.082   .     S
C641   C643    1.392   .     A
C642   H672    1.078   .     S
C642   C644    1.392   .     A
C642   C661    1.417   .     A
C643   H665    1.084   .     S
C644   C138    1.393   1_556 S
C644   H550    1.084   1_655 S
C645   C820    1.330   .     S
C645   H867    1.088   .     S
C646   C993    1.330   1_545 S
C646   H1042   1.088   1_545 S
C647   O679    1.309   .     A
C647   C649    1.469   .     S
C647   O681    1.301   .     A
C648   O680    1.310   .     A
C648   C650    1.473   .     S
C648   O682    1.302   .     A
C649   C653    1.398   .     A
C649   C655    1.407   .     A
C650   C656    1.401   .     A
C650   C654    1.397   .     A
C651   C659    1.404   .     A
C651   C653    1.394   .     A
C652   C654    1.400   .     A
C652   C660    1.397   .     A
C652   H554    1.079   1_655 S
C653   H668    1.083   .     S
C654   H667    1.072   .     S
C655   O688    1.384   .     S
C655   C657    1.416   .     A
C656   O683    1.386   .     S
C656   C658    1.411   .     A
C657   C661    1.425   .     A
C657   C659    1.420   .     A
C658   C660    1.407   .     A
C658   C662    1.413   .     A
C659   C121    1.397   1_556 S
C661   C140    1.421   1_556 S
Cu663  Cu664   2.710   .     S
Cu663  O679    1.920   .     S
Cu663  O682    1.903   .     S
Cu663  O678    1.950   .     S
Cu663  N674    2.036   .     S
Cu663  O675    1.953   .     S
Cu664  O681    1.903   .     S
Cu664  O677    1.950   .     S
Cu664  N673    2.036   .     S
Cu664  O680    1.920   .     S
Cu664  O676    1.953   .     S
H669   C535    1.084   1_655 S
N673   N558    1.288   1_655 S
N673   H579    1.029   1_655 S
O683   C684    1.397   .     S
C684   H687    1.112   .     S
C684   H686    1.109   .     S
C684   H685    1.106   .     S
O688   C689    1.410   .     S
C689   H692    1.109   .     S
C689   H690    1.114   .     S
C689   H691    1.114   .     S
H693   C993    1.088   1_545 S
H694   C820    1.088   .     S
H696   N558    1.029   1_655 S
C697   C703    1.429   .     S
C697   O735    1.293   .     A
C697   O733    1.297   .     A
C698   O734    1.297   .     A
C698   O736    1.293   .     A
C698   C704    1.429   .     S
C699   C720    1.407   .     A
C699   H729    1.082   .     S
C699   C701    1.392   .     A
C700   H730    1.078   .     S
C700   C702    1.392   .     A
C700   C719    1.417   .     A
C701   H723    1.084   .     S
C702   C196    1.393   1_556 S
C702   H782    1.084   .     S
C703   C878    1.330   .     S
C703   H925    1.088   .     S
C705   O737    1.309   .     A
C705   C707    1.469   .     S
C705   O739    1.301   .     A
C706   O738    1.310   .     A
C706   C708    1.473   .     S
C706   O740    1.302   .     A
C707   C711    1.398   .     A
C707   C713    1.407   .     A
C708   C714    1.401   .     A
C708   C712    1.397   .     A
C709   C717    1.404   .     A
C709   C711    1.394   .     A
C709   H843    1.084   1_455 S
C710   C712    1.400   .     A
C710   C718    1.397   .     A
C710   H786    1.079   .     S
C711   H726    1.083   .     S
C712   H725    1.072   .     S
C713   O746    1.384   .     S
C713   C715    1.416   .     A
C714   O741    1.386   .     S
C714   C716    1.411   .     A
C715   C719    1.425   .     A
C715   C717    1.420   .     A
C716   C718    1.407   .     A
C716   C720    1.413   .     A
C717   C179    1.397   1_556 S
C719   C198    1.421   1_556 S
Cu721  Cu722   2.710   .     S
Cu721  O737    1.920   .     S
Cu721  O740    1.903   .     S
Cu721  O736    1.950   .     S
Cu721  N732    2.036   .     S
Cu721  O733    1.953   .     S
Cu722  O739    1.903   .     S
Cu722  O735    1.950   .     S
Cu722  N731    2.036   .     S
Cu722  O738    1.920   .     S
Cu722  O734    1.953   .     S
H724   C818    1.084   1_455 S
H727   C767    1.084   .     S
H728   C826    1.079   1_455 S
N731   N790    1.288   .     S
N731   H811    1.029   .     S
N732   N847    1.288   1_455 S
N732   H870    1.029   1_455 S
O741   C742    1.397   .     S
C742   H745    1.112   .     S
C742   H744    1.109   .     S
C742   H743    1.106   .     S
O746   C747    1.410   .     S
C747   H750    1.109   .     S
C747   H748    1.114   .     S
C747   H749    1.114   .     S
H752   C878    1.088   .     S
H753   N847    1.029   1_455 S
H754   N790    1.029   .     S
C755   C761    1.429   .     S
C755   O793    1.293   .     A
C755   O791    1.297   .     A
C756   O792    1.297   .     A
C756   O794    1.293   .     A
C756   C762    1.429   .     S
C757   C778    1.407   .     A
C757   H787    1.082   .     S
C757   C759    1.392   .     A
C758   H788    1.078   .     S
C758   C760    1.392   .     A
C758   C777    1.417   .     A
C759   H781    1.084   .     S
C760   C254    1.393   1_556 S
C760   H840    1.084   .     S
C761   C936    1.330   .     S
C761   H983    1.088   .     S
C763   O795    1.309   .     A
C763   C765    1.469   .     S
C763   O797    1.301   .     A
C764   O796    1.310   .     A
C764   C766    1.473   .     S
C764   O798    1.302   .     A
C765   C769    1.398   .     A
C765   C771    1.407   .     A
C766   C772    1.401   .     A
C766   C770    1.397   .     A
C767   C775    1.404   .     A
C767   C769    1.394   .     A
C768   C770    1.400   .     A
C768   C776    1.397   .     A
C768   H844    1.079   .     S
C769   H784    1.083   .     S
C770   H783    1.072   .     S
C771   O804    1.384   .     S
C771   C773    1.416   .     A
C772   O799    1.386   .     S
C772   C774    1.411   .     A
C773   C777    1.425   .     A
C773   C775    1.420   .     A
C774   C776    1.407   .     A
C774   C778    1.413   .     A
C775   C237    1.397   1_556 S
C777   C256    1.421   1_556 S
Cu779  Cu780   2.710   .     S
Cu779  O795    1.920   .     S
Cu779  O798    1.903   .     S
Cu779  O794    1.950   .     S
Cu779  N790    2.036   .     S
Cu779  O791    1.953   .     S
Cu780  O797    1.903   .     S
Cu780  O793    1.950   .     S
Cu780  N789    2.036   .     S
Cu780  O796    1.920   .     S
Cu780  O792    1.953   .     S
H785   C825    1.084   .     S
N789   N848    1.288   .     S
N789   H869    1.029   .     S
O799   C800    1.397   .     S
C800   H803    1.112   .     S
C800   H802    1.109   .     S
C800   H801    1.106   .     S
O804   C805    1.410   .     S
C805   H808    1.109   .     S
C805   H806    1.114   .     S
C805   H807    1.114   .     S
H810   C936    1.088   .     S
H812   N848    1.029   .     S
C813   C819    1.429   .     S
C813   O851    1.293   .     A
C813   O849    1.297   .     A
C814   O850    1.297   .     A
C814   O852    1.293   .     A
C814   C820    1.429   .     S
C815   C836    1.407   .     A
C815   H845    1.082   .     S
C815   C817    1.392   .     A
C816   H846    1.078   .     S
C816   C818    1.392   .     A
C816   C835    1.417   .     A
C817   H839    1.084   .     S
C818   C312    1.393   1_556 S
C818   H724    1.084   1_655 S
C819   C994    1.330   .     S
C819   H1041   1.088   .     S
C821   O853    1.309   .     A
C821   C823    1.469   .     S
C821   O855    1.301   .     A
C822   O854    1.310   .     A
C822   C824    1.473   .     S
C822   O856    1.302   .     A
C823   C827    1.398   .     A
C823   C829    1.407   .     A
C824   C830    1.401   .     A
C824   C828    1.397   .     A
C825   C833    1.404   .     A
C825   C827    1.394   .     A
C826   C828    1.400   .     A
C826   C834    1.397   .     A
C826   H728    1.079   1_655 S
C827   H842    1.083   .     S
C828   H841    1.072   .     S
C829   O862    1.384   .     S
C829   C831    1.416   .     A
C830   O857    1.386   .     S
C830   C832    1.411   .     A
C831   C835    1.425   .     A
C831   C833    1.420   .     A
C832   C834    1.407   .     A
C832   C836    1.413   .     A
C833   C295    1.397   1_556 S
C835   C314    1.421   1_556 S
Cu837  Cu838   2.710   .     S
Cu837  O853    1.920   .     S
Cu837  O856    1.903   .     S
Cu837  O852    1.950   .     S
Cu837  N848    2.036   .     S
Cu837  O849    1.953   .     S
Cu838  O855    1.903   .     S
Cu838  O851    1.950   .     S
Cu838  N847    2.036   .     S
Cu838  O854    1.920   .     S
Cu838  O850    1.953   .     S
H843   C709    1.084   1_655 S
N847   N732    1.288   1_655 S
N847   H753    1.029   1_655 S
O857   C858    1.397   .     S
C858   H861    1.112   .     S
C858   H860    1.109   .     S
C858   H859    1.106   .     S
O862   C863    1.410   .     S
C863   H866    1.109   .     S
C863   H864    1.114   .     S
C863   H865    1.114   .     S
H868   C994    1.088   .     S
H870   N732    1.029   1_655 S
C871   C877    1.429   .     S
C871   O909    1.293   .     A
C871   O907    1.297   .     A
C872   O908    1.297   .     A
C872   O910    1.293   .     A
C872   C878    1.429   .     S
C873   C894    1.407   .     A
C873   H903    1.082   .     S
C873   C875    1.392   .     A
C874   H904    1.078   .     S
C874   C876    1.392   .     A
C874   C893    1.417   .     A
C875   H897    1.084   .     S
C876   C370    1.393   1_556 S
C876   H956    1.084   .     S
C877   C530    1.330   1_565 S
C877   H577    1.088   1_565 S
C879   O911    1.309   .     A
C879   C881    1.469   .     S
C879   O913    1.301   .     A
C880   O912    1.310   .     A
C880   C882    1.473   .     S
C880   O914    1.302   .     A
C881   C885    1.398   .     A
C881   C887    1.407   .     A
C882   C888    1.401   .     A
C882   C886    1.397   .     A
C883   C891    1.404   .     A
C883   C885    1.394   .     A
C883   H1017   1.084   1_455 S
C884   C886    1.400   .     A
C884   C892    1.397   .     A
C884   H960    1.079   .     S
C885   H900    1.083   .     S
C886   H899    1.072   .     S
C887   O920    1.384   .     S
C887   C889    1.416   .     A
C888   O915    1.386   .     S
C888   C890    1.411   .     A
C889   C893    1.425   .     A
C889   C891    1.420   .     A
C890   C892    1.407   .     A
C890   C894    1.413   .     A
C891   C353    1.397   1_556 S
C893   C372    1.421   1_556 S
Cu895  Cu896   2.710   .     S
Cu895  O911    1.920   .     S
Cu895  O914    1.903   .     S
Cu895  O910    1.950   .     S
Cu895  N906    2.036   .     S
Cu895  O907    1.953   .     S
Cu896  O913    1.903   .     S
Cu896  O909    1.950   .     S
Cu896  N905    2.036   .     S
Cu896  O912    1.920   .     S
Cu896  O908    1.953   .     S
H898   C992    1.084   1_455 S
H901   C941    1.084   .     S
H902   C1000   1.079   1_455 S
N905   N964    1.288   .     S
N905   H985    1.029   .     S
N906   N1021   1.288   1_455 S
N906   H1044   1.029   1_455 S
O915   C916    1.397   .     S
C916   H919    1.112   .     S
C916   H918    1.109   .     S
C916   H917    1.106   .     S
O920   C921    1.410   .     S
C921   H924    1.109   .     S
C921   H922    1.114   .     S
C921   H923    1.114   .     S
H926   C530    1.088   1_565 S
H927   N1021   1.029   1_455 S
H928   N964    1.029   .     S
C929   C935    1.429   .     S
C929   O967    1.293   .     A
C929   O965    1.297   .     A
C930   O966    1.297   .     A
C930   O968    1.293   .     A
C930   C936    1.429   .     S
C931   C952    1.407   .     A
C931   H961    1.082   .     S
C931   C933    1.392   .     A
C932   H962    1.078   .     S
C932   C934    1.392   .     A
C932   C951    1.417   .     A
C933   H955    1.084   .     S
C934   C428    1.393   1_556 S
C934   H1014   1.084   .     S
C935   C588    1.330   1_565 S
C935   H635    1.088   1_565 S
C937   O969    1.309   .     A
C937   C939    1.469   .     S
C937   O971    1.301   .     A
C938   O970    1.310   .     A
C938   C940    1.473   .     S
C938   O972    1.302   .     A
C939   C943    1.398   .     A
C939   C945    1.407   .     A
C940   C946    1.401   .     A
C940   C944    1.397   .     A
C941   C949    1.404   .     A
C941   C943    1.394   .     A
C942   C944    1.400   .     A
C942   C950    1.397   .     A
C942   H1018   1.079   .     S
C943   H958    1.083   .     S
C944   H957    1.072   .     S
C945   O978    1.384   .     S
C945   C947    1.416   .     A
C946   O973    1.386   .     S
C946   C948    1.411   .     A
C947   C951    1.425   .     A
C947   C949    1.420   .     A
C948   C950    1.407   .     A
C948   C952    1.413   .     A
C949   C411    1.397   1_556 S
C951   C430    1.421   1_556 S
Cu953  Cu954   2.710   .     S
Cu953  O969    1.920   .     S
Cu953  O972    1.903   .     S
Cu953  O968    1.950   .     S
Cu953  N964    2.036   .     S
Cu953  O965    1.953   .     S
Cu954  O971    1.903   .     S
Cu954  O967    1.950   .     S
Cu954  N963    2.036   .     S
Cu954  O970    1.920   .     S
Cu954  O966    1.953   .     S
H959   C999    1.084   .     S
N963   N1022   1.288   .     S
N963   H1043   1.029   .     S
O973   C974    1.397   .     S
C974   H977    1.112   .     S
C974   H976    1.109   .     S
C974   H975    1.106   .     S
O978   C979    1.410   .     S
C979   H982    1.109   .     S
C979   H980    1.114   .     S
C979   H981    1.114   .     S
H984   C588    1.088   1_565 S
H986   N1022   1.029   .     S
C987   C993    1.429   .     S
C987   O1025   1.293   .     A
C987   O1023   1.297   .     A
C988   O1024   1.297   .     A
C988   O1026   1.293   .     A
C988   C994    1.429   .     S
C989   C1010   1.407   .     A
C989   H1019   1.082   .     S
C989   C991    1.392   .     A
C990   H1020   1.078   .     S
C990   C992    1.392   .     A
C990   C1009   1.417   .     A
C991   H1013   1.084   .     S
C992   C486    1.393   1_556 S
C992   H898    1.084   1_655 S
C993   C646    1.330   1_565 S
C993   H693    1.088   1_565 S
C995   O1027   1.309   .     A
C995   C997    1.469   .     S
C995   O1029   1.301   .     A
C996   O1028   1.310   .     A
C996   C998    1.473   .     S
C996   O1030   1.302   .     A
C997   C1001   1.398   .     A
C997   C1003   1.407   .     A
C998   C1004   1.401   .     A
C998   C1002   1.397   .     A
C999   C1007   1.404   .     A
C999   C1001   1.394   .     A
C1000  C1002   1.400   .     A
C1000  C1008   1.397   .     A
C1000  H902    1.079   1_655 S
C1001  H1016   1.083   .     S
C1002  H1015   1.072   .     S
C1003  O1036   1.384   .     S
C1003  C1005   1.416   .     A
C1004  O1031   1.386   .     S
C1004  C1006   1.411   .     A
C1005  C1009   1.425   .     A
C1005  C1007   1.420   .     A
C1006  C1008   1.407   .     A
C1006  C1010   1.413   .     A
C1007  C469    1.397   1_556 S
C1009  C488    1.421   1_556 S
Cu1011 Cu1012  2.710   .     S
Cu1011 O1027   1.920   .     S
Cu1011 O1030   1.903   .     S
Cu1011 O1026   1.950   .     S
Cu1011 N1022   2.036   .     S
Cu1011 O1023   1.953   .     S
Cu1012 O1029   1.903   .     S
Cu1012 O1025   1.950   .     S
Cu1012 N1021   2.036   .     S
Cu1012 O1028   1.920   .     S
Cu1012 O1024   1.953   .     S
H1017  C883    1.084   1_655 S
N1021  N906    1.288   1_655 S
N1021  H927    1.029   1_655 S
O1031  C1032   1.397   .     S
C1032  H1035   1.112   .     S
C1032  H1034   1.109   .     S
C1032  H1033   1.106   .     S
O1036  C1037   1.410   .     S
C1037  H1040   1.109   .     S
C1037  H1038   1.114   .     S
C1037  H1039   1.114   .     S
H1042  C646    1.088   1_565 S
H1044  N906    1.029   1_655 S
