data_str_m2_o10_o17_pcu_sym.189
_audit_creation_date              2020-01-03
_audit_creation_method            'Materials Studio'
_symmetry_space_group_name_H-M    'P1'
_symmetry_Int_Tables_number       1
_symmetry_cell_setting            triclinic
loop_
_symmetry_equiv_pos_as_xyz
  x,y,z
_cell_length_a                    30.1963
_cell_length_b                    26.6053
_cell_length_c                    22.5858
_cell_angle_alpha                 101.9493
_cell_angle_beta                  93.3098
_cell_angle_gamma                 95.2604
loop_
_atom_site_label
_atom_site_type_symbol
_atom_site_fract_x
_atom_site_fract_y
_atom_site_fract_z
_atom_site_U_iso_or_equiv
_atom_site_adp_type
_atom_site_occupancy
C1     C     0.25037   0.06731   0.15178   0.00000  Uiso   1.00
C2     C     0.25118   0.26623   0.18155   0.00000  Uiso   1.00
C3     C     0.01319   0.07696   0.11111   0.00000  Uiso   1.00
C4     C     0.48700   0.25745   0.22351   0.00000  Uiso   1.00
C5     C     0.25479   0.01297   0.14426   0.00000  Uiso   1.00
C6     C     0.24737   0.32074   0.18932   0.00000  Uiso   1.00
C7     C     0.16457   0.16632   0.16791   0.00000  Uiso   1.00
C8     C     0.33528   0.16660   0.16552   0.00000  Uiso   1.00
C9     C     0.41089   0.21228   0.19316   0.00000  Uiso   1.00
C10    C     0.08803   0.11812   0.15016   0.00000  Uiso   1.00
C11    C     0.38362   0.16802   0.16302   0.00000  Uiso   1.00
C12    C     0.11614   0.16453   0.17075   0.00000  Uiso   1.00
C13    C     0.40168   0.12656   0.12788   0.00000  Uiso   1.00
C14    C     0.09849   0.20919   0.19986   0.00000  Uiso   1.00
C15    C     0.44819   0.12387   0.13254   0.00000  Uiso   1.00
C16    C     0.05194   0.21197   0.19593   0.00000  Uiso   1.00
C17    C     0.47653   0.16820   0.16418   0.00000  Uiso   1.00
C18    C     0.02342   0.16729   0.16647   0.00000  Uiso   1.00
C19    C     0.45797   0.21316   0.19413   0.00000  Uiso   1.00
C20    C     0.04175   0.12083   0.14175   0.00000  Uiso   1.00
C21    C     0.46699   0.07817   0.10706   0.00000  Uiso   1.00
C22    C     0.03322   0.25775   0.22120   0.00000  Uiso   1.00
Cu23   Cu    0.25500   0.17246   0.22813   0.00000  Uiso   1.00
Cu24   Cu    0.24499   0.16087   0.10521   0.00000  Uiso   1.00
N25    N     0.23744   0.15214   0.01284   0.00000  Uiso   1.00
N26    N     0.26255   0.18119   0.32049   0.00000  Uiso   1.00
O27    O     0.25325   0.09538   0.20659   0.00000  Uiso   1.00
O28    O     0.24674   0.23796   0.12674   0.00000  Uiso   1.00
O29    O     0.24480   0.08559   0.10279   0.00000  Uiso   1.00
O30    O     0.25520   0.24774   0.23055   0.00000  Uiso   1.00
O31    O     0.18935   0.17155   0.21857   0.00000  Uiso   1.00
O32    O     0.31064   0.16179   0.11476   0.00000  Uiso   1.00
O33    O     0.18090   0.16176   0.11477   0.00000  Uiso   1.00
O34    O     0.31910   0.17157   0.21857   0.00000  Uiso   1.00
O35    O     0.39060   0.25565   0.21757   0.00000  Uiso   1.00
C36    C     0.38191   0.28225   0.17072   0.00000  Uiso   1.00
H37    H     0.35524   0.26011   0.13713   0.00000  Uiso   1.00
H38    H     0.41243   0.28915   0.14713   0.00000  Uiso   1.00
C39    C     0.36612   0.00073   0.19721   0.00000  Uiso   1.00
H40    H     0.39253   0.02568   0.22891   0.00000  Uiso   1.00
H41    H     0.35729   0.02067   0.16034   0.00000  Uiso   1.00
H42    H     0.33623   0.32758   0.22173   0.00000  Uiso   1.00
O43    O     0.10065   0.07267   0.16410   0.00000  Uiso   1.00
C44    C     0.13393   0.05181   0.12842   0.00000  Uiso   1.00
H45    H     0.16654   0.07272   0.14577   0.00000  Uiso   1.00
H46    H     0.12732   0.05214   0.07947   0.00000  Uiso   1.00
C47    C     0.13691   0.33017   0.13614   0.00000  Uiso   1.00
H48    H     0.16651   0.31552   0.11530   0.00000  Uiso   1.00
H49    H     0.14142   0.32968   0.18503   0.00000  Uiso   1.00
H50    H     0.10661   0.30447   0.11513   0.00000  Uiso   1.00
O51    O     0.37293   0.08966   0.08824   0.00000  Uiso   1.00
C52    C     0.37306   0.10131   0.02984   0.00000  Uiso   1.00
H53    H     0.40260   0.08755   0.00682   0.00000  Uiso   1.00
H54    H     0.37367   0.14344   0.03121   0.00000  Uiso   1.00
C55    C     0.33122   0.07411   0.32551   0.00000  Uiso   1.00
H56    H     0.33050   0.08310   0.27964   0.00000  Uiso   1.00
H57    H     0.33048   0.03181   0.32180   0.00000  Uiso   1.00
H58    H     0.30126   0.08723   0.01415   0.00000  Uiso   1.00
O59    O     0.12718   0.24683   0.23871   0.00000  Uiso   1.00
C60    C     0.12719   0.23607   0.29765   0.00000  Uiso   1.00
H61    H     0.12473   0.19388   0.29722   0.00000  Uiso   1.00
H62    H     0.09873   0.25218   0.32138   0.00000  Uiso   1.00
C63    C     0.17026   0.26070   0.00074   0.00000  Uiso   1.00
H64    H     0.19926   0.24983   0.30858   0.00000  Uiso   1.00
H65    H     0.17084   0.30340   0.01059   0.00000  Uiso   1.00
H66    H     0.17315   0.24641   0.04343   0.00000  Uiso   1.00
Cl67   Cl    0.43393   0.01942   0.07371   0.00000  Uiso   1.00
Cl68   Cl    0.06617   0.31802   0.24759   0.00000  Uiso   1.00
Cl69   Cl    0.03439   0.02048   0.07187   0.00000  Uiso   1.00
Cl70   Cl    0.46783   0.31379   0.26633   0.00000  Uiso   1.00
Cl71   Cl    0.27343   0.31826   0.07346   0.00000  Uiso   1.00
Cl72   Cl    0.22877   0.01551   0.26022   0.00000  Uiso   1.00
Cl73   Cl    0.18779   0.12076   0.30969   0.00000  Uiso   1.00
Cl74   Cl    0.31211   0.21266   0.02333   0.00000  Uiso   1.00
C75    C     0.75037   0.06731   0.15178   0.00000  Uiso   1.00
C76    C     0.75118   0.26623   0.18155   0.00000  Uiso   1.00
C77    C     0.51319   0.07696   0.11111   0.00000  Uiso   1.00
C78    C     0.98700   0.25745   0.22351   0.00000  Uiso   1.00
C79    C     0.75479   0.01297   0.14426   0.00000  Uiso   1.00
C80    C     0.74737   0.32074   0.18932   0.00000  Uiso   1.00
C81    C     0.66457   0.16632   0.16791   0.00000  Uiso   1.00
C82    C     0.83528   0.16660   0.16552   0.00000  Uiso   1.00
C83    C     0.91089   0.21228   0.19316   0.00000  Uiso   1.00
C84    C     0.58803   0.11812   0.15016   0.00000  Uiso   1.00
C85    C     0.88362   0.16802   0.16302   0.00000  Uiso   1.00
C86    C     0.61614   0.16453   0.17075   0.00000  Uiso   1.00
C87    C     0.90168   0.12656   0.12788   0.00000  Uiso   1.00
C88    C     0.59849   0.20919   0.19986   0.00000  Uiso   1.00
C89    C     0.94819   0.12387   0.13254   0.00000  Uiso   1.00
C90    C     0.55194   0.21197   0.19593   0.00000  Uiso   1.00
C91    C     0.97653   0.16820   0.16418   0.00000  Uiso   1.00
C92    C     0.52342   0.16729   0.16647   0.00000  Uiso   1.00
C93    C     0.95797   0.21316   0.19413   0.00000  Uiso   1.00
C94    C     0.54175   0.12083   0.14175   0.00000  Uiso   1.00
C95    C     0.96699   0.07817   0.10706   0.00000  Uiso   1.00
C96    C     0.53322   0.25775   0.22120   0.00000  Uiso   1.00
Cu97   Cu    0.75500   0.17246   0.22813   0.00000  Uiso   1.00
Cu98   Cu    0.74499   0.16087   0.10521   0.00000  Uiso   1.00
N99    N     0.73744   0.15214   0.01284   0.00000  Uiso   1.00
N100   N     0.76255   0.18119   0.32049   0.00000  Uiso   1.00
O101   O     0.75325   0.09538   0.20659   0.00000  Uiso   1.00
O102   O     0.74674   0.23796   0.12674   0.00000  Uiso   1.00
O103   O     0.74480   0.08559   0.10279   0.00000  Uiso   1.00
O104   O     0.75520   0.24774   0.23055   0.00000  Uiso   1.00
O105   O     0.68935   0.17155   0.21857   0.00000  Uiso   1.00
O106   O     0.81064   0.16179   0.11476   0.00000  Uiso   1.00
O107   O     0.68090   0.16176   0.11477   0.00000  Uiso   1.00
O108   O     0.81910   0.17157   0.21857   0.00000  Uiso   1.00
O109   O     0.89060   0.25565   0.21757   0.00000  Uiso   1.00
C110   C     0.88191   0.28225   0.17072   0.00000  Uiso   1.00
H111   H     0.85524   0.26011   0.13713   0.00000  Uiso   1.00
H112   H     0.91243   0.28915   0.14713   0.00000  Uiso   1.00
C113   C     0.86612   0.00073   0.19721   0.00000  Uiso   1.00
H114   H     0.89253   0.02568   0.22891   0.00000  Uiso   1.00
H115   H     0.85729   0.02067   0.16034   0.00000  Uiso   1.00
H116   H     0.83623   0.32758   0.22173   0.00000  Uiso   1.00
O117   O     0.60065   0.07267   0.16410   0.00000  Uiso   1.00
C118   C     0.63393   0.05181   0.12842   0.00000  Uiso   1.00
H119   H     0.66654   0.07272   0.14577   0.00000  Uiso   1.00
H120   H     0.62732   0.05214   0.07947   0.00000  Uiso   1.00
C121   C     0.63691   0.33017   0.13614   0.00000  Uiso   1.00
H122   H     0.66651   0.31552   0.11530   0.00000  Uiso   1.00
H123   H     0.64142   0.32968   0.18503   0.00000  Uiso   1.00
H124   H     0.60661   0.30447   0.11513   0.00000  Uiso   1.00
O125   O     0.87293   0.08966   0.08824   0.00000  Uiso   1.00
C126   C     0.87306   0.10131   0.02984   0.00000  Uiso   1.00
H127   H     0.90260   0.08755   0.00682   0.00000  Uiso   1.00
H128   H     0.87367   0.14344   0.03121   0.00000  Uiso   1.00
C129   C     0.83122   0.07411   0.32551   0.00000  Uiso   1.00
H130   H     0.83050   0.08310   0.27964   0.00000  Uiso   1.00
H131   H     0.83048   0.03181   0.32180   0.00000  Uiso   1.00
H132   H     0.80126   0.08723   0.01415   0.00000  Uiso   1.00
O133   O     0.62718   0.24683   0.23871   0.00000  Uiso   1.00
C134   C     0.62719   0.23607   0.29765   0.00000  Uiso   1.00
H135   H     0.62473   0.19388   0.29722   0.00000  Uiso   1.00
H136   H     0.59873   0.25218   0.32138   0.00000  Uiso   1.00
C137   C     0.67026   0.26070   0.00074   0.00000  Uiso   1.00
H138   H     0.69926   0.24983   0.30858   0.00000  Uiso   1.00
H139   H     0.67084   0.30340   0.01059   0.00000  Uiso   1.00
H140   H     0.67315   0.24641   0.04343   0.00000  Uiso   1.00
Cl141  Cl    0.93393   0.01942   0.07371   0.00000  Uiso   1.00
Cl142  Cl    0.56617   0.31802   0.24759   0.00000  Uiso   1.00
Cl143  Cl    0.53439   0.02048   0.07187   0.00000  Uiso   1.00
Cl144  Cl    0.96783   0.31379   0.26633   0.00000  Uiso   1.00
Cl145  Cl    0.77343   0.31826   0.07346   0.00000  Uiso   1.00
Cl146  Cl    0.72877   0.01551   0.26022   0.00000  Uiso   1.00
Cl147  Cl    0.68779   0.12076   0.30969   0.00000  Uiso   1.00
Cl148  Cl    0.81211   0.21266   0.02333   0.00000  Uiso   1.00
C149   C     0.25037   0.40065   0.15178   0.00000  Uiso   1.00
C150   C     0.25118   0.59956   0.18155   0.00000  Uiso   1.00
C151   C     0.01319   0.41029   0.11111   0.00000  Uiso   1.00
C152   C     0.48700   0.59078   0.22351   0.00000  Uiso   1.00
C153   C     0.25479   0.34631   0.14426   0.00000  Uiso   1.00
C154   C     0.24737   0.65407   0.18932   0.00000  Uiso   1.00
C155   C     0.16457   0.49965   0.16791   0.00000  Uiso   1.00
C156   C     0.33528   0.49994   0.16552   0.00000  Uiso   1.00
C157   C     0.41089   0.54562   0.19316   0.00000  Uiso   1.00
C158   C     0.08803   0.45145   0.15016   0.00000  Uiso   1.00
C159   C     0.38362   0.50136   0.16302   0.00000  Uiso   1.00
C160   C     0.11614   0.49786   0.17075   0.00000  Uiso   1.00
C161   C     0.40168   0.45990   0.12788   0.00000  Uiso   1.00
C162   C     0.09849   0.54252   0.19986   0.00000  Uiso   1.00
C163   C     0.44819   0.45720   0.13254   0.00000  Uiso   1.00
C164   C     0.05194   0.54530   0.19593   0.00000  Uiso   1.00
C165   C     0.47653   0.50153   0.16418   0.00000  Uiso   1.00
C166   C     0.02342   0.50062   0.16647   0.00000  Uiso   1.00
C167   C     0.45797   0.54649   0.19413   0.00000  Uiso   1.00
C168   C     0.04175   0.45416   0.14175   0.00000  Uiso   1.00
C169   C     0.46699   0.41151   0.10706   0.00000  Uiso   1.00
C170   C     0.03322   0.59108   0.22120   0.00000  Uiso   1.00
Cu171  Cu    0.25500   0.50579   0.22813   0.00000  Uiso   1.00
Cu172  Cu    0.24499   0.49421   0.10521   0.00000  Uiso   1.00
N173   N     0.23744   0.48547   0.01284   0.00000  Uiso   1.00
N174   N     0.26255   0.51453   0.32049   0.00000  Uiso   1.00
O175   O     0.25325   0.42871   0.20659   0.00000  Uiso   1.00
O176   O     0.24674   0.57129   0.12674   0.00000  Uiso   1.00
O177   O     0.24480   0.41892   0.10279   0.00000  Uiso   1.00
O178   O     0.25520   0.58108   0.23055   0.00000  Uiso   1.00
O179   O     0.18935   0.50488   0.21857   0.00000  Uiso   1.00
O180   O     0.31064   0.49512   0.11476   0.00000  Uiso   1.00
O181   O     0.18090   0.49510   0.11477   0.00000  Uiso   1.00
O182   O     0.31910   0.50490   0.21857   0.00000  Uiso   1.00
O183   O     0.39060   0.58898   0.21757   0.00000  Uiso   1.00
C184   C     0.38191   0.61558   0.17072   0.00000  Uiso   1.00
H185   H     0.35524   0.59344   0.13713   0.00000  Uiso   1.00
H186   H     0.41243   0.62249   0.14713   0.00000  Uiso   1.00
C187   C     0.36612   0.33406   0.19721   0.00000  Uiso   1.00
H188   H     0.39253   0.35902   0.22891   0.00000  Uiso   1.00
H189   H     0.35729   0.35400   0.16034   0.00000  Uiso   1.00
H190   H     0.33623   0.66092   0.22173   0.00000  Uiso   1.00
O191   O     0.10065   0.40601   0.16410   0.00000  Uiso   1.00
C192   C     0.13393   0.38514   0.12842   0.00000  Uiso   1.00
H193   H     0.16654   0.40606   0.14577   0.00000  Uiso   1.00
H194   H     0.12732   0.38547   0.07947   0.00000  Uiso   1.00
C195   C     0.13691   0.66350   0.13614   0.00000  Uiso   1.00
H196   H     0.16651   0.64885   0.11530   0.00000  Uiso   1.00
H197   H     0.14142   0.66302   0.18503   0.00000  Uiso   1.00
H198   H     0.10661   0.63780   0.11513   0.00000  Uiso   1.00
O199   O     0.37293   0.42300   0.08824   0.00000  Uiso   1.00
C200   C     0.37306   0.43464   0.02984   0.00000  Uiso   1.00
H201   H     0.40260   0.42088   0.00682   0.00000  Uiso   1.00
H202   H     0.37367   0.47678   0.03121   0.00000  Uiso   1.00
C203   C     0.33122   0.40745   0.32551   0.00000  Uiso   1.00
H204   H     0.33050   0.41644   0.27964   0.00000  Uiso   1.00
H205   H     0.33048   0.36515   0.32180   0.00000  Uiso   1.00
H206   H     0.30126   0.42056   0.01415   0.00000  Uiso   1.00
O207   O     0.12718   0.58017   0.23871   0.00000  Uiso   1.00
C208   C     0.12719   0.56940   0.29765   0.00000  Uiso   1.00
H209   H     0.12473   0.52721   0.29722   0.00000  Uiso   1.00
H210   H     0.09873   0.58551   0.32138   0.00000  Uiso   1.00
C211   C     0.17026   0.59403   0.00074   0.00000  Uiso   1.00
H212   H     0.19926   0.58316   0.30858   0.00000  Uiso   1.00
H213   H     0.17084   0.63673   0.01059   0.00000  Uiso   1.00
H214   H     0.17315   0.57975   0.04343   0.00000  Uiso   1.00
Cl215  Cl    0.43393   0.35276   0.07371   0.00000  Uiso   1.00
Cl216  Cl    0.06617   0.65135   0.24759   0.00000  Uiso   1.00
Cl217  Cl    0.03439   0.35382   0.07187   0.00000  Uiso   1.00
Cl218  Cl    0.46783   0.64712   0.26633   0.00000  Uiso   1.00
Cl219  Cl    0.27343   0.65159   0.07346   0.00000  Uiso   1.00
Cl220  Cl    0.22877   0.34885   0.26022   0.00000  Uiso   1.00
Cl221  Cl    0.18779   0.45409   0.30969   0.00000  Uiso   1.00
Cl222  Cl    0.31211   0.54599   0.02333   0.00000  Uiso   1.00
C223   C     0.75037   0.40065   0.15178   0.00000  Uiso   1.00
C224   C     0.75118   0.59956   0.18155   0.00000  Uiso   1.00
C225   C     0.51319   0.41029   0.11111   0.00000  Uiso   1.00
C226   C     0.98700   0.59078   0.22351   0.00000  Uiso   1.00
C227   C     0.75479   0.34631   0.14426   0.00000  Uiso   1.00
C228   C     0.74737   0.65407   0.18932   0.00000  Uiso   1.00
C229   C     0.66457   0.49965   0.16791   0.00000  Uiso   1.00
C230   C     0.83528   0.49994   0.16552   0.00000  Uiso   1.00
C231   C     0.91089   0.54562   0.19316   0.00000  Uiso   1.00
C232   C     0.58803   0.45145   0.15016   0.00000  Uiso   1.00
C233   C     0.88362   0.50136   0.16302   0.00000  Uiso   1.00
C234   C     0.61614   0.49786   0.17075   0.00000  Uiso   1.00
C235   C     0.90168   0.45990   0.12788   0.00000  Uiso   1.00
C236   C     0.59849   0.54252   0.19986   0.00000  Uiso   1.00
C237   C     0.94819   0.45720   0.13254   0.00000  Uiso   1.00
C238   C     0.55194   0.54530   0.19593   0.00000  Uiso   1.00
C239   C     0.97653   0.50153   0.16418   0.00000  Uiso   1.00
C240   C     0.52342   0.50062   0.16647   0.00000  Uiso   1.00
C241   C     0.95797   0.54649   0.19413   0.00000  Uiso   1.00
C242   C     0.54175   0.45416   0.14175   0.00000  Uiso   1.00
C243   C     0.96699   0.41151   0.10706   0.00000  Uiso   1.00
C244   C     0.53322   0.59108   0.22120   0.00000  Uiso   1.00
Cu245  Cu    0.75500   0.50579   0.22813   0.00000  Uiso   1.00
Cu246  Cu    0.74499   0.49421   0.10521   0.00000  Uiso   1.00
N247   N     0.73744   0.48547   0.01284   0.00000  Uiso   1.00
N248   N     0.76255   0.51453   0.32049   0.00000  Uiso   1.00
O249   O     0.75325   0.42871   0.20659   0.00000  Uiso   1.00
O250   O     0.74674   0.57129   0.12674   0.00000  Uiso   1.00
O251   O     0.74480   0.41892   0.10279   0.00000  Uiso   1.00
O252   O     0.75520   0.58108   0.23055   0.00000  Uiso   1.00
O253   O     0.68935   0.50488   0.21857   0.00000  Uiso   1.00
O254   O     0.81064   0.49512   0.11476   0.00000  Uiso   1.00
O255   O     0.68090   0.49510   0.11477   0.00000  Uiso   1.00
O256   O     0.81910   0.50490   0.21857   0.00000  Uiso   1.00
O257   O     0.89060   0.58898   0.21757   0.00000  Uiso   1.00
C258   C     0.88191   0.61558   0.17072   0.00000  Uiso   1.00
H259   H     0.85524   0.59344   0.13713   0.00000  Uiso   1.00
H260   H     0.91243   0.62249   0.14713   0.00000  Uiso   1.00
C261   C     0.86612   0.33406   0.19721   0.00000  Uiso   1.00
H262   H     0.89253   0.35902   0.22891   0.00000  Uiso   1.00
H263   H     0.85729   0.35400   0.16034   0.00000  Uiso   1.00
H264   H     0.83623   0.66092   0.22173   0.00000  Uiso   1.00
O265   O     0.60065   0.40601   0.16410   0.00000  Uiso   1.00
C266   C     0.63393   0.38514   0.12842   0.00000  Uiso   1.00
H267   H     0.66654   0.40606   0.14577   0.00000  Uiso   1.00
H268   H     0.62732   0.38547   0.07947   0.00000  Uiso   1.00
C269   C     0.63691   0.66350   0.13614   0.00000  Uiso   1.00
H270   H     0.66651   0.64885   0.11530   0.00000  Uiso   1.00
H271   H     0.64142   0.66302   0.18503   0.00000  Uiso   1.00
H272   H     0.60661   0.63780   0.11513   0.00000  Uiso   1.00
O273   O     0.87293   0.42300   0.08824   0.00000  Uiso   1.00
C274   C     0.87306   0.43464   0.02984   0.00000  Uiso   1.00
H275   H     0.90260   0.42088   0.00682   0.00000  Uiso   1.00
H276   H     0.87367   0.47678   0.03121   0.00000  Uiso   1.00
C277   C     0.83122   0.40745   0.32551   0.00000  Uiso   1.00
H278   H     0.83050   0.41644   0.27964   0.00000  Uiso   1.00
H279   H     0.83048   0.36515   0.32180   0.00000  Uiso   1.00
H280   H     0.80126   0.42056   0.01415   0.00000  Uiso   1.00
O281   O     0.62718   0.58017   0.23871   0.00000  Uiso   1.00
C282   C     0.62719   0.56940   0.29765   0.00000  Uiso   1.00
H283   H     0.62473   0.52721   0.29722   0.00000  Uiso   1.00
H284   H     0.59873   0.58551   0.32138   0.00000  Uiso   1.00
C285   C     0.67026   0.59403   0.00074   0.00000  Uiso   1.00
H286   H     0.69926   0.58316   0.30858   0.00000  Uiso   1.00
H287   H     0.67084   0.63673   0.01059   0.00000  Uiso   1.00
H288   H     0.67315   0.57975   0.04343   0.00000  Uiso   1.00
Cl289  Cl    0.93393   0.35276   0.07371   0.00000  Uiso   1.00
Cl290  Cl    0.56617   0.65135   0.24759   0.00000  Uiso   1.00
Cl291  Cl    0.53439   0.35382   0.07187   0.00000  Uiso   1.00
Cl292  Cl    0.96783   0.64712   0.26633   0.00000  Uiso   1.00
Cl293  Cl    0.77343   0.65159   0.07346   0.00000  Uiso   1.00
Cl294  Cl    0.72877   0.34885   0.26022   0.00000  Uiso   1.00
Cl295  Cl    0.68779   0.45409   0.30969   0.00000  Uiso   1.00
Cl296  Cl    0.81211   0.54599   0.02333   0.00000  Uiso   1.00
C297   C     0.25037   0.73398   0.15178   0.00000  Uiso   1.00
C298   C     0.25118   0.93289   0.18155   0.00000  Uiso   1.00
C299   C     0.01319   0.74363   0.11111   0.00000  Uiso   1.00
C300   C     0.48700   0.92411   0.22351   0.00000  Uiso   1.00
C301   C     0.25479   0.67964   0.14426   0.00000  Uiso   1.00
C302   C     0.24737   0.98741   0.18932   0.00000  Uiso   1.00
C303   C     0.16457   0.83299   0.16791   0.00000  Uiso   1.00
C304   C     0.33528   0.83327   0.16552   0.00000  Uiso   1.00
C305   C     0.41089   0.87895   0.19316   0.00000  Uiso   1.00
C306   C     0.08803   0.78478   0.15016   0.00000  Uiso   1.00
C307   C     0.38362   0.83469   0.16302   0.00000  Uiso   1.00
C308   C     0.11614   0.83120   0.17075   0.00000  Uiso   1.00
C309   C     0.40168   0.79323   0.12788   0.00000  Uiso   1.00
C310   C     0.09849   0.87585   0.19986   0.00000  Uiso   1.00
C311   C     0.44819   0.79053   0.13254   0.00000  Uiso   1.00
C312   C     0.05194   0.87863   0.19593   0.00000  Uiso   1.00
C313   C     0.47653   0.83487   0.16418   0.00000  Uiso   1.00
C314   C     0.02342   0.83396   0.16647   0.00000  Uiso   1.00
C315   C     0.45797   0.87983   0.19413   0.00000  Uiso   1.00
C316   C     0.04175   0.78750   0.14175   0.00000  Uiso   1.00
C317   C     0.46699   0.74484   0.10706   0.00000  Uiso   1.00
C318   C     0.03322   0.92441   0.22120   0.00000  Uiso   1.00
Cu319  Cu    0.25500   0.83913   0.22813   0.00000  Uiso   1.00
Cu320  Cu    0.24499   0.82754   0.10521   0.00000  Uiso   1.00
N321   N     0.23744   0.81881   0.01284   0.00000  Uiso   1.00
N322   N     0.26255   0.84786   0.32049   0.00000  Uiso   1.00
O323   O     0.25325   0.76204   0.20659   0.00000  Uiso   1.00
O324   O     0.24674   0.90462   0.12674   0.00000  Uiso   1.00
O325   O     0.24480   0.75226   0.10279   0.00000  Uiso   1.00
O326   O     0.25520   0.91441   0.23055   0.00000  Uiso   1.00
O327   O     0.18935   0.83821   0.21857   0.00000  Uiso   1.00
O328   O     0.31064   0.82845   0.11476   0.00000  Uiso   1.00
O329   O     0.18090   0.82843   0.11477   0.00000  Uiso   1.00
O330   O     0.31910   0.83824   0.21857   0.00000  Uiso   1.00
O331   O     0.39060   0.92232   0.21757   0.00000  Uiso   1.00
C332   C     0.38191   0.94892   0.17072   0.00000  Uiso   1.00
H333   H     0.35524   0.92677   0.13713   0.00000  Uiso   1.00
H334   H     0.41243   0.95582   0.14713   0.00000  Uiso   1.00
C335   C     0.36612   0.66740   0.19721   0.00000  Uiso   1.00
H336   H     0.39253   0.69235   0.22891   0.00000  Uiso   1.00
H337   H     0.35729   0.68734   0.16034   0.00000  Uiso   1.00
H338   H     0.33623   0.99425   0.22173   0.00000  Uiso   1.00
O339   O     0.10065   0.73934   0.16410   0.00000  Uiso   1.00
C340   C     0.13393   0.71848   0.12842   0.00000  Uiso   1.00
H341   H     0.16654   0.73939   0.14577   0.00000  Uiso   1.00
H342   H     0.12732   0.71880   0.07947   0.00000  Uiso   1.00
C343   C     0.13691   0.99683   0.13614   0.00000  Uiso   1.00
H344   H     0.16651   0.98218   0.11530   0.00000  Uiso   1.00
H345   H     0.14142   0.99635   0.18503   0.00000  Uiso   1.00
H346   H     0.10661   0.97114   0.11513   0.00000  Uiso   1.00
O347   O     0.37293   0.75633   0.08824   0.00000  Uiso   1.00
C348   C     0.37306   0.76797   0.02984   0.00000  Uiso   1.00
H349   H     0.40260   0.75422   0.00682   0.00000  Uiso   1.00
H350   H     0.37367   0.81011   0.03121   0.00000  Uiso   1.00
C351   C     0.33122   0.74078   0.32551   0.00000  Uiso   1.00
H352   H     0.33050   0.74977   0.27964   0.00000  Uiso   1.00
H353   H     0.33048   0.69848   0.32180   0.00000  Uiso   1.00
H354   H     0.30126   0.75390   0.01415   0.00000  Uiso   1.00
O355   O     0.12718   0.91350   0.23871   0.00000  Uiso   1.00
C356   C     0.12719   0.90273   0.29765   0.00000  Uiso   1.00
H357   H     0.12473   0.86054   0.29722   0.00000  Uiso   1.00
H358   H     0.09873   0.91885   0.32138   0.00000  Uiso   1.00
C359   C     0.17026   0.92736   0.00074   0.00000  Uiso   1.00
H360   H     0.19926   0.91649   0.30858   0.00000  Uiso   1.00
H361   H     0.17084   0.97007   0.01059   0.00000  Uiso   1.00
H362   H     0.17315   0.91308   0.04343   0.00000  Uiso   1.00
Cl363  Cl    0.43393   0.68609   0.07371   0.00000  Uiso   1.00
Cl364  Cl    0.06617   0.98469   0.24759   0.00000  Uiso   1.00
Cl365  Cl    0.03439   0.68715   0.07187   0.00000  Uiso   1.00
Cl366  Cl    0.46783   0.98046   0.26633   0.00000  Uiso   1.00
Cl367  Cl    0.27343   0.98493   0.07346   0.00000  Uiso   1.00
Cl368  Cl    0.22877   0.68218   0.26022   0.00000  Uiso   1.00
Cl369  Cl    0.18779   0.78743   0.30969   0.00000  Uiso   1.00
Cl370  Cl    0.31211   0.87933   0.02333   0.00000  Uiso   1.00
C371   C     0.75037   0.73398   0.15178   0.00000  Uiso   1.00
C372   C     0.75118   0.93289   0.18155   0.00000  Uiso   1.00
C373   C     0.51319   0.74363   0.11111   0.00000  Uiso   1.00
C374   C     0.98700   0.92411   0.22351   0.00000  Uiso   1.00
C375   C     0.75479   0.67964   0.14426   0.00000  Uiso   1.00
C376   C     0.74737   0.98741   0.18932   0.00000  Uiso   1.00
C377   C     0.66457   0.83299   0.16791   0.00000  Uiso   1.00
C378   C     0.83528   0.83327   0.16552   0.00000  Uiso   1.00
C379   C     0.91089   0.87895   0.19316   0.00000  Uiso   1.00
C380   C     0.58803   0.78478   0.15016   0.00000  Uiso   1.00
C381   C     0.88362   0.83469   0.16302   0.00000  Uiso   1.00
C382   C     0.61614   0.83120   0.17075   0.00000  Uiso   1.00
C383   C     0.90168   0.79323   0.12788   0.00000  Uiso   1.00
C384   C     0.59849   0.87585   0.19986   0.00000  Uiso   1.00
C385   C     0.94819   0.79053   0.13254   0.00000  Uiso   1.00
C386   C     0.55194   0.87863   0.19593   0.00000  Uiso   1.00
C387   C     0.97653   0.83487   0.16418   0.00000  Uiso   1.00
C388   C     0.52342   0.83396   0.16647   0.00000  Uiso   1.00
C389   C     0.95797   0.87983   0.19413   0.00000  Uiso   1.00
C390   C     0.54175   0.78750   0.14175   0.00000  Uiso   1.00
C391   C     0.96699   0.74484   0.10706   0.00000  Uiso   1.00
C392   C     0.53322   0.92441   0.22120   0.00000  Uiso   1.00
Cu393  Cu    0.75500   0.83913   0.22813   0.00000  Uiso   1.00
Cu394  Cu    0.74499   0.82754   0.10521   0.00000  Uiso   1.00
N395   N     0.73744   0.81881   0.01284   0.00000  Uiso   1.00
N396   N     0.76255   0.84786   0.32049   0.00000  Uiso   1.00
O397   O     0.75325   0.76204   0.20659   0.00000  Uiso   1.00
O398   O     0.74674   0.90462   0.12674   0.00000  Uiso   1.00
O399   O     0.74480   0.75226   0.10279   0.00000  Uiso   1.00
O400   O     0.75520   0.91441   0.23055   0.00000  Uiso   1.00
O401   O     0.68935   0.83821   0.21857   0.00000  Uiso   1.00
O402   O     0.81064   0.82845   0.11476   0.00000  Uiso   1.00
O403   O     0.68090   0.82843   0.11477   0.00000  Uiso   1.00
O404   O     0.81910   0.83824   0.21857   0.00000  Uiso   1.00
O405   O     0.89060   0.92232   0.21757   0.00000  Uiso   1.00
C406   C     0.88191   0.94892   0.17072   0.00000  Uiso   1.00
H407   H     0.85524   0.92677   0.13713   0.00000  Uiso   1.00
H408   H     0.91243   0.95582   0.14713   0.00000  Uiso   1.00
C409   C     0.86612   0.66740   0.19721   0.00000  Uiso   1.00
H410   H     0.89253   0.69235   0.22891   0.00000  Uiso   1.00
H411   H     0.85729   0.68734   0.16034   0.00000  Uiso   1.00
H412   H     0.83623   0.99425   0.22173   0.00000  Uiso   1.00
O413   O     0.60065   0.73934   0.16410   0.00000  Uiso   1.00
C414   C     0.63393   0.71848   0.12842   0.00000  Uiso   1.00
H415   H     0.66654   0.73939   0.14577   0.00000  Uiso   1.00
H416   H     0.62732   0.71880   0.07947   0.00000  Uiso   1.00
C417   C     0.63691   0.99683   0.13614   0.00000  Uiso   1.00
H418   H     0.66651   0.98218   0.11530   0.00000  Uiso   1.00
H419   H     0.64142   0.99635   0.18503   0.00000  Uiso   1.00
H420   H     0.60661   0.97114   0.11513   0.00000  Uiso   1.00
O421   O     0.87293   0.75633   0.08824   0.00000  Uiso   1.00
C422   C     0.87306   0.76797   0.02984   0.00000  Uiso   1.00
H423   H     0.90260   0.75422   0.00682   0.00000  Uiso   1.00
H424   H     0.87367   0.81011   0.03121   0.00000  Uiso   1.00
C425   C     0.83122   0.74078   0.32551   0.00000  Uiso   1.00
H426   H     0.83050   0.74977   0.27964   0.00000  Uiso   1.00
H427   H     0.83048   0.69848   0.32180   0.00000  Uiso   1.00
H428   H     0.80126   0.75390   0.01415   0.00000  Uiso   1.00
O429   O     0.62718   0.91350   0.23871   0.00000  Uiso   1.00
C430   C     0.62719   0.90273   0.29765   0.00000  Uiso   1.00
H431   H     0.62473   0.86054   0.29722   0.00000  Uiso   1.00
H432   H     0.59873   0.91885   0.32138   0.00000  Uiso   1.00
C433   C     0.67026   0.92736   0.00074   0.00000  Uiso   1.00
H434   H     0.69926   0.91649   0.30858   0.00000  Uiso   1.00
H435   H     0.67084   0.97007   0.01059   0.00000  Uiso   1.00
H436   H     0.67315   0.91308   0.04343   0.00000  Uiso   1.00
Cl437  Cl    0.93393   0.68609   0.07371   0.00000  Uiso   1.00
Cl438  Cl    0.56617   0.98469   0.24759   0.00000  Uiso   1.00
Cl439  Cl    0.53439   0.68715   0.07187   0.00000  Uiso   1.00
Cl440  Cl    0.96783   0.98046   0.26633   0.00000  Uiso   1.00
Cl441  Cl    0.77343   0.98493   0.07346   0.00000  Uiso   1.00
Cl442  Cl    0.72877   0.68218   0.26022   0.00000  Uiso   1.00
Cl443  Cl    0.68779   0.78743   0.30969   0.00000  Uiso   1.00
Cl444  Cl    0.81211   0.87933   0.02333   0.00000  Uiso   1.00
C445   C     0.25037   0.06731   0.48511   0.00000  Uiso   1.00
C446   C     0.25118   0.26623   0.51489   0.00000  Uiso   1.00
C447   C     0.01319   0.07696   0.44444   0.00000  Uiso   1.00
C448   C     0.48700   0.25745   0.55685   0.00000  Uiso   1.00
C449   C     0.25479   0.01297   0.47759   0.00000  Uiso   1.00
C450   C     0.24737   0.32074   0.52265   0.00000  Uiso   1.00
C451   C     0.16457   0.16632   0.50124   0.00000  Uiso   1.00
C452   C     0.33528   0.16660   0.49885   0.00000  Uiso   1.00
C453   C     0.41089   0.21228   0.52649   0.00000  Uiso   1.00
C454   C     0.08803   0.11812   0.48350   0.00000  Uiso   1.00
C455   C     0.38362   0.16802   0.49635   0.00000  Uiso   1.00
C456   C     0.11614   0.16453   0.50409   0.00000  Uiso   1.00
C457   C     0.40168   0.12656   0.46121   0.00000  Uiso   1.00
C458   C     0.09849   0.20919   0.53319   0.00000  Uiso   1.00
C459   C     0.44819   0.12387   0.46587   0.00000  Uiso   1.00
C460   C     0.05194   0.21197   0.52926   0.00000  Uiso   1.00
C461   C     0.47653   0.16820   0.49751   0.00000  Uiso   1.00
C462   C     0.02342   0.16729   0.49981   0.00000  Uiso   1.00
C463   C     0.45797   0.21316   0.52746   0.00000  Uiso   1.00
C464   C     0.04175   0.12083   0.47509   0.00000  Uiso   1.00
C465   C     0.46699   0.07817   0.44039   0.00000  Uiso   1.00
C466   C     0.03322   0.25775   0.55453   0.00000  Uiso   1.00
Cu467  Cu    0.25500   0.17246   0.56146   0.00000  Uiso   1.00
Cu468  Cu    0.24499   0.16087   0.43854   0.00000  Uiso   1.00
N469   N     0.23744   0.15214   0.34617   0.00000  Uiso   1.00
N470   N     0.26255   0.18119   0.65383   0.00000  Uiso   1.00
O471   O     0.25325   0.09538   0.53992   0.00000  Uiso   1.00
O472   O     0.24674   0.23796   0.46008   0.00000  Uiso   1.00
O473   O     0.24480   0.08559   0.43612   0.00000  Uiso   1.00
O474   O     0.25520   0.24774   0.56388   0.00000  Uiso   1.00
O475   O     0.18935   0.17155   0.55191   0.00000  Uiso   1.00
O476   O     0.31064   0.16179   0.44809   0.00000  Uiso   1.00
O477   O     0.18090   0.16176   0.44810   0.00000  Uiso   1.00
O478   O     0.31910   0.17157   0.55190   0.00000  Uiso   1.00
O479   O     0.39060   0.25565   0.55091   0.00000  Uiso   1.00
C480   C     0.38191   0.28225   0.50406   0.00000  Uiso   1.00
H481   H     0.35524   0.26011   0.47046   0.00000  Uiso   1.00
H482   H     0.41243   0.28915   0.48047   0.00000  Uiso   1.00
C483   C     0.36612   0.00073   0.53055   0.00000  Uiso   1.00
H484   H     0.39253   0.02568   0.56225   0.00000  Uiso   1.00
H485   H     0.35729   0.02067   0.49367   0.00000  Uiso   1.00
H486   H     0.33623   0.32758   0.55506   0.00000  Uiso   1.00
O487   O     0.10065   0.07267   0.49743   0.00000  Uiso   1.00
C488   C     0.13393   0.05181   0.46175   0.00000  Uiso   1.00
H489   H     0.16654   0.07272   0.47911   0.00000  Uiso   1.00
H490   H     0.12732   0.05214   0.41280   0.00000  Uiso   1.00
C491   C     0.13691   0.33017   0.46947   0.00000  Uiso   1.00
H492   H     0.16651   0.31552   0.44863   0.00000  Uiso   1.00
H493   H     0.14142   0.32968   0.51836   0.00000  Uiso   1.00
H494   H     0.10661   0.30447   0.44846   0.00000  Uiso   1.00
O495   O     0.37293   0.08966   0.42157   0.00000  Uiso   1.00
C496   C     0.37306   0.10131   0.36318   0.00000  Uiso   1.00
H497   H     0.40260   0.08755   0.34015   0.00000  Uiso   1.00
H498   H     0.37367   0.14344   0.36455   0.00000  Uiso   1.00
C499   C     0.33122   0.07411   0.65884   0.00000  Uiso   1.00
H500   H     0.33050   0.08310   0.61298   0.00000  Uiso   1.00
H501   H     0.33048   0.03181   0.65514   0.00000  Uiso   1.00
H502   H     0.30126   0.08723   0.34748   0.00000  Uiso   1.00
O503   O     0.12718   0.24683   0.57204   0.00000  Uiso   1.00
C504   C     0.12719   0.23607   0.63098   0.00000  Uiso   1.00
H505   H     0.12473   0.19388   0.63056   0.00000  Uiso   1.00
H506   H     0.09873   0.25218   0.65472   0.00000  Uiso   1.00
C507   C     0.17026   0.26070   0.33408   0.00000  Uiso   1.00
H508   H     0.19926   0.24983   0.64191   0.00000  Uiso   1.00
H509   H     0.17084   0.30340   0.34392   0.00000  Uiso   1.00
H510   H     0.17315   0.24641   0.37677   0.00000  Uiso   1.00
Cl511  Cl    0.43393   0.01942   0.40704   0.00000  Uiso   1.00
Cl512  Cl    0.06617   0.31802   0.58092   0.00000  Uiso   1.00
Cl513  Cl    0.03439   0.02048   0.40520   0.00000  Uiso   1.00
Cl514  Cl    0.46783   0.31379   0.59966   0.00000  Uiso   1.00
Cl515  Cl    0.27343   0.31826   0.40680   0.00000  Uiso   1.00
Cl516  Cl    0.22877   0.01551   0.59356   0.00000  Uiso   1.00
Cl517  Cl    0.18779   0.12076   0.64302   0.00000  Uiso   1.00
Cl518  Cl    0.31211   0.21266   0.35666   0.00000  Uiso   1.00
C519   C     0.75037   0.06731   0.48511   0.00000  Uiso   1.00
C520   C     0.75118   0.26623   0.51489   0.00000  Uiso   1.00
C521   C     0.51319   0.07696   0.44444   0.00000  Uiso   1.00
C522   C     0.98700   0.25745   0.55685   0.00000  Uiso   1.00
C523   C     0.75479   0.01297   0.47759   0.00000  Uiso   1.00
C524   C     0.74737   0.32074   0.52265   0.00000  Uiso   1.00
C525   C     0.66457   0.16632   0.50124   0.00000  Uiso   1.00
C526   C     0.83528   0.16660   0.49885   0.00000  Uiso   1.00
C527   C     0.91089   0.21228   0.52649   0.00000  Uiso   1.00
C528   C     0.58803   0.11812   0.48350   0.00000  Uiso   1.00
C529   C     0.88362   0.16802   0.49635   0.00000  Uiso   1.00
C530   C     0.61614   0.16453   0.50409   0.00000  Uiso   1.00
C531   C     0.90168   0.12656   0.46121   0.00000  Uiso   1.00
C532   C     0.59849   0.20919   0.53319   0.00000  Uiso   1.00
C533   C     0.94819   0.12387   0.46587   0.00000  Uiso   1.00
C534   C     0.55194   0.21197   0.52926   0.00000  Uiso   1.00
C535   C     0.97653   0.16820   0.49751   0.00000  Uiso   1.00
C536   C     0.52342   0.16729   0.49981   0.00000  Uiso   1.00
C537   C     0.95797   0.21316   0.52746   0.00000  Uiso   1.00
C538   C     0.54175   0.12083   0.47509   0.00000  Uiso   1.00
C539   C     0.96699   0.07817   0.44039   0.00000  Uiso   1.00
C540   C     0.53322   0.25775   0.55453   0.00000  Uiso   1.00
Cu541  Cu    0.75500   0.17246   0.56146   0.00000  Uiso   1.00
Cu542  Cu    0.74499   0.16087   0.43854   0.00000  Uiso   1.00
N543   N     0.73744   0.15214   0.34617   0.00000  Uiso   1.00
N544   N     0.76255   0.18119   0.65383   0.00000  Uiso   1.00
O545   O     0.75325   0.09538   0.53992   0.00000  Uiso   1.00
O546   O     0.74674   0.23796   0.46008   0.00000  Uiso   1.00
O547   O     0.74480   0.08559   0.43612   0.00000  Uiso   1.00
O548   O     0.75520   0.24774   0.56388   0.00000  Uiso   1.00
O549   O     0.68935   0.17155   0.55191   0.00000  Uiso   1.00
O550   O     0.81064   0.16179   0.44809   0.00000  Uiso   1.00
O551   O     0.68090   0.16176   0.44810   0.00000  Uiso   1.00
O552   O     0.81910   0.17157   0.55190   0.00000  Uiso   1.00
O553   O     0.89060   0.25565   0.55091   0.00000  Uiso   1.00
C554   C     0.88191   0.28225   0.50406   0.00000  Uiso   1.00
H555   H     0.85524   0.26011   0.47046   0.00000  Uiso   1.00
H556   H     0.91243   0.28915   0.48047   0.00000  Uiso   1.00
C557   C     0.86612   0.00073   0.53055   0.00000  Uiso   1.00
H558   H     0.89253   0.02568   0.56225   0.00000  Uiso   1.00
H559   H     0.85729   0.02067   0.49367   0.00000  Uiso   1.00
H560   H     0.83623   0.32758   0.55506   0.00000  Uiso   1.00
O561   O     0.60065   0.07267   0.49743   0.00000  Uiso   1.00
C562   C     0.63393   0.05181   0.46175   0.00000  Uiso   1.00
H563   H     0.66654   0.07272   0.47911   0.00000  Uiso   1.00
H564   H     0.62732   0.05214   0.41280   0.00000  Uiso   1.00
C565   C     0.63691   0.33017   0.46947   0.00000  Uiso   1.00
H566   H     0.66651   0.31552   0.44863   0.00000  Uiso   1.00
H567   H     0.64142   0.32968   0.51836   0.00000  Uiso   1.00
H568   H     0.60661   0.30447   0.44846   0.00000  Uiso   1.00
O569   O     0.87293   0.08966   0.42157   0.00000  Uiso   1.00
C570   C     0.87306   0.10131   0.36318   0.00000  Uiso   1.00
H571   H     0.90260   0.08755   0.34015   0.00000  Uiso   1.00
H572   H     0.87367   0.14344   0.36455   0.00000  Uiso   1.00
C573   C     0.83122   0.07411   0.65884   0.00000  Uiso   1.00
H574   H     0.83050   0.08310   0.61298   0.00000  Uiso   1.00
H575   H     0.83048   0.03181   0.65514   0.00000  Uiso   1.00
H576   H     0.80126   0.08723   0.34748   0.00000  Uiso   1.00
O577   O     0.62718   0.24683   0.57204   0.00000  Uiso   1.00
C578   C     0.62719   0.23607   0.63098   0.00000  Uiso   1.00
H579   H     0.62473   0.19388   0.63056   0.00000  Uiso   1.00
H580   H     0.59873   0.25218   0.65472   0.00000  Uiso   1.00
C581   C     0.67026   0.26070   0.33408   0.00000  Uiso   1.00
H582   H     0.69926   0.24983   0.64191   0.00000  Uiso   1.00
H583   H     0.67084   0.30340   0.34392   0.00000  Uiso   1.00
H584   H     0.67315   0.24641   0.37677   0.00000  Uiso   1.00
Cl585  Cl    0.93393   0.01942   0.40704   0.00000  Uiso   1.00
Cl586  Cl    0.56617   0.31802   0.58092   0.00000  Uiso   1.00
Cl587  Cl    0.53439   0.02048   0.40520   0.00000  Uiso   1.00
Cl588  Cl    0.96783   0.31379   0.59966   0.00000  Uiso   1.00
Cl589  Cl    0.77343   0.31826   0.40680   0.00000  Uiso   1.00
Cl590  Cl    0.72877   0.01551   0.59356   0.00000  Uiso   1.00
Cl591  Cl    0.68779   0.12076   0.64302   0.00000  Uiso   1.00
Cl592  Cl    0.81211   0.21266   0.35666   0.00000  Uiso   1.00
C593   C     0.25037   0.40065   0.48511   0.00000  Uiso   1.00
C594   C     0.25118   0.59956   0.51489   0.00000  Uiso   1.00
C595   C     0.01319   0.41029   0.44444   0.00000  Uiso   1.00
C596   C     0.48700   0.59078   0.55685   0.00000  Uiso   1.00
C597   C     0.25479   0.34631   0.47759   0.00000  Uiso   1.00
C598   C     0.24737   0.65407   0.52265   0.00000  Uiso   1.00
C599   C     0.16457   0.49965   0.50124   0.00000  Uiso   1.00
C600   C     0.33528   0.49994   0.49885   0.00000  Uiso   1.00
C601   C     0.41089   0.54562   0.52649   0.00000  Uiso   1.00
C602   C     0.08803   0.45145   0.48350   0.00000  Uiso   1.00
C603   C     0.38362   0.50136   0.49635   0.00000  Uiso   1.00
C604   C     0.11614   0.49786   0.50409   0.00000  Uiso   1.00
C605   C     0.40168   0.45990   0.46121   0.00000  Uiso   1.00
C606   C     0.09849   0.54252   0.53319   0.00000  Uiso   1.00
C607   C     0.44819   0.45720   0.46587   0.00000  Uiso   1.00
C608   C     0.05194   0.54530   0.52926   0.00000  Uiso   1.00
C609   C     0.47653   0.50153   0.49751   0.00000  Uiso   1.00
C610   C     0.02342   0.50062   0.49981   0.00000  Uiso   1.00
C611   C     0.45797   0.54649   0.52746   0.00000  Uiso   1.00
C612   C     0.04175   0.45416   0.47509   0.00000  Uiso   1.00
C613   C     0.46699   0.41151   0.44039   0.00000  Uiso   1.00
C614   C     0.03322   0.59108   0.55453   0.00000  Uiso   1.00
Cu615  Cu    0.25500   0.50579   0.56146   0.00000  Uiso   1.00
Cu616  Cu    0.24499   0.49421   0.43854   0.00000  Uiso   1.00
N617   N     0.23744   0.48547   0.34617   0.00000  Uiso   1.00
N618   N     0.26255   0.51453   0.65383   0.00000  Uiso   1.00
O619   O     0.25325   0.42871   0.53992   0.00000  Uiso   1.00
O620   O     0.24674   0.57129   0.46008   0.00000  Uiso   1.00
O621   O     0.24480   0.41892   0.43612   0.00000  Uiso   1.00
O622   O     0.25520   0.58108   0.56388   0.00000  Uiso   1.00
O623   O     0.18935   0.50488   0.55191   0.00000  Uiso   1.00
O624   O     0.31064   0.49512   0.44809   0.00000  Uiso   1.00
O625   O     0.18090   0.49510   0.44810   0.00000  Uiso   1.00
O626   O     0.31910   0.50490   0.55190   0.00000  Uiso   1.00
O627   O     0.39060   0.58898   0.55091   0.00000  Uiso   1.00
C628   C     0.38191   0.61558   0.50406   0.00000  Uiso   1.00
H629   H     0.35524   0.59344   0.47046   0.00000  Uiso   1.00
H630   H     0.41243   0.62249   0.48047   0.00000  Uiso   1.00
C631   C     0.36612   0.33406   0.53055   0.00000  Uiso   1.00
H632   H     0.39253   0.35902   0.56225   0.00000  Uiso   1.00
H633   H     0.35729   0.35400   0.49367   0.00000  Uiso   1.00
H634   H     0.33623   0.66092   0.55506   0.00000  Uiso   1.00
O635   O     0.10065   0.40601   0.49743   0.00000  Uiso   1.00
C636   C     0.13393   0.38514   0.46175   0.00000  Uiso   1.00
H637   H     0.16654   0.40606   0.47911   0.00000  Uiso   1.00
H638   H     0.12732   0.38547   0.41280   0.00000  Uiso   1.00
C639   C     0.13691   0.66350   0.46947   0.00000  Uiso   1.00
H640   H     0.16651   0.64885   0.44863   0.00000  Uiso   1.00
H641   H     0.14142   0.66302   0.51836   0.00000  Uiso   1.00
H642   H     0.10661   0.63780   0.44846   0.00000  Uiso   1.00
O643   O     0.37293   0.42300   0.42157   0.00000  Uiso   1.00
C644   C     0.37306   0.43464   0.36318   0.00000  Uiso   1.00
H645   H     0.40260   0.42088   0.34015   0.00000  Uiso   1.00
H646   H     0.37367   0.47678   0.36455   0.00000  Uiso   1.00
C647   C     0.33122   0.40745   0.65884   0.00000  Uiso   1.00
H648   H     0.33050   0.41644   0.61298   0.00000  Uiso   1.00
H649   H     0.33048   0.36515   0.65514   0.00000  Uiso   1.00
H650   H     0.30126   0.42056   0.34748   0.00000  Uiso   1.00
O651   O     0.12718   0.58017   0.57204   0.00000  Uiso   1.00
C652   C     0.12719   0.56940   0.63098   0.00000  Uiso   1.00
H653   H     0.12473   0.52721   0.63056   0.00000  Uiso   1.00
H654   H     0.09873   0.58551   0.65472   0.00000  Uiso   1.00
C655   C     0.17026   0.59403   0.33408   0.00000  Uiso   1.00
H656   H     0.19926   0.58316   0.64191   0.00000  Uiso   1.00
H657   H     0.17084   0.63673   0.34392   0.00000  Uiso   1.00
H658   H     0.17315   0.57975   0.37677   0.00000  Uiso   1.00
Cl659  Cl    0.43393   0.35276   0.40704   0.00000  Uiso   1.00
Cl660  Cl    0.06617   0.65135   0.58092   0.00000  Uiso   1.00
Cl661  Cl    0.03439   0.35382   0.40520   0.00000  Uiso   1.00
Cl662  Cl    0.46783   0.64712   0.59966   0.00000  Uiso   1.00
Cl663  Cl    0.27343   0.65159   0.40680   0.00000  Uiso   1.00
Cl664  Cl    0.22877   0.34885   0.59356   0.00000  Uiso   1.00
Cl665  Cl    0.18779   0.45409   0.64302   0.00000  Uiso   1.00
Cl666  Cl    0.31211   0.54599   0.35666   0.00000  Uiso   1.00
C667   C     0.75037   0.40065   0.48511   0.00000  Uiso   1.00
C668   C     0.75118   0.59956   0.51489   0.00000  Uiso   1.00
C669   C     0.51319   0.41029   0.44444   0.00000  Uiso   1.00
C670   C     0.98700   0.59078   0.55685   0.00000  Uiso   1.00
C671   C     0.75479   0.34631   0.47759   0.00000  Uiso   1.00
C672   C     0.74737   0.65407   0.52265   0.00000  Uiso   1.00
C673   C     0.66457   0.49965   0.50124   0.00000  Uiso   1.00
C674   C     0.83528   0.49994   0.49885   0.00000  Uiso   1.00
C675   C     0.91089   0.54562   0.52649   0.00000  Uiso   1.00
C676   C     0.58803   0.45145   0.48350   0.00000  Uiso   1.00
C677   C     0.88362   0.50136   0.49635   0.00000  Uiso   1.00
C678   C     0.61614   0.49786   0.50409   0.00000  Uiso   1.00
C679   C     0.90168   0.45990   0.46121   0.00000  Uiso   1.00
C680   C     0.59849   0.54252   0.53319   0.00000  Uiso   1.00
C681   C     0.94819   0.45720   0.46587   0.00000  Uiso   1.00
C682   C     0.55194   0.54530   0.52926   0.00000  Uiso   1.00
C683   C     0.97653   0.50153   0.49751   0.00000  Uiso   1.00
C684   C     0.52342   0.50062   0.49981   0.00000  Uiso   1.00
C685   C     0.95797   0.54649   0.52746   0.00000  Uiso   1.00
C686   C     0.54175   0.45416   0.47509   0.00000  Uiso   1.00
C687   C     0.96699   0.41151   0.44039   0.00000  Uiso   1.00
C688   C     0.53322   0.59108   0.55453   0.00000  Uiso   1.00
Cu689  Cu    0.75500   0.50579   0.56146   0.00000  Uiso   1.00
Cu690  Cu    0.74499   0.49421   0.43854   0.00000  Uiso   1.00
N691   N     0.73744   0.48547   0.34617   0.00000  Uiso   1.00
N692   N     0.76255   0.51453   0.65383   0.00000  Uiso   1.00
O693   O     0.75325   0.42871   0.53992   0.00000  Uiso   1.00
O694   O     0.74674   0.57129   0.46008   0.00000  Uiso   1.00
O695   O     0.74480   0.41892   0.43612   0.00000  Uiso   1.00
O696   O     0.75520   0.58108   0.56388   0.00000  Uiso   1.00
O697   O     0.68935   0.50488   0.55191   0.00000  Uiso   1.00
O698   O     0.81064   0.49512   0.44809   0.00000  Uiso   1.00
O699   O     0.68090   0.49510   0.44810   0.00000  Uiso   1.00
O700   O     0.81910   0.50490   0.55190   0.00000  Uiso   1.00
O701   O     0.89060   0.58898   0.55091   0.00000  Uiso   1.00
C702   C     0.88191   0.61558   0.50406   0.00000  Uiso   1.00
H703   H     0.85524   0.59344   0.47046   0.00000  Uiso   1.00
H704   H     0.91243   0.62249   0.48047   0.00000  Uiso   1.00
C705   C     0.86612   0.33406   0.53055   0.00000  Uiso   1.00
H706   H     0.89253   0.35902   0.56225   0.00000  Uiso   1.00
H707   H     0.85729   0.35400   0.49367   0.00000  Uiso   1.00
H708   H     0.83623   0.66092   0.55506   0.00000  Uiso   1.00
O709   O     0.60065   0.40601   0.49743   0.00000  Uiso   1.00
C710   C     0.63393   0.38514   0.46175   0.00000  Uiso   1.00
H711   H     0.66654   0.40606   0.47911   0.00000  Uiso   1.00
H712   H     0.62732   0.38547   0.41280   0.00000  Uiso   1.00
C713   C     0.63691   0.66350   0.46947   0.00000  Uiso   1.00
H714   H     0.66651   0.64885   0.44863   0.00000  Uiso   1.00
H715   H     0.64142   0.66302   0.51836   0.00000  Uiso   1.00
H716   H     0.60661   0.63780   0.44846   0.00000  Uiso   1.00
O717   O     0.87293   0.42300   0.42157   0.00000  Uiso   1.00
C718   C     0.87306   0.43464   0.36318   0.00000  Uiso   1.00
H719   H     0.90260   0.42088   0.34015   0.00000  Uiso   1.00
H720   H     0.87367   0.47678   0.36455   0.00000  Uiso   1.00
C721   C     0.83122   0.40745   0.65884   0.00000  Uiso   1.00
H722   H     0.83050   0.41644   0.61298   0.00000  Uiso   1.00
H723   H     0.83048   0.36515   0.65514   0.00000  Uiso   1.00
H724   H     0.80126   0.42056   0.34748   0.00000  Uiso   1.00
O725   O     0.62718   0.58017   0.57204   0.00000  Uiso   1.00
C726   C     0.62719   0.56940   0.63098   0.00000  Uiso   1.00
H727   H     0.62473   0.52721   0.63056   0.00000  Uiso   1.00
H728   H     0.59873   0.58551   0.65472   0.00000  Uiso   1.00
C729   C     0.67026   0.59403   0.33408   0.00000  Uiso   1.00
H730   H     0.69926   0.58316   0.64191   0.00000  Uiso   1.00
H731   H     0.67084   0.63673   0.34392   0.00000  Uiso   1.00
H732   H     0.67315   0.57975   0.37677   0.00000  Uiso   1.00
Cl733  Cl    0.93393   0.35276   0.40704   0.00000  Uiso   1.00
Cl734  Cl    0.56617   0.65135   0.58092   0.00000  Uiso   1.00
Cl735  Cl    0.53439   0.35382   0.40520   0.00000  Uiso   1.00
Cl736  Cl    0.96783   0.64712   0.59966   0.00000  Uiso   1.00
Cl737  Cl    0.77343   0.65159   0.40680   0.00000  Uiso   1.00
Cl738  Cl    0.72877   0.34885   0.59356   0.00000  Uiso   1.00
Cl739  Cl    0.68779   0.45409   0.64302   0.00000  Uiso   1.00
Cl740  Cl    0.81211   0.54599   0.35666   0.00000  Uiso   1.00
C741   C     0.25037   0.73398   0.48511   0.00000  Uiso   1.00
C742   C     0.25118   0.93289   0.51489   0.00000  Uiso   1.00
C743   C     0.01319   0.74363   0.44444   0.00000  Uiso   1.00
C744   C     0.48700   0.92411   0.55685   0.00000  Uiso   1.00
C745   C     0.25479   0.67964   0.47759   0.00000  Uiso   1.00
C746   C     0.24737   0.98741   0.52265   0.00000  Uiso   1.00
C747   C     0.16457   0.83299   0.50124   0.00000  Uiso   1.00
C748   C     0.33528   0.83327   0.49885   0.00000  Uiso   1.00
C749   C     0.41089   0.87895   0.52649   0.00000  Uiso   1.00
C750   C     0.08803   0.78478   0.48350   0.00000  Uiso   1.00
C751   C     0.38362   0.83469   0.49635   0.00000  Uiso   1.00
C752   C     0.11614   0.83120   0.50409   0.00000  Uiso   1.00
C753   C     0.40168   0.79323   0.46121   0.00000  Uiso   1.00
C754   C     0.09849   0.87585   0.53319   0.00000  Uiso   1.00
C755   C     0.44819   0.79053   0.46587   0.00000  Uiso   1.00
C756   C     0.05194   0.87863   0.52926   0.00000  Uiso   1.00
C757   C     0.47653   0.83487   0.49751   0.00000  Uiso   1.00
C758   C     0.02342   0.83396   0.49981   0.00000  Uiso   1.00
C759   C     0.45797   0.87983   0.52746   0.00000  Uiso   1.00
C760   C     0.04175   0.78750   0.47509   0.00000  Uiso   1.00
C761   C     0.46699   0.74484   0.44039   0.00000  Uiso   1.00
C762   C     0.03322   0.92441   0.55453   0.00000  Uiso   1.00
Cu763  Cu    0.25500   0.83913   0.56146   0.00000  Uiso   1.00
Cu764  Cu    0.24499   0.82754   0.43854   0.00000  Uiso   1.00
N765   N     0.23744   0.81881   0.34617   0.00000  Uiso   1.00
N766   N     0.26255   0.84786   0.65383   0.00000  Uiso   1.00
O767   O     0.25325   0.76204   0.53992   0.00000  Uiso   1.00
O768   O     0.24674   0.90462   0.46008   0.00000  Uiso   1.00
O769   O     0.24480   0.75226   0.43612   0.00000  Uiso   1.00
O770   O     0.25520   0.91441   0.56388   0.00000  Uiso   1.00
O771   O     0.18935   0.83821   0.55191   0.00000  Uiso   1.00
O772   O     0.31064   0.82845   0.44809   0.00000  Uiso   1.00
O773   O     0.18090   0.82843   0.44810   0.00000  Uiso   1.00
O774   O     0.31910   0.83824   0.55190   0.00000  Uiso   1.00
O775   O     0.39060   0.92232   0.55091   0.00000  Uiso   1.00
C776   C     0.38191   0.94892   0.50406   0.00000  Uiso   1.00
H777   H     0.35524   0.92677   0.47046   0.00000  Uiso   1.00
H778   H     0.41243   0.95582   0.48047   0.00000  Uiso   1.00
C779   C     0.36612   0.66740   0.53055   0.00000  Uiso   1.00
H780   H     0.39253   0.69235   0.56225   0.00000  Uiso   1.00
H781   H     0.35729   0.68734   0.49367   0.00000  Uiso   1.00
H782   H     0.33623   0.99425   0.55506   0.00000  Uiso   1.00
O783   O     0.10065   0.73934   0.49743   0.00000  Uiso   1.00
C784   C     0.13393   0.71848   0.46175   0.00000  Uiso   1.00
H785   H     0.16654   0.73939   0.47911   0.00000  Uiso   1.00
H786   H     0.12732   0.71880   0.41280   0.00000  Uiso   1.00
C787   C     0.13691   0.99683   0.46947   0.00000  Uiso   1.00
H788   H     0.16651   0.98218   0.44863   0.00000  Uiso   1.00
H789   H     0.14142   0.99635   0.51836   0.00000  Uiso   1.00
H790   H     0.10661   0.97114   0.44846   0.00000  Uiso   1.00
O791   O     0.37293   0.75633   0.42157   0.00000  Uiso   1.00
C792   C     0.37306   0.76797   0.36318   0.00000  Uiso   1.00
H793   H     0.40260   0.75422   0.34015   0.00000  Uiso   1.00
H794   H     0.37367   0.81011   0.36455   0.00000  Uiso   1.00
C795   C     0.33122   0.74078   0.65884   0.00000  Uiso   1.00
H796   H     0.33050   0.74977   0.61298   0.00000  Uiso   1.00
H797   H     0.33048   0.69848   0.65514   0.00000  Uiso   1.00
H798   H     0.30126   0.75390   0.34748   0.00000  Uiso   1.00
O799   O     0.12718   0.91350   0.57204   0.00000  Uiso   1.00
C800   C     0.12719   0.90273   0.63098   0.00000  Uiso   1.00
H801   H     0.12473   0.86054   0.63056   0.00000  Uiso   1.00
H802   H     0.09873   0.91885   0.65472   0.00000  Uiso   1.00
C803   C     0.17026   0.92736   0.33408   0.00000  Uiso   1.00
H804   H     0.19926   0.91649   0.64191   0.00000  Uiso   1.00
H805   H     0.17084   0.97007   0.34392   0.00000  Uiso   1.00
H806   H     0.17315   0.91308   0.37677   0.00000  Uiso   1.00
Cl807  Cl    0.43393   0.68609   0.40704   0.00000  Uiso   1.00
Cl808  Cl    0.06617   0.98469   0.58092   0.00000  Uiso   1.00
Cl809  Cl    0.03439   0.68715   0.40520   0.00000  Uiso   1.00
Cl810  Cl    0.46783   0.98046   0.59966   0.00000  Uiso   1.00
Cl811  Cl    0.27343   0.98493   0.40680   0.00000  Uiso   1.00
Cl812  Cl    0.22877   0.68218   0.59356   0.00000  Uiso   1.00
Cl813  Cl    0.18779   0.78743   0.64302   0.00000  Uiso   1.00
Cl814  Cl    0.31211   0.87933   0.35666   0.00000  Uiso   1.00
C815   C     0.75037   0.73398   0.48511   0.00000  Uiso   1.00
C816   C     0.75118   0.93289   0.51489   0.00000  Uiso   1.00
C817   C     0.51319   0.74363   0.44444   0.00000  Uiso   1.00
C818   C     0.98700   0.92411   0.55685   0.00000  Uiso   1.00
C819   C     0.75479   0.67964   0.47759   0.00000  Uiso   1.00
C820   C     0.74737   0.98741   0.52265   0.00000  Uiso   1.00
C821   C     0.66457   0.83299   0.50124   0.00000  Uiso   1.00
C822   C     0.83528   0.83327   0.49885   0.00000  Uiso   1.00
C823   C     0.91089   0.87895   0.52649   0.00000  Uiso   1.00
C824   C     0.58803   0.78478   0.48350   0.00000  Uiso   1.00
C825   C     0.88362   0.83469   0.49635   0.00000  Uiso   1.00
C826   C     0.61614   0.83120   0.50409   0.00000  Uiso   1.00
C827   C     0.90168   0.79323   0.46121   0.00000  Uiso   1.00
C828   C     0.59849   0.87585   0.53319   0.00000  Uiso   1.00
C829   C     0.94819   0.79053   0.46587   0.00000  Uiso   1.00
C830   C     0.55194   0.87863   0.52926   0.00000  Uiso   1.00
C831   C     0.97653   0.83487   0.49751   0.00000  Uiso   1.00
C832   C     0.52342   0.83396   0.49981   0.00000  Uiso   1.00
C833   C     0.95797   0.87983   0.52746   0.00000  Uiso   1.00
C834   C     0.54175   0.78750   0.47509   0.00000  Uiso   1.00
C835   C     0.96699   0.74484   0.44039   0.00000  Uiso   1.00
C836   C     0.53322   0.92441   0.55453   0.00000  Uiso   1.00
Cu837  Cu    0.75500   0.83913   0.56146   0.00000  Uiso   1.00
Cu838  Cu    0.74499   0.82754   0.43854   0.00000  Uiso   1.00
N839   N     0.73744   0.81881   0.34617   0.00000  Uiso   1.00
N840   N     0.76255   0.84786   0.65383   0.00000  Uiso   1.00
O841   O     0.75325   0.76204   0.53992   0.00000  Uiso   1.00
O842   O     0.74674   0.90462   0.46008   0.00000  Uiso   1.00
O843   O     0.74480   0.75226   0.43612   0.00000  Uiso   1.00
O844   O     0.75520   0.91441   0.56388   0.00000  Uiso   1.00
O845   O     0.68935   0.83821   0.55191   0.00000  Uiso   1.00
O846   O     0.81064   0.82845   0.44809   0.00000  Uiso   1.00
O847   O     0.68090   0.82843   0.44810   0.00000  Uiso   1.00
O848   O     0.81910   0.83824   0.55190   0.00000  Uiso   1.00
O849   O     0.89060   0.92232   0.55091   0.00000  Uiso   1.00
C850   C     0.88191   0.94892   0.50406   0.00000  Uiso   1.00
H851   H     0.85524   0.92677   0.47046   0.00000  Uiso   1.00
H852   H     0.91243   0.95582   0.48047   0.00000  Uiso   1.00
C853   C     0.86612   0.66740   0.53055   0.00000  Uiso   1.00
H854   H     0.89253   0.69235   0.56225   0.00000  Uiso   1.00
H855   H     0.85729   0.68734   0.49367   0.00000  Uiso   1.00
H856   H     0.83623   0.99425   0.55506   0.00000  Uiso   1.00
O857   O     0.60065   0.73934   0.49743   0.00000  Uiso   1.00
C858   C     0.63393   0.71848   0.46175   0.00000  Uiso   1.00
H859   H     0.66654   0.73939   0.47911   0.00000  Uiso   1.00
H860   H     0.62732   0.71880   0.41280   0.00000  Uiso   1.00
C861   C     0.63691   0.99683   0.46947   0.00000  Uiso   1.00
H862   H     0.66651   0.98218   0.44863   0.00000  Uiso   1.00
H863   H     0.64142   0.99635   0.51836   0.00000  Uiso   1.00
H864   H     0.60661   0.97114   0.44846   0.00000  Uiso   1.00
O865   O     0.87293   0.75633   0.42157   0.00000  Uiso   1.00
C866   C     0.87306   0.76797   0.36318   0.00000  Uiso   1.00
H867   H     0.90260   0.75422   0.34015   0.00000  Uiso   1.00
H868   H     0.87367   0.81011   0.36455   0.00000  Uiso   1.00
C869   C     0.83122   0.74078   0.65884   0.00000  Uiso   1.00
H870   H     0.83050   0.74977   0.61298   0.00000  Uiso   1.00
H871   H     0.83048   0.69848   0.65514   0.00000  Uiso   1.00
H872   H     0.80126   0.75390   0.34748   0.00000  Uiso   1.00
O873   O     0.62718   0.91350   0.57204   0.00000  Uiso   1.00
C874   C     0.62719   0.90273   0.63098   0.00000  Uiso   1.00
H875   H     0.62473   0.86054   0.63056   0.00000  Uiso   1.00
H876   H     0.59873   0.91885   0.65472   0.00000  Uiso   1.00
C877   C     0.67026   0.92736   0.33408   0.00000  Uiso   1.00
H878   H     0.69926   0.91649   0.64191   0.00000  Uiso   1.00
H879   H     0.67084   0.97007   0.34392   0.00000  Uiso   1.00
H880   H     0.67315   0.91308   0.37677   0.00000  Uiso   1.00
Cl881  Cl    0.93393   0.68609   0.40704   0.00000  Uiso   1.00
Cl882  Cl    0.56617   0.98469   0.58092   0.00000  Uiso   1.00
Cl883  Cl    0.53439   0.68715   0.40520   0.00000  Uiso   1.00
Cl884  Cl    0.96783   0.98046   0.59966   0.00000  Uiso   1.00
Cl885  Cl    0.77343   0.98493   0.40680   0.00000  Uiso   1.00
Cl886  Cl    0.72877   0.68218   0.59356   0.00000  Uiso   1.00
Cl887  Cl    0.68779   0.78743   0.64302   0.00000  Uiso   1.00
Cl888  Cl    0.81211   0.87933   0.35666   0.00000  Uiso   1.00
C889   C     0.25037   0.06731   0.81844   0.00000  Uiso   1.00
C890   C     0.25118   0.26623   0.84822   0.00000  Uiso   1.00
C891   C     0.01319   0.07696   0.77778   0.00000  Uiso   1.00
C892   C     0.48700   0.25745   0.89018   0.00000  Uiso   1.00
C893   C     0.25479   0.01297   0.81092   0.00000  Uiso   1.00
C894   C     0.24737   0.32074   0.85599   0.00000  Uiso   1.00
C895   C     0.16457   0.16632   0.83457   0.00000  Uiso   1.00
C896   C     0.33528   0.16660   0.83219   0.00000  Uiso   1.00
C897   C     0.41089   0.21228   0.85982   0.00000  Uiso   1.00
C898   C     0.08803   0.11812   0.81683   0.00000  Uiso   1.00
C899   C     0.38362   0.16802   0.82968   0.00000  Uiso   1.00
C900   C     0.11614   0.16453   0.83742   0.00000  Uiso   1.00
C901   C     0.40168   0.12656   0.79455   0.00000  Uiso   1.00
C902   C     0.09849   0.20919   0.86653   0.00000  Uiso   1.00
C903   C     0.44819   0.12387   0.79920   0.00000  Uiso   1.00
C904   C     0.05194   0.21197   0.86260   0.00000  Uiso   1.00
C905   C     0.47653   0.16820   0.83085   0.00000  Uiso   1.00
C906   C     0.02342   0.16729   0.83314   0.00000  Uiso   1.00
C907   C     0.45797   0.21316   0.86080   0.00000  Uiso   1.00
C908   C     0.04175   0.12083   0.80842   0.00000  Uiso   1.00
C909   C     0.46699   0.07817   0.77372   0.00000  Uiso   1.00
C910   C     0.03322   0.25775   0.88787   0.00000  Uiso   1.00
Cu911  Cu    0.25500   0.17246   0.89479   0.00000  Uiso   1.00
Cu912  Cu    0.24499   0.16087   0.77187   0.00000  Uiso   1.00
N913   N     0.23744   0.15214   0.67951   0.00000  Uiso   1.00
N914   N     0.26255   0.18119   0.98716   0.00000  Uiso   1.00
O915   O     0.25325   0.09538   0.87326   0.00000  Uiso   1.00
O916   O     0.24674   0.23796   0.79341   0.00000  Uiso   1.00
O917   O     0.24480   0.08559   0.76945   0.00000  Uiso   1.00
O918   O     0.25520   0.24774   0.89721   0.00000  Uiso   1.00
O919   O     0.18935   0.17155   0.88524   0.00000  Uiso   1.00
O920   O     0.31064   0.16179   0.78143   0.00000  Uiso   1.00
O921   O     0.18090   0.16176   0.78143   0.00000  Uiso   1.00
O922   O     0.31910   0.17157   0.88523   0.00000  Uiso   1.00
O923   O     0.39060   0.25565   0.88424   0.00000  Uiso   1.00
C924   C     0.38191   0.28225   0.83739   0.00000  Uiso   1.00
H925   H     0.35524   0.26011   0.80379   0.00000  Uiso   1.00
H926   H     0.41243   0.28915   0.81380   0.00000  Uiso   1.00
C927   C     0.36612   0.00073   0.86388   0.00000  Uiso   1.00
H928   H     0.39253   0.02568   0.89558   0.00000  Uiso   1.00
H929   H     0.35729   0.02067   0.82701   0.00000  Uiso   1.00
H930   H     0.33623   0.32758   0.88839   0.00000  Uiso   1.00
O931   O     0.10065   0.07267   0.83076   0.00000  Uiso   1.00
C932   C     0.13393   0.05181   0.79508   0.00000  Uiso   1.00
H933   H     0.16654   0.07272   0.81244   0.00000  Uiso   1.00
H934   H     0.12732   0.05214   0.74614   0.00000  Uiso   1.00
C935   C     0.13691   0.33017   0.80281   0.00000  Uiso   1.00
H936   H     0.16651   0.31552   0.78196   0.00000  Uiso   1.00
H937   H     0.14142   0.32968   0.85169   0.00000  Uiso   1.00
H938   H     0.10661   0.30447   0.78179   0.00000  Uiso   1.00
O939   O     0.37293   0.08966   0.75490   0.00000  Uiso   1.00
C940   C     0.37306   0.10131   0.69651   0.00000  Uiso   1.00
H941   H     0.40260   0.08755   0.67348   0.00000  Uiso   1.00
H942   H     0.37367   0.14344   0.69788   0.00000  Uiso   1.00
C943   C     0.33122   0.07411   0.99217   0.00000  Uiso   1.00
H944   H     0.33050   0.08310   0.94631   0.00000  Uiso   1.00
H945   H     0.33048   0.03181   0.98847   0.00000  Uiso   1.00
H946   H     0.30126   0.08723   0.68081   0.00000  Uiso   1.00
O947   O     0.12718   0.24683   0.90537   0.00000  Uiso   1.00
C948   C     0.12719   0.23607   0.96431   0.00000  Uiso   1.00
H949   H     0.12473   0.19388   0.96389   0.00000  Uiso   1.00
H950   H     0.09873   0.25218   0.98805   0.00000  Uiso   1.00
C951   C     0.17026   0.26070   0.66741   0.00000  Uiso   1.00
H952   H     0.19926   0.24983   0.97524   0.00000  Uiso   1.00
H953   H     0.17084   0.30340   0.67725   0.00000  Uiso   1.00
H954   H     0.17315   0.24641   0.71010   0.00000  Uiso   1.00
Cl955  Cl    0.43393   0.01942   0.74037   0.00000  Uiso   1.00
Cl956  Cl    0.06617   0.31802   0.91425   0.00000  Uiso   1.00
Cl957  Cl    0.03439   0.02048   0.73853   0.00000  Uiso   1.00
Cl958  Cl    0.46783   0.31379   0.93299   0.00000  Uiso   1.00
Cl959  Cl    0.27343   0.31826   0.74013   0.00000  Uiso   1.00
Cl960  Cl    0.22877   0.01551   0.92689   0.00000  Uiso   1.00
Cl961  Cl    0.18779   0.12076   0.97635   0.00000  Uiso   1.00
Cl962  Cl    0.31211   0.21266   0.69000   0.00000  Uiso   1.00
C963   C     0.75037   0.06731   0.81844   0.00000  Uiso   1.00
C964   C     0.75118   0.26623   0.84822   0.00000  Uiso   1.00
C965   C     0.51319   0.07696   0.77778   0.00000  Uiso   1.00
C966   C     0.98700   0.25745   0.89018   0.00000  Uiso   1.00
C967   C     0.75479   0.01297   0.81092   0.00000  Uiso   1.00
C968   C     0.74737   0.32074   0.85599   0.00000  Uiso   1.00
C969   C     0.66457   0.16632   0.83457   0.00000  Uiso   1.00
C970   C     0.83528   0.16660   0.83219   0.00000  Uiso   1.00
C971   C     0.91089   0.21228   0.85982   0.00000  Uiso   1.00
C972   C     0.58803   0.11812   0.81683   0.00000  Uiso   1.00
C973   C     0.88362   0.16802   0.82968   0.00000  Uiso   1.00
C974   C     0.61614   0.16453   0.83742   0.00000  Uiso   1.00
C975   C     0.90168   0.12656   0.79455   0.00000  Uiso   1.00
C976   C     0.59849   0.20919   0.86653   0.00000  Uiso   1.00
C977   C     0.94819   0.12387   0.79920   0.00000  Uiso   1.00
C978   C     0.55194   0.21197   0.86260   0.00000  Uiso   1.00
C979   C     0.97653   0.16820   0.83085   0.00000  Uiso   1.00
C980   C     0.52342   0.16729   0.83314   0.00000  Uiso   1.00
C981   C     0.95797   0.21316   0.86080   0.00000  Uiso   1.00
C982   C     0.54175   0.12083   0.80842   0.00000  Uiso   1.00
C983   C     0.96699   0.07817   0.77372   0.00000  Uiso   1.00
C984   C     0.53322   0.25775   0.88787   0.00000  Uiso   1.00
Cu985  Cu    0.75500   0.17246   0.89479   0.00000  Uiso   1.00
Cu986  Cu    0.74499   0.16087   0.77187   0.00000  Uiso   1.00
N987   N     0.73744   0.15214   0.67951   0.00000  Uiso   1.00
N988   N     0.76255   0.18119   0.98716   0.00000  Uiso   1.00
O989   O     0.75325   0.09538   0.87326   0.00000  Uiso   1.00
O990   O     0.74674   0.23796   0.79341   0.00000  Uiso   1.00
O991   O     0.74480   0.08559   0.76945   0.00000  Uiso   1.00
O992   O     0.75520   0.24774   0.89721   0.00000  Uiso   1.00
O993   O     0.68935   0.17155   0.88524   0.00000  Uiso   1.00
O994   O     0.81064   0.16179   0.78143   0.00000  Uiso   1.00
O995   O     0.68090   0.16176   0.78143   0.00000  Uiso   1.00
O996   O     0.81910   0.17157   0.88523   0.00000  Uiso   1.00
O997   O     0.89060   0.25565   0.88424   0.00000  Uiso   1.00
C998   C     0.88191   0.28225   0.83739   0.00000  Uiso   1.00
H999   H     0.85524   0.26011   0.80379   0.00000  Uiso   1.00
H1000  H     0.91243   0.28915   0.81380   0.00000  Uiso   1.00
C1001  C     0.86612   0.00073   0.86388   0.00000  Uiso   1.00
H1002  H     0.89253   0.02568   0.89558   0.00000  Uiso   1.00
H1003  H     0.85729   0.02067   0.82701   0.00000  Uiso   1.00
H1004  H     0.83623   0.32758   0.88839   0.00000  Uiso   1.00
O1005  O     0.60065   0.07267   0.83076   0.00000  Uiso   1.00
C1006  C     0.63393   0.05181   0.79508   0.00000  Uiso   1.00
H1007  H     0.66654   0.07272   0.81244   0.00000  Uiso   1.00
H1008  H     0.62732   0.05214   0.74614   0.00000  Uiso   1.00
C1009  C     0.63691   0.33017   0.80281   0.00000  Uiso   1.00
H1010  H     0.66651   0.31552   0.78196   0.00000  Uiso   1.00
H1011  H     0.64142   0.32968   0.85169   0.00000  Uiso   1.00
H1012  H     0.60661   0.30447   0.78179   0.00000  Uiso   1.00
O1013  O     0.87293   0.08966   0.75490   0.00000  Uiso   1.00
C1014  C     0.87306   0.10131   0.69651   0.00000  Uiso   1.00
H1015  H     0.90260   0.08755   0.67348   0.00000  Uiso   1.00
H1016  H     0.87367   0.14344   0.69788   0.00000  Uiso   1.00
C1017  C     0.83122   0.07411   0.99217   0.00000  Uiso   1.00
H1018  H     0.83050   0.08310   0.94631   0.00000  Uiso   1.00
H1019  H     0.83048   0.03181   0.98847   0.00000  Uiso   1.00
H1020  H     0.80126   0.08723   0.68081   0.00000  Uiso   1.00
O1021  O     0.62718   0.24683   0.90537   0.00000  Uiso   1.00
C1022  C     0.62719   0.23607   0.96431   0.00000  Uiso   1.00
H1023  H     0.62473   0.19388   0.96389   0.00000  Uiso   1.00
H1024  H     0.59873   0.25218   0.98805   0.00000  Uiso   1.00
C1025  C     0.67026   0.26070   0.66741   0.00000  Uiso   1.00
H1026  H     0.69926   0.24983   0.97524   0.00000  Uiso   1.00
H1027  H     0.67084   0.30340   0.67725   0.00000  Uiso   1.00
H1028  H     0.67315   0.24641   0.71010   0.00000  Uiso   1.00
Cl1029 Cl    0.93393   0.01942   0.74037   0.00000  Uiso   1.00
Cl1030 Cl    0.56617   0.31802   0.91425   0.00000  Uiso   1.00
Cl1031 Cl    0.53439   0.02048   0.73853   0.00000  Uiso   1.00
Cl1032 Cl    0.96783   0.31379   0.93299   0.00000  Uiso   1.00
Cl1033 Cl    0.77343   0.31826   0.74013   0.00000  Uiso   1.00
Cl1034 Cl    0.72877   0.01551   0.92689   0.00000  Uiso   1.00
Cl1035 Cl    0.68779   0.12076   0.97635   0.00000  Uiso   1.00
Cl1036 Cl    0.81211   0.21266   0.69000   0.00000  Uiso   1.00
C1037  C     0.25037   0.40065   0.81844   0.00000  Uiso   1.00
C1038  C     0.25118   0.59956   0.84822   0.00000  Uiso   1.00
C1039  C     0.01319   0.41029   0.77778   0.00000  Uiso   1.00
C1040  C     0.48700   0.59078   0.89018   0.00000  Uiso   1.00
C1041  C     0.25479   0.34631   0.81092   0.00000  Uiso   1.00
C1042  C     0.24737   0.65407   0.85599   0.00000  Uiso   1.00
C1043  C     0.16457   0.49965   0.83457   0.00000  Uiso   1.00
C1044  C     0.33528   0.49994   0.83219   0.00000  Uiso   1.00
C1045  C     0.41089   0.54562   0.85982   0.00000  Uiso   1.00
C1046  C     0.08803   0.45145   0.81683   0.00000  Uiso   1.00
C1047  C     0.38362   0.50136   0.82968   0.00000  Uiso   1.00
C1048  C     0.11614   0.49786   0.83742   0.00000  Uiso   1.00
C1049  C     0.40168   0.45990   0.79455   0.00000  Uiso   1.00
C1050  C     0.09849   0.54252   0.86653   0.00000  Uiso   1.00
C1051  C     0.44819   0.45720   0.79920   0.00000  Uiso   1.00
C1052  C     0.05194   0.54530   0.86260   0.00000  Uiso   1.00
C1053  C     0.47653   0.50153   0.83085   0.00000  Uiso   1.00
C1054  C     0.02342   0.50062   0.83314   0.00000  Uiso   1.00
C1055  C     0.45797   0.54649   0.86080   0.00000  Uiso   1.00
C1056  C     0.04175   0.45416   0.80842   0.00000  Uiso   1.00
C1057  C     0.46699   0.41151   0.77372   0.00000  Uiso   1.00
C1058  C     0.03322   0.59108   0.88787   0.00000  Uiso   1.00
Cu1059 Cu    0.25500   0.50579   0.89479   0.00000  Uiso   1.00
Cu1060 Cu    0.24499   0.49421   0.77187   0.00000  Uiso   1.00
N1061  N     0.23744   0.48547   0.67951   0.00000  Uiso   1.00
N1062  N     0.26255   0.51453   0.98716   0.00000  Uiso   1.00
O1063  O     0.25325   0.42871   0.87326   0.00000  Uiso   1.00
O1064  O     0.24674   0.57129   0.79341   0.00000  Uiso   1.00
O1065  O     0.24480   0.41892   0.76945   0.00000  Uiso   1.00
O1066  O     0.25520   0.58108   0.89721   0.00000  Uiso   1.00
O1067  O     0.18935   0.50488   0.88524   0.00000  Uiso   1.00
O1068  O     0.31064   0.49512   0.78143   0.00000  Uiso   1.00
O1069  O     0.18090   0.49510   0.78143   0.00000  Uiso   1.00
O1070  O     0.31910   0.50490   0.88523   0.00000  Uiso   1.00
O1071  O     0.39060   0.58898   0.88424   0.00000  Uiso   1.00
C1072  C     0.38191   0.61558   0.83739   0.00000  Uiso   1.00
H1073  H     0.35524   0.59344   0.80379   0.00000  Uiso   1.00
H1074  H     0.41243   0.62249   0.81380   0.00000  Uiso   1.00
C1075  C     0.36612   0.33406   0.86388   0.00000  Uiso   1.00
H1076  H     0.39253   0.35902   0.89558   0.00000  Uiso   1.00
H1077  H     0.35729   0.35400   0.82701   0.00000  Uiso   1.00
H1078  H     0.33623   0.66092   0.88839   0.00000  Uiso   1.00
O1079  O     0.10065   0.40601   0.83076   0.00000  Uiso   1.00
C1080  C     0.13393   0.38514   0.79508   0.00000  Uiso   1.00
H1081  H     0.16654   0.40606   0.81244   0.00000  Uiso   1.00
H1082  H     0.12732   0.38547   0.74614   0.00000  Uiso   1.00
C1083  C     0.13691   0.66350   0.80281   0.00000  Uiso   1.00
H1084  H     0.16651   0.64885   0.78196   0.00000  Uiso   1.00
H1085  H     0.14142   0.66302   0.85169   0.00000  Uiso   1.00
H1086  H     0.10661   0.63780   0.78179   0.00000  Uiso   1.00
O1087  O     0.37293   0.42300   0.75490   0.00000  Uiso   1.00
C1088  C     0.37306   0.43464   0.69651   0.00000  Uiso   1.00
H1089  H     0.40260   0.42088   0.67348   0.00000  Uiso   1.00
H1090  H     0.37367   0.47678   0.69788   0.00000  Uiso   1.00
C1091  C     0.33122   0.40745   0.99217   0.00000  Uiso   1.00
H1092  H     0.33050   0.41644   0.94631   0.00000  Uiso   1.00
H1093  H     0.33048   0.36515   0.98847   0.00000  Uiso   1.00
H1094  H     0.30126   0.42056   0.68081   0.00000  Uiso   1.00
O1095  O     0.12718   0.58017   0.90537   0.00000  Uiso   1.00
C1096  C     0.12719   0.56940   0.96431   0.00000  Uiso   1.00
H1097  H     0.12473   0.52721   0.96389   0.00000  Uiso   1.00
H1098  H     0.09873   0.58551   0.98805   0.00000  Uiso   1.00
C1099  C     0.17026   0.59403   0.66741   0.00000  Uiso   1.00
H1100  H     0.19926   0.58316   0.97524   0.00000  Uiso   1.00
H1101  H     0.17084   0.63673   0.67725   0.00000  Uiso   1.00
H1102  H     0.17315   0.57975   0.71010   0.00000  Uiso   1.00
Cl1103 Cl    0.43393   0.35276   0.74037   0.00000  Uiso   1.00
Cl1104 Cl    0.06617   0.65135   0.91425   0.00000  Uiso   1.00
Cl1105 Cl    0.03439   0.35382   0.73853   0.00000  Uiso   1.00
Cl1106 Cl    0.46783   0.64712   0.93299   0.00000  Uiso   1.00
Cl1107 Cl    0.27343   0.65159   0.74013   0.00000  Uiso   1.00
Cl1108 Cl    0.22877   0.34885   0.92689   0.00000  Uiso   1.00
Cl1109 Cl    0.18779   0.45409   0.97635   0.00000  Uiso   1.00
Cl1110 Cl    0.31211   0.54599   0.69000   0.00000  Uiso   1.00
C1111  C     0.75037   0.40065   0.81844   0.00000  Uiso   1.00
C1112  C     0.75118   0.59956   0.84822   0.00000  Uiso   1.00
C1113  C     0.51319   0.41029   0.77778   0.00000  Uiso   1.00
C1114  C     0.98700   0.59078   0.89018   0.00000  Uiso   1.00
C1115  C     0.75479   0.34631   0.81092   0.00000  Uiso   1.00
C1116  C     0.74737   0.65407   0.85599   0.00000  Uiso   1.00
C1117  C     0.66457   0.49965   0.83457   0.00000  Uiso   1.00
C1118  C     0.83528   0.49994   0.83219   0.00000  Uiso   1.00
C1119  C     0.91089   0.54562   0.85982   0.00000  Uiso   1.00
C1120  C     0.58803   0.45145   0.81683   0.00000  Uiso   1.00
C1121  C     0.88362   0.50136   0.82968   0.00000  Uiso   1.00
C1122  C     0.61614   0.49786   0.83742   0.00000  Uiso   1.00
C1123  C     0.90168   0.45990   0.79455   0.00000  Uiso   1.00
C1124  C     0.59849   0.54252   0.86653   0.00000  Uiso   1.00
C1125  C     0.94819   0.45720   0.79920   0.00000  Uiso   1.00
C1126  C     0.55194   0.54530   0.86260   0.00000  Uiso   1.00
C1127  C     0.97653   0.50153   0.83085   0.00000  Uiso   1.00
C1128  C     0.52342   0.50062   0.83314   0.00000  Uiso   1.00
C1129  C     0.95797   0.54649   0.86080   0.00000  Uiso   1.00
C1130  C     0.54175   0.45416   0.80842   0.00000  Uiso   1.00
C1131  C     0.96699   0.41151   0.77372   0.00000  Uiso   1.00
C1132  C     0.53322   0.59108   0.88787   0.00000  Uiso   1.00
Cu1133 Cu    0.75500   0.50579   0.89479   0.00000  Uiso   1.00
Cu1134 Cu    0.74499   0.49421   0.77187   0.00000  Uiso   1.00
N1135  N     0.73744   0.48547   0.67951   0.00000  Uiso   1.00
N1136  N     0.76255   0.51453   0.98716   0.00000  Uiso   1.00
O1137  O     0.75325   0.42871   0.87326   0.00000  Uiso   1.00
O1138  O     0.74674   0.57129   0.79341   0.00000  Uiso   1.00
O1139  O     0.74480   0.41892   0.76945   0.00000  Uiso   1.00
O1140  O     0.75520   0.58108   0.89721   0.00000  Uiso   1.00
O1141  O     0.68935   0.50488   0.88524   0.00000  Uiso   1.00
O1142  O     0.81064   0.49512   0.78143   0.00000  Uiso   1.00
O1143  O     0.68090   0.49510   0.78143   0.00000  Uiso   1.00
O1144  O     0.81910   0.50490   0.88523   0.00000  Uiso   1.00
O1145  O     0.89060   0.58898   0.88424   0.00000  Uiso   1.00
C1146  C     0.88191   0.61558   0.83739   0.00000  Uiso   1.00
H1147  H     0.85524   0.59344   0.80379   0.00000  Uiso   1.00
H1148  H     0.91243   0.62249   0.81380   0.00000  Uiso   1.00
C1149  C     0.86612   0.33406   0.86388   0.00000  Uiso   1.00
H1150  H     0.89253   0.35902   0.89558   0.00000  Uiso   1.00
H1151  H     0.85729   0.35400   0.82701   0.00000  Uiso   1.00
H1152  H     0.83623   0.66092   0.88839   0.00000  Uiso   1.00
O1153  O     0.60065   0.40601   0.83076   0.00000  Uiso   1.00
C1154  C     0.63393   0.38514   0.79508   0.00000  Uiso   1.00
H1155  H     0.66654   0.40606   0.81244   0.00000  Uiso   1.00
H1156  H     0.62732   0.38547   0.74614   0.00000  Uiso   1.00
C1157  C     0.63691   0.66350   0.80281   0.00000  Uiso   1.00
H1158  H     0.66651   0.64885   0.78196   0.00000  Uiso   1.00
H1159  H     0.64142   0.66302   0.85169   0.00000  Uiso   1.00
H1160  H     0.60661   0.63780   0.78179   0.00000  Uiso   1.00
O1161  O     0.87293   0.42300   0.75490   0.00000  Uiso   1.00
C1162  C     0.87306   0.43464   0.69651   0.00000  Uiso   1.00
H1163  H     0.90260   0.42088   0.67348   0.00000  Uiso   1.00
H1164  H     0.87367   0.47678   0.69788   0.00000  Uiso   1.00
C1165  C     0.83122   0.40745   0.99217   0.00000  Uiso   1.00
H1166  H     0.83050   0.41644   0.94631   0.00000  Uiso   1.00
H1167  H     0.83048   0.36515   0.98847   0.00000  Uiso   1.00
H1168  H     0.80126   0.42056   0.68081   0.00000  Uiso   1.00
O1169  O     0.62718   0.58017   0.90537   0.00000  Uiso   1.00
C1170  C     0.62719   0.56940   0.96431   0.00000  Uiso   1.00
H1171  H     0.62473   0.52721   0.96389   0.00000  Uiso   1.00
H1172  H     0.59873   0.58551   0.98805   0.00000  Uiso   1.00
C1173  C     0.67026   0.59403   0.66741   0.00000  Uiso   1.00
H1174  H     0.69926   0.58316   0.97524   0.00000  Uiso   1.00
H1175  H     0.67084   0.63673   0.67725   0.00000  Uiso   1.00
H1176  H     0.67315   0.57975   0.71010   0.00000  Uiso   1.00
Cl1177 Cl    0.93393   0.35276   0.74037   0.00000  Uiso   1.00
Cl1178 Cl    0.56617   0.65135   0.91425   0.00000  Uiso   1.00
Cl1179 Cl    0.53439   0.35382   0.73853   0.00000  Uiso   1.00
Cl1180 Cl    0.96783   0.64712   0.93299   0.00000  Uiso   1.00
Cl1181 Cl    0.77343   0.65159   0.74013   0.00000  Uiso   1.00
Cl1182 Cl    0.72877   0.34885   0.92689   0.00000  Uiso   1.00
Cl1183 Cl    0.68779   0.45409   0.97635   0.00000  Uiso   1.00
Cl1184 Cl    0.81211   0.54599   0.69000   0.00000  Uiso   1.00
C1185  C     0.25037   0.73398   0.81844   0.00000  Uiso   1.00
C1186  C     0.25118   0.93289   0.84822   0.00000  Uiso   1.00
C1187  C     0.01319   0.74363   0.77778   0.00000  Uiso   1.00
C1188  C     0.48700   0.92411   0.89018   0.00000  Uiso   1.00
C1189  C     0.25479   0.67964   0.81092   0.00000  Uiso   1.00
C1190  C     0.24737   0.98741   0.85599   0.00000  Uiso   1.00
C1191  C     0.16457   0.83299   0.83457   0.00000  Uiso   1.00
C1192  C     0.33528   0.83327   0.83219   0.00000  Uiso   1.00
C1193  C     0.41089   0.87895   0.85982   0.00000  Uiso   1.00
C1194  C     0.08803   0.78478   0.81683   0.00000  Uiso   1.00
C1195  C     0.38362   0.83469   0.82968   0.00000  Uiso   1.00
C1196  C     0.11614   0.83120   0.83742   0.00000  Uiso   1.00
C1197  C     0.40168   0.79323   0.79455   0.00000  Uiso   1.00
C1198  C     0.09849   0.87585   0.86653   0.00000  Uiso   1.00
C1199  C     0.44819   0.79053   0.79920   0.00000  Uiso   1.00
C1200  C     0.05194   0.87863   0.86260   0.00000  Uiso   1.00
C1201  C     0.47653   0.83487   0.83085   0.00000  Uiso   1.00
C1202  C     0.02342   0.83396   0.83314   0.00000  Uiso   1.00
C1203  C     0.45797   0.87983   0.86080   0.00000  Uiso   1.00
C1204  C     0.04175   0.78750   0.80842   0.00000  Uiso   1.00
C1205  C     0.46699   0.74484   0.77372   0.00000  Uiso   1.00
C1206  C     0.03322   0.92441   0.88787   0.00000  Uiso   1.00
Cu1207 Cu    0.25500   0.83913   0.89479   0.00000  Uiso   1.00
Cu1208 Cu    0.24499   0.82754   0.77187   0.00000  Uiso   1.00
N1209  N     0.23744   0.81881   0.67951   0.00000  Uiso   1.00
N1210  N     0.26255   0.84786   0.98716   0.00000  Uiso   1.00
O1211  O     0.25325   0.76204   0.87326   0.00000  Uiso   1.00
O1212  O     0.24674   0.90462   0.79341   0.00000  Uiso   1.00
O1213  O     0.24480   0.75226   0.76945   0.00000  Uiso   1.00
O1214  O     0.25520   0.91441   0.89721   0.00000  Uiso   1.00
O1215  O     0.18935   0.83821   0.88524   0.00000  Uiso   1.00
O1216  O     0.31064   0.82845   0.78143   0.00000  Uiso   1.00
O1217  O     0.18090   0.82843   0.78143   0.00000  Uiso   1.00
O1218  O     0.31910   0.83824   0.88523   0.00000  Uiso   1.00
O1219  O     0.39060   0.92232   0.88424   0.00000  Uiso   1.00
C1220  C     0.38191   0.94892   0.83739   0.00000  Uiso   1.00
H1221  H     0.35524   0.92677   0.80379   0.00000  Uiso   1.00
H1222  H     0.41243   0.95582   0.81380   0.00000  Uiso   1.00
C1223  C     0.36612   0.66740   0.86388   0.00000  Uiso   1.00
H1224  H     0.39253   0.69235   0.89558   0.00000  Uiso   1.00
H1225  H     0.35729   0.68734   0.82701   0.00000  Uiso   1.00
H1226  H     0.33623   0.99425   0.88839   0.00000  Uiso   1.00
O1227  O     0.10065   0.73934   0.83076   0.00000  Uiso   1.00
C1228  C     0.13393   0.71848   0.79508   0.00000  Uiso   1.00
H1229  H     0.16654   0.73939   0.81244   0.00000  Uiso   1.00
H1230  H     0.12732   0.71880   0.74614   0.00000  Uiso   1.00
C1231  C     0.13691   0.99683   0.80281   0.00000  Uiso   1.00
H1232  H     0.16651   0.98218   0.78196   0.00000  Uiso   1.00
H1233  H     0.14142   0.99635   0.85169   0.00000  Uiso   1.00
H1234  H     0.10661   0.97114   0.78179   0.00000  Uiso   1.00
O1235  O     0.37293   0.75633   0.75490   0.00000  Uiso   1.00
C1236  C     0.37306   0.76797   0.69651   0.00000  Uiso   1.00
H1237  H     0.40260   0.75422   0.67348   0.00000  Uiso   1.00
H1238  H     0.37367   0.81011   0.69788   0.00000  Uiso   1.00
C1239  C     0.33122   0.74078   0.99217   0.00000  Uiso   1.00
H1240  H     0.33050   0.74977   0.94631   0.00000  Uiso   1.00
H1241  H     0.33048   0.69848   0.98847   0.00000  Uiso   1.00
H1242  H     0.30126   0.75390   0.68081   0.00000  Uiso   1.00
O1243  O     0.12718   0.91350   0.90537   0.00000  Uiso   1.00
C1244  C     0.12719   0.90273   0.96431   0.00000  Uiso   1.00
H1245  H     0.12473   0.86054   0.96389   0.00000  Uiso   1.00
H1246  H     0.09873   0.91885   0.98805   0.00000  Uiso   1.00
C1247  C     0.17026   0.92736   0.66741   0.00000  Uiso   1.00
H1248  H     0.19926   0.91649   0.97524   0.00000  Uiso   1.00
H1249  H     0.17084   0.97007   0.67725   0.00000  Uiso   1.00
H1250  H     0.17315   0.91308   0.71010   0.00000  Uiso   1.00
Cl1251 Cl    0.43393   0.68609   0.74037   0.00000  Uiso   1.00
Cl1252 Cl    0.06617   0.98469   0.91425   0.00000  Uiso   1.00
Cl1253 Cl    0.03439   0.68715   0.73853   0.00000  Uiso   1.00
Cl1254 Cl    0.46783   0.98046   0.93299   0.00000  Uiso   1.00
Cl1255 Cl    0.27343   0.98493   0.74013   0.00000  Uiso   1.00
Cl1256 Cl    0.22877   0.68218   0.92689   0.00000  Uiso   1.00
Cl1257 Cl    0.18779   0.78743   0.97635   0.00000  Uiso   1.00
Cl1258 Cl    0.31211   0.87933   0.69000   0.00000  Uiso   1.00
C1259  C     0.75037   0.73398   0.81844   0.00000  Uiso   1.00
C1260  C     0.75118   0.93289   0.84822   0.00000  Uiso   1.00
C1261  C     0.51319   0.74363   0.77778   0.00000  Uiso   1.00
C1262  C     0.98700   0.92411   0.89018   0.00000  Uiso   1.00
C1263  C     0.75479   0.67964   0.81092   0.00000  Uiso   1.00
C1264  C     0.74737   0.98741   0.85599   0.00000  Uiso   1.00
C1265  C     0.66457   0.83299   0.83457   0.00000  Uiso   1.00
C1266  C     0.83528   0.83327   0.83219   0.00000  Uiso   1.00
C1267  C     0.91089   0.87895   0.85982   0.00000  Uiso   1.00
C1268  C     0.58803   0.78478   0.81683   0.00000  Uiso   1.00
C1269  C     0.88362   0.83469   0.82968   0.00000  Uiso   1.00
C1270  C     0.61614   0.83120   0.83742   0.00000  Uiso   1.00
C1271  C     0.90168   0.79323   0.79455   0.00000  Uiso   1.00
C1272  C     0.59849   0.87585   0.86653   0.00000  Uiso   1.00
C1273  C     0.94819   0.79053   0.79920   0.00000  Uiso   1.00
C1274  C     0.55194   0.87863   0.86260   0.00000  Uiso   1.00
C1275  C     0.97653   0.83487   0.83085   0.00000  Uiso   1.00
C1276  C     0.52342   0.83396   0.83314   0.00000  Uiso   1.00
C1277  C     0.95797   0.87983   0.86080   0.00000  Uiso   1.00
C1278  C     0.54175   0.78750   0.80842   0.00000  Uiso   1.00
C1279  C     0.96699   0.74484   0.77372   0.00000  Uiso   1.00
C1280  C     0.53322   0.92441   0.88787   0.00000  Uiso   1.00
Cu1281 Cu    0.75500   0.83913   0.89479   0.00000  Uiso   1.00
Cu1282 Cu    0.74499   0.82754   0.77187   0.00000  Uiso   1.00
N1283  N     0.73744   0.81881   0.67951   0.00000  Uiso   1.00
N1284  N     0.76255   0.84786   0.98716   0.00000  Uiso   1.00
O1285  O     0.75325   0.76204   0.87326   0.00000  Uiso   1.00
O1286  O     0.74674   0.90462   0.79341   0.00000  Uiso   1.00
O1287  O     0.74480   0.75226   0.76945   0.00000  Uiso   1.00
O1288  O     0.75520   0.91441   0.89721   0.00000  Uiso   1.00
O1289  O     0.68935   0.83821   0.88524   0.00000  Uiso   1.00
O1290  O     0.81064   0.82845   0.78143   0.00000  Uiso   1.00
O1291  O     0.68090   0.82843   0.78143   0.00000  Uiso   1.00
O1292  O     0.81910   0.83824   0.88523   0.00000  Uiso   1.00
O1293  O     0.89060   0.92232   0.88424   0.00000  Uiso   1.00
C1294  C     0.88191   0.94892   0.83739   0.00000  Uiso   1.00
H1295  H     0.85524   0.92677   0.80379   0.00000  Uiso   1.00
H1296  H     0.91243   0.95582   0.81380   0.00000  Uiso   1.00
C1297  C     0.86612   0.66740   0.86388   0.00000  Uiso   1.00
H1298  H     0.89253   0.69235   0.89558   0.00000  Uiso   1.00
H1299  H     0.85729   0.68734   0.82701   0.00000  Uiso   1.00
H1300  H     0.83623   0.99425   0.88839   0.00000  Uiso   1.00
O1301  O     0.60065   0.73934   0.83076   0.00000  Uiso   1.00
C1302  C     0.63393   0.71848   0.79508   0.00000  Uiso   1.00
H1303  H     0.66654   0.73939   0.81244   0.00000  Uiso   1.00
H1304  H     0.62732   0.71880   0.74614   0.00000  Uiso   1.00
C1305  C     0.63691   0.99683   0.80281   0.00000  Uiso   1.00
H1306  H     0.66651   0.98218   0.78196   0.00000  Uiso   1.00
H1307  H     0.64142   0.99635   0.85169   0.00000  Uiso   1.00
H1308  H     0.60661   0.97114   0.78179   0.00000  Uiso   1.00
O1309  O     0.87293   0.75633   0.75490   0.00000  Uiso   1.00
C1310  C     0.87306   0.76797   0.69651   0.00000  Uiso   1.00
H1311  H     0.90260   0.75422   0.67348   0.00000  Uiso   1.00
H1312  H     0.87367   0.81011   0.69788   0.00000  Uiso   1.00
C1313  C     0.83122   0.74078   0.99217   0.00000  Uiso   1.00
H1314  H     0.83050   0.74977   0.94631   0.00000  Uiso   1.00
H1315  H     0.83048   0.69848   0.98847   0.00000  Uiso   1.00
H1316  H     0.80126   0.75390   0.68081   0.00000  Uiso   1.00
O1317  O     0.62718   0.91350   0.90537   0.00000  Uiso   1.00
C1318  C     0.62719   0.90273   0.96431   0.00000  Uiso   1.00
H1319  H     0.62473   0.86054   0.96389   0.00000  Uiso   1.00
H1320  H     0.59873   0.91885   0.98805   0.00000  Uiso   1.00
C1321  C     0.67026   0.92736   0.66741   0.00000  Uiso   1.00
H1322  H     0.69926   0.91649   0.97524   0.00000  Uiso   1.00
H1323  H     0.67084   0.97007   0.67725   0.00000  Uiso   1.00
H1324  H     0.67315   0.91308   0.71010   0.00000  Uiso   1.00
Cl1325 Cl    0.93393   0.68609   0.74037   0.00000  Uiso   1.00
Cl1326 Cl    0.56617   0.98469   0.91425   0.00000  Uiso   1.00
Cl1327 Cl    0.53439   0.68715   0.73853   0.00000  Uiso   1.00
Cl1328 Cl    0.96783   0.98046   0.93299   0.00000  Uiso   1.00
Cl1329 Cl    0.77343   0.98493   0.74013   0.00000  Uiso   1.00
Cl1330 Cl    0.72877   0.68218   0.92689   0.00000  Uiso   1.00
Cl1331 Cl    0.68779   0.78743   0.97635   0.00000  Uiso   1.00
Cl1332 Cl    0.81211   0.87933   0.69000   0.00000  Uiso   1.00
loop_
_geom_bond_atom_site_label_1
_geom_bond_atom_site_label_2
_geom_bond_distance
_geom_bond_site_symmetry_2
_ccdc_geom_bond_type
C1     O27     1.300   .     A
C1     O29     1.306   .     A
C1     C5      1.440   .     S
C2     O30     1.305   .     A
C2     C6      1.440   .     S
C2     O28     1.301   .     A
C3     Cl69    1.773   .     S
C3     C20     1.413   .     A
C3     C95     1.397   1_455 S
C4     Cl70    1.772   .     S
C4     C19     1.420   .     A
C4     C96     1.399   .     S
C5     C302    1.354   1_545 S
C5     Cl367   1.766   1_545 S
C6     C153    1.354   .     S
C6     Cl220   1.768   .     S
C7     C12     1.465   .     S
C7     O31     1.306   .     A
C7     O33     1.310   .     A
C8     O34     1.306   .     A
C8     C11     1.461   .     S
C8     O32     1.307   .     A
C9     C11     1.398   .     A
C9     O35     1.384   .     S
C9     C19     1.419   .     A
C10    O43     1.391   .     S
C10    C12     1.409   .     A
C10    C20     1.410   .     A
C11    C13     1.393   .     A
C12    C14     1.400   .     A
C13    C15     1.412   .     A
C13    O51     1.382   .     S
C14    C16     1.413   .     A
C14    O59     1.383   .     S
C15    C21     1.416   .     A
C15    C17     1.425   .     A
C16    C22     1.416   .     A
C16    C18     1.420   .     A
C17    C19     1.426   .     A
C17    C92     1.417   .     S
C18    C20     1.422   .     A
C18    C91     1.417   1_455 S
C21    Cl67    1.774   .     S
C21    C77     1.397   .     S
C22    Cl68    1.778   .     S
C22    C78     1.399   1_455 S
Cu23   O27     2.002   .     S
Cu23   O34     1.962   .     S
Cu23   Cu24    2.725   .     S
Cu23   O30     1.992   .     S
Cu23   N26     2.048   .     S
Cu23   O31     1.979   .     S
Cu24   N25     2.048   .     S
Cu24   O28     2.002   .     S
Cu24   O32     1.979   .     S
Cu24   O29     1.992   .     S
Cu24   O33     1.962   .     S
N25    N914    1.280   1_554 S
N25    Cl961   1.722   1_554 S
N26    N469    1.280   .     S
N26    Cl518   1.719   .     S
O35    C36     1.415   .     S
C36    H38     1.110   .     S
C36    H37     1.109   .     S
C36    C187    1.516   .     S
C39    H41     1.109   .     S
C39    H40     1.109   .     S
C39    C332    1.516   1_545 S
C39    H338    1.104   1_545 S
H42    C187    1.104   .     S
O43    C44     1.406   .     S
C44    H46     1.114   .     S
C44    H45     1.094   .     S
C44    C343    1.518   1_545 S
C47    H48     1.099   .     S
C47    H50     1.109   .     S
C47    H49     1.108   .     S
C47    C192    1.518   .     S
O51    C52     1.416   .     S
C52    H54     1.113   .     S
C52    H53     1.111   .     S
C52    C943    1.515   1_554 S
C55    H56     1.110   .     S
C55    H57     1.109   .     S
C55    C496    1.515   .     S
C55    H502    1.107   .     S
H58    C943    1.107   1_554 S
O59    C60     1.419   .     S
C60    H62     1.112   .     S
C60    H61     1.116   .     S
C60    C507    1.515   .     S
C63    H65     1.110   .     S
C63    H66     1.109   .     S
C63    C948    1.515   1_554 S
C63    H952    1.104   1_554 S
H64    C507    1.104   .     S
Cl71   C153    1.766   .     S
Cl72   C302    1.768   1_545 S
Cl73   N469    1.722   .     S
Cl74   N914    1.719   1_554 S
C75    O101    1.300   .     A
C75    O103    1.306   .     A
C75    C79     1.440   .     S
C76    O104    1.305   .     A
C76    C80     1.440   .     S
C76    O102    1.301   .     A
C77    Cl143   1.773   .     S
C77    C94     1.413   .     A
C78    Cl144   1.772   .     S
C78    C93     1.420   .     A
C78    C22     1.399   1_655 S
C79    C376    1.354   1_545 S
C79    Cl441   1.766   1_545 S
C80    C227    1.354   .     S
C80    Cl294   1.768   .     S
C81    C86     1.465   .     S
C81    O105    1.306   .     A
C81    O107    1.310   .     A
C82    O108    1.306   .     A
C82    C85     1.461   .     S
C82    O106    1.307   .     A
C83    C85     1.398   .     A
C83    O109    1.384   .     S
C83    C93     1.419   .     A
C84    O117    1.391   .     S
C84    C86     1.409   .     A
C84    C94     1.410   .     A
C85    C87     1.393   .     A
C86    C88     1.400   .     A
C87    C89     1.412   .     A
C87    O125    1.382   .     S
C88    C90     1.413   .     A
C88    O133    1.383   .     S
C89    C95     1.416   .     A
C89    C91     1.425   .     A
C90    C96     1.416   .     A
C90    C92     1.420   .     A
C91    C93     1.426   .     A
C91    C18     1.417   1_655 S
C92    C94     1.422   .     A
C95    Cl141   1.774   .     S
C95    C3      1.397   1_655 S
C96    Cl142   1.778   .     S
Cu97   O101    2.002   .     S
Cu97   O108    1.962   .     S
Cu97   Cu98    2.725   .     S
Cu97   O104    1.992   .     S
Cu97   N100    2.048   .     S
Cu97   O105    1.979   .     S
Cu98   N99     2.048   .     S
Cu98   O102    2.002   .     S
Cu98   O106    1.979   .     S
Cu98   O103    1.992   .     S
Cu98   O107    1.962   .     S
N99    N988    1.280   1_554 S
N99    Cl1035  1.722   1_554 S
N100   N543    1.280   .     S
N100   Cl592   1.719   .     S
O109   C110    1.415   .     S
C110   H112    1.110   .     S
C110   H111    1.109   .     S
C110   C261    1.516   .     S
C113   H115    1.109   .     S
C113   H114    1.109   .     S
C113   C406    1.516   1_545 S
C113   H412    1.104   1_545 S
H116   C261    1.104   .     S
O117   C118    1.406   .     S
C118   H120    1.114   .     S
C118   H119    1.094   .     S
C118   C417    1.518   1_545 S
C121   H122    1.099   .     S
C121   H124    1.109   .     S
C121   H123    1.108   .     S
C121   C266    1.518   .     S
O125   C126    1.416   .     S
C126   H128    1.113   .     S
C126   H127    1.111   .     S
C126   C1017   1.515   1_554 S
C129   H130    1.110   .     S
C129   H131    1.109   .     S
C129   C570    1.515   .     S
C129   H576    1.107   .     S
H132   C1017   1.107   1_554 S
O133   C134    1.419   .     S
C134   H136    1.112   .     S
C134   H135    1.116   .     S
C134   C581    1.515   .     S
C137   H139    1.110   .     S
C137   H140    1.109   .     S
C137   C1022   1.515   1_554 S
C137   H1026   1.104   1_554 S
H138   C581    1.104   .     S
Cl145  C227    1.766   .     S
Cl146  C376    1.768   1_545 S
Cl147  N543    1.722   .     S
Cl148  N988    1.719   1_554 S
C149   O175    1.300   .     A
C149   O177    1.306   .     A
C149   C153    1.440   .     S
C150   O178    1.305   .     A
C150   C154    1.440   .     S
C150   O176    1.301   .     A
C151   Cl217   1.773   .     S
C151   C168    1.413   .     A
C151   C243    1.397   1_455 S
C152   Cl218   1.772   .     S
C152   C167    1.420   .     A
C152   C244    1.399   .     S
C154   C301    1.354   .     S
C154   Cl368   1.768   .     S
C155   C160    1.465   .     S
C155   O179    1.306   .     A
C155   O181    1.310   .     A
C156   O182    1.306   .     A
C156   C159    1.461   .     S
C156   O180    1.307   .     A
C157   C159    1.398   .     A
C157   O183    1.384   .     S
C157   C167    1.419   .     A
C158   O191    1.391   .     S
C158   C160    1.409   .     A
C158   C168    1.410   .     A
C159   C161    1.393   .     A
C160   C162    1.400   .     A
C161   C163    1.412   .     A
C161   O199    1.382   .     S
C162   C164    1.413   .     A
C162   O207    1.383   .     S
C163   C169    1.416   .     A
C163   C165    1.425   .     A
C164   C170    1.416   .     A
C164   C166    1.420   .     A
C165   C167    1.426   .     A
C165   C240    1.417   .     S
C166   C168    1.422   .     A
C166   C239    1.417   1_455 S
C169   Cl215   1.774   .     S
C169   C225    1.397   .     S
C170   Cl216   1.778   .     S
C170   C226    1.399   1_455 S
Cu171  O175    2.002   .     S
Cu171  O182    1.962   .     S
Cu171  Cu172   2.725   .     S
Cu171  O178    1.992   .     S
Cu171  N174    2.048   .     S
Cu171  O179    1.979   .     S
Cu172  N173    2.048   .     S
Cu172  O176    2.002   .     S
Cu172  O180    1.979   .     S
Cu172  O177    1.992   .     S
Cu172  O181    1.962   .     S
N173   N1062   1.280   1_554 S
N173   Cl1109  1.722   1_554 S
N174   N617    1.280   .     S
N174   Cl666   1.719   .     S
O183   C184    1.415   .     S
C184   H186    1.110   .     S
C184   H185    1.109   .     S
C184   C335    1.516   .     S
C187   H189    1.109   .     S
C187   H188    1.109   .     S
H190   C335    1.104   .     S
O191   C192    1.406   .     S
C192   H194    1.114   .     S
C192   H193    1.094   .     S
C195   H196    1.099   .     S
C195   H198    1.109   .     S
C195   H197    1.108   .     S
C195   C340    1.518   .     S
O199   C200    1.416   .     S
C200   H202    1.113   .     S
C200   H201    1.111   .     S
C200   C1091   1.515   1_554 S
C203   H204    1.110   .     S
C203   H205    1.109   .     S
C203   C644    1.515   .     S
C203   H650    1.107   .     S
H206   C1091   1.107   1_554 S
O207   C208    1.419   .     S
C208   H210    1.112   .     S
C208   H209    1.116   .     S
C208   C655    1.515   .     S
C211   H213    1.110   .     S
C211   H214    1.109   .     S
C211   C1096   1.515   1_554 S
C211   H1100   1.104   1_554 S
H212   C655    1.104   .     S
Cl219  C301    1.766   .     S
Cl221  N617    1.722   .     S
Cl222  N1062   1.719   1_554 S
C223   O249    1.300   .     A
C223   O251    1.306   .     A
C223   C227    1.440   .     S
C224   O252    1.305   .     A
C224   C228    1.440   .     S
C224   O250    1.301   .     A
C225   Cl291   1.773   .     S
C225   C242    1.413   .     A
C226   Cl292   1.772   .     S
C226   C241    1.420   .     A
C226   C170    1.399   1_655 S
C228   C375    1.354   .     S
C228   Cl442   1.768   .     S
C229   C234    1.465   .     S
C229   O253    1.306   .     A
C229   O255    1.310   .     A
C230   O256    1.306   .     A
C230   C233    1.461   .     S
C230   O254    1.307   .     A
C231   C233    1.398   .     A
C231   O257    1.384   .     S
C231   C241    1.419   .     A
C232   O265    1.391   .     S
C232   C234    1.409   .     A
C232   C242    1.410   .     A
C233   C235    1.393   .     A
C234   C236    1.400   .     A
C235   C237    1.412   .     A
C235   O273    1.382   .     S
C236   C238    1.413   .     A
C236   O281    1.383   .     S
C237   C243    1.416   .     A
C237   C239    1.425   .     A
C238   C244    1.416   .     A
C238   C240    1.420   .     A
C239   C241    1.426   .     A
C239   C166    1.417   1_655 S
C240   C242    1.422   .     A
C243   Cl289   1.774   .     S
C243   C151    1.397   1_655 S
C244   Cl290   1.778   .     S
Cu245  O249    2.002   .     S
Cu245  O256    1.962   .     S
Cu245  Cu246   2.725   .     S
Cu245  O252    1.992   .     S
Cu245  N248    2.048   .     S
Cu245  O253    1.979   .     S
Cu246  N247    2.048   .     S
Cu246  O250    2.002   .     S
Cu246  O254    1.979   .     S
Cu246  O251    1.992   .     S
Cu246  O255    1.962   .     S
N247   N1136   1.280   1_554 S
N247   Cl1183  1.722   1_554 S
N248   N691    1.280   .     S
N248   Cl740   1.719   .     S
O257   C258    1.415   .     S
C258   H260    1.110   .     S
C258   H259    1.109   .     S
C258   C409    1.516   .     S
C261   H263    1.109   .     S
C261   H262    1.109   .     S
H264   C409    1.104   .     S
O265   C266    1.406   .     S
C266   H268    1.114   .     S
C266   H267    1.094   .     S
C269   H270    1.099   .     S
C269   H272    1.109   .     S
C269   H271    1.108   .     S
C269   C414    1.518   .     S
O273   C274    1.416   .     S
C274   H276    1.113   .     S
C274   H275    1.111   .     S
C274   C1165   1.515   1_554 S
C277   H278    1.110   .     S
C277   H279    1.109   .     S
C277   C718    1.515   .     S
C277   H724    1.107   .     S
H280   C1165   1.107   1_554 S
O281   C282    1.419   .     S
C282   H284    1.112   .     S
C282   H283    1.116   .     S
C282   C729    1.515   .     S
C285   H287    1.110   .     S
C285   H288    1.109   .     S
C285   C1170   1.515   1_554 S
C285   H1174   1.104   1_554 S
H286   C729    1.104   .     S
Cl293  C375    1.766   .     S
Cl295  N691    1.722   .     S
Cl296  N1136   1.719   1_554 S
C297   O323    1.300   .     A
C297   O325    1.306   .     A
C297   C301    1.440   .     S
C298   O326    1.305   .     A
C298   C302    1.440   .     S
C298   O324    1.301   .     A
C299   Cl365   1.773   .     S
C299   C316    1.413   .     A
C299   C391    1.397   1_455 S
C300   Cl366   1.772   .     S
C300   C315    1.420   .     A
C300   C392    1.399   .     S
C302   C5      1.354   1_565 S
C302   Cl72    1.768   1_565 S
C303   C308    1.465   .     S
C303   O327    1.306   .     A
C303   O329    1.310   .     A
C304   O330    1.306   .     A
C304   C307    1.461   .     S
C304   O328    1.307   .     A
C305   C307    1.398   .     A
C305   O331    1.384   .     S
C305   C315    1.419   .     A
C306   O339    1.391   .     S
C306   C308    1.409   .     A
C306   C316    1.410   .     A
C307   C309    1.393   .     A
C308   C310    1.400   .     A
C309   C311    1.412   .     A
C309   O347    1.382   .     S
C310   C312    1.413   .     A
C310   O355    1.383   .     S
C311   C317    1.416   .     A
C311   C313    1.425   .     A
C312   C318    1.416   .     A
C312   C314    1.420   .     A
C313   C315    1.426   .     A
C313   C388    1.417   .     S
C314   C316    1.422   .     A
C314   C387    1.417   1_455 S
C317   Cl363   1.774   .     S
C317   C373    1.397   .     S
C318   Cl364   1.778   .     S
C318   C374    1.399   1_455 S
Cu319  O323    2.002   .     S
Cu319  O330    1.962   .     S
Cu319  Cu320   2.725   .     S
Cu319  O326    1.992   .     S
Cu319  N322    2.048   .     S
Cu319  O327    1.979   .     S
Cu320  N321    2.048   .     S
Cu320  O324    2.002   .     S
Cu320  O328    1.979   .     S
Cu320  O325    1.992   .     S
Cu320  O329    1.962   .     S
N321   N1210   1.280   1_554 S
N321   Cl1257  1.722   1_554 S
N322   N765    1.280   .     S
N322   Cl814   1.719   .     S
O331   C332    1.415   .     S
C332   H334    1.110   .     S
C332   H333    1.109   .     S
C332   C39     1.516   1_565 S
C335   H337    1.109   .     S
C335   H336    1.109   .     S
H338   C39     1.104   1_565 S
O339   C340    1.406   .     S
C340   H342    1.114   .     S
C340   H341    1.094   .     S
C343   H344    1.099   .     S
C343   H346    1.109   .     S
C343   H345    1.108   .     S
C343   C44     1.518   1_565 S
O347   C348    1.416   .     S
C348   H350    1.113   .     S
C348   H349    1.111   .     S
C348   C1239   1.515   1_554 S
C351   H352    1.110   .     S
C351   H353    1.109   .     S
C351   C792    1.515   .     S
C351   H798    1.107   .     S
H354   C1239   1.107   1_554 S
O355   C356    1.419   .     S
C356   H358    1.112   .     S
C356   H357    1.116   .     S
C356   C803    1.515   .     S
C359   H361    1.110   .     S
C359   H362    1.109   .     S
C359   C1244   1.515   1_554 S
C359   H1248   1.104   1_554 S
H360   C803    1.104   .     S
Cl367  C5      1.766   1_565 S
Cl369  N765    1.722   .     S
Cl370  N1210   1.719   1_554 S
C371   O397    1.300   .     A
C371   O399    1.306   .     A
C371   C375    1.440   .     S
C372   O400    1.305   .     A
C372   C376    1.440   .     S
C372   O398    1.301   .     A
C373   Cl439   1.773   .     S
C373   C390    1.413   .     A
C374   Cl440   1.772   .     S
C374   C389    1.420   .     A
C374   C318    1.399   1_655 S
C376   C79     1.354   1_565 S
C376   Cl146   1.768   1_565 S
C377   C382    1.465   .     S
C377   O401    1.306   .     A
C377   O403    1.310   .     A
C378   O404    1.306   .     A
C378   C381    1.461   .     S
C378   O402    1.307   .     A
C379   C381    1.398   .     A
C379   O405    1.384   .     S
C379   C389    1.419   .     A
C380   O413    1.391   .     S
C380   C382    1.409   .     A
C380   C390    1.410   .     A
C381   C383    1.393   .     A
C382   C384    1.400   .     A
C383   C385    1.412   .     A
C383   O421    1.382   .     S
C384   C386    1.413   .     A
C384   O429    1.383   .     S
C385   C391    1.416   .     A
C385   C387    1.425   .     A
C386   C392    1.416   .     A
C386   C388    1.420   .     A
C387   C389    1.426   .     A
C387   C314    1.417   1_655 S
C388   C390    1.422   .     A
C391   Cl437   1.774   .     S
C391   C299    1.397   1_655 S
C392   Cl438   1.778   .     S
Cu393  O397    2.002   .     S
Cu393  O404    1.962   .     S
Cu393  Cu394   2.725   .     S
Cu393  O400    1.992   .     S
Cu393  N396    2.048   .     S
Cu393  O401    1.979   .     S
Cu394  N395    2.048   .     S
Cu394  O398    2.002   .     S
Cu394  O402    1.979   .     S
Cu394  O399    1.992   .     S
Cu394  O403    1.962   .     S
N395   N1284   1.280   1_554 S
N395   Cl1331  1.722   1_554 S
N396   N839    1.280   .     S
N396   Cl888   1.719   .     S
O405   C406    1.415   .     S
C406   H408    1.110   .     S
C406   H407    1.109   .     S
C406   C113    1.516   1_565 S
C409   H411    1.109   .     S
C409   H410    1.109   .     S
H412   C113    1.104   1_565 S
O413   C414    1.406   .     S
C414   H416    1.114   .     S
C414   H415    1.094   .     S
C417   H418    1.099   .     S
C417   H420    1.109   .     S
C417   H419    1.108   .     S
C417   C118    1.518   1_565 S
O421   C422    1.416   .     S
C422   H424    1.113   .     S
C422   H423    1.111   .     S
C422   C1313   1.515   1_554 S
C425   H426    1.110   .     S
C425   H427    1.109   .     S
C425   C866    1.515   .     S
C425   H872    1.107   .     S
H428   C1313   1.107   1_554 S
O429   C430    1.419   .     S
C430   H432    1.112   .     S
C430   H431    1.116   .     S
C430   C877    1.515   .     S
C433   H435    1.110   .     S
C433   H436    1.109   .     S
C433   C1318   1.515   1_554 S
C433   H1322   1.104   1_554 S
H434   C877    1.104   .     S
Cl441  C79     1.766   1_565 S
Cl443  N839    1.722   .     S
Cl444  N1284   1.719   1_554 S
C445   O471    1.300   .     A
C445   O473    1.306   .     A
C445   C449    1.440   .     S
C446   O474    1.305   .     A
C446   C450    1.440   .     S
C446   O472    1.301   .     A
C447   Cl513   1.773   .     S
C447   C464    1.413   .     A
C447   C539    1.397   1_455 S
C448   Cl514   1.772   .     S
C448   C463    1.420   .     A
C448   C540    1.399   .     S
C449   C746    1.354   1_545 S
C449   Cl811   1.766   1_545 S
C450   C597    1.354   .     S
C450   Cl664   1.768   .     S
C451   C456    1.465   .     S
C451   O475    1.306   .     A
C451   O477    1.310   .     A
C452   O478    1.306   .     A
C452   C455    1.461   .     S
C452   O476    1.307   .     A
C453   C455    1.398   .     A
C453   O479    1.384   .     S
C453   C463    1.419   .     A
C454   O487    1.391   .     S
C454   C456    1.409   .     A
C454   C464    1.410   .     A
C455   C457    1.393   .     A
C456   C458    1.400   .     A
C457   C459    1.412   .     A
C457   O495    1.382   .     S
C458   C460    1.413   .     A
C458   O503    1.383   .     S
C459   C465    1.416   .     A
C459   C461    1.425   .     A
C460   C466    1.416   .     A
C460   C462    1.420   .     A
C461   C463    1.426   .     A
C461   C536    1.417   .     S
C462   C464    1.422   .     A
C462   C535    1.417   1_455 S
C465   Cl511   1.774   .     S
C465   C521    1.397   .     S
C466   Cl512   1.778   .     S
C466   C522    1.399   1_455 S
Cu467  O471    2.002   .     S
Cu467  O478    1.962   .     S
Cu467  Cu468   2.725   .     S
Cu467  O474    1.992   .     S
Cu467  N470    2.048   .     S
Cu467  O475    1.979   .     S
Cu468  N469    2.048   .     S
Cu468  O472    2.002   .     S
Cu468  O476    1.979   .     S
Cu468  O473    1.992   .     S
Cu468  O477    1.962   .     S
N470   N913    1.280   .     S
N470   Cl962   1.719   .     S
O479   C480    1.415   .     S
C480   H482    1.110   .     S
C480   H481    1.109   .     S
C480   C631    1.516   .     S
C483   H485    1.109   .     S
C483   H484    1.109   .     S
C483   C776    1.516   1_545 S
C483   H782    1.104   1_545 S
H486   C631    1.104   .     S
O487   C488    1.406   .     S
C488   H490    1.114   .     S
C488   H489    1.094   .     S
C488   C787    1.518   1_545 S
C491   H492    1.099   .     S
C491   H494    1.109   .     S
C491   H493    1.108   .     S
C491   C636    1.518   .     S
O495   C496    1.416   .     S
C496   H498    1.113   .     S
C496   H497    1.111   .     S
C499   H500    1.110   .     S
C499   H501    1.109   .     S
C499   C940    1.515   .     S
C499   H946    1.107   .     S
O503   C504    1.419   .     S
C504   H506    1.112   .     S
C504   H505    1.116   .     S
C504   C951    1.515   .     S
C507   H509    1.110   .     S
C507   H510    1.109   .     S
H508   C951    1.104   .     S
Cl515  C597    1.766   .     S
Cl516  C746    1.768   1_545 S
Cl517  N913    1.722   .     S
C519   O545    1.300   .     A
C519   O547    1.306   .     A
C519   C523    1.440   .     S
C520   O548    1.305   .     A
C520   C524    1.440   .     S
C520   O546    1.301   .     A
C521   Cl587   1.773   .     S
C521   C538    1.413   .     A
C522   Cl588   1.772   .     S
C522   C537    1.420   .     A
C522   C466    1.399   1_655 S
C523   C820    1.354   1_545 S
C523   Cl885   1.766   1_545 S
C524   C671    1.354   .     S
C524   Cl738   1.768   .     S
C525   C530    1.465   .     S
C525   O549    1.306   .     A
C525   O551    1.310   .     A
C526   O552    1.306   .     A
C526   C529    1.461   .     S
C526   O550    1.307   .     A
C527   C529    1.398   .     A
C527   O553    1.384   .     S
C527   C537    1.419   .     A
C528   O561    1.391   .     S
C528   C530    1.409   .     A
C528   C538    1.410   .     A
C529   C531    1.393   .     A
C530   C532    1.400   .     A
C531   C533    1.412   .     A
C531   O569    1.382   .     S
C532   C534    1.413   .     A
C532   O577    1.383   .     S
C533   C539    1.416   .     A
C533   C535    1.425   .     A
C534   C540    1.416   .     A
C534   C536    1.420   .     A
C535   C537    1.426   .     A
C535   C462    1.417   1_655 S
C536   C538    1.422   .     A
C539   Cl585   1.774   .     S
C539   C447    1.397   1_655 S
C540   Cl586   1.778   .     S
Cu541  O545    2.002   .     S
Cu541  O552    1.962   .     S
Cu541  Cu542   2.725   .     S
Cu541  O548    1.992   .     S
Cu541  N544    2.048   .     S
Cu541  O549    1.979   .     S
Cu542  N543    2.048   .     S
Cu542  O546    2.002   .     S
Cu542  O550    1.979   .     S
Cu542  O547    1.992   .     S
Cu542  O551    1.962   .     S
N544   N987    1.280   .     S
N544   Cl1036  1.719   .     S
O553   C554    1.415   .     S
C554   H556    1.110   .     S
C554   H555    1.109   .     S
C554   C705    1.516   .     S
C557   H559    1.109   .     S
C557   H558    1.109   .     S
C557   C850    1.516   1_545 S
C557   H856    1.104   1_545 S
H560   C705    1.104   .     S
O561   C562    1.406   .     S
C562   H564    1.114   .     S
C562   H563    1.094   .     S
C562   C861    1.518   1_545 S
C565   H566    1.099   .     S
C565   H568    1.109   .     S
C565   H567    1.108   .     S
C565   C710    1.518   .     S
O569   C570    1.416   .     S
C570   H572    1.113   .     S
C570   H571    1.111   .     S
C573   H574    1.110   .     S
C573   H575    1.109   .     S
C573   C1014   1.515   .     S
C573   H1020   1.107   .     S
O577   C578    1.419   .     S
C578   H580    1.112   .     S
C578   H579    1.116   .     S
C578   C1025   1.515   .     S
C581   H583    1.110   .     S
C581   H584    1.109   .     S
H582   C1025   1.104   .     S
Cl589  C671    1.766   .     S
Cl590  C820    1.768   1_545 S
Cl591  N987    1.722   .     S
C593   O619    1.300   .     A
C593   O621    1.306   .     A
C593   C597    1.440   .     S
C594   O622    1.305   .     A
C594   C598    1.440   .     S
C594   O620    1.301   .     A
C595   Cl661   1.773   .     S
C595   C612    1.413   .     A
C595   C687    1.397   1_455 S
C596   Cl662   1.772   .     S
C596   C611    1.420   .     A
C596   C688    1.399   .     S
C598   C745    1.354   .     S
C598   Cl812   1.768   .     S
C599   C604    1.465   .     S
C599   O623    1.306   .     A
C599   O625    1.310   .     A
C600   O626    1.306   .     A
C600   C603    1.461   .     S
C600   O624    1.307   .     A
C601   C603    1.398   .     A
C601   O627    1.384   .     S
C601   C611    1.419   .     A
C602   O635    1.391   .     S
C602   C604    1.409   .     A
C602   C612    1.410   .     A
C603   C605    1.393   .     A
C604   C606    1.400   .     A
C605   C607    1.412   .     A
C605   O643    1.382   .     S
C606   C608    1.413   .     A
C606   O651    1.383   .     S
C607   C613    1.416   .     A
C607   C609    1.425   .     A
C608   C614    1.416   .     A
C608   C610    1.420   .     A
C609   C611    1.426   .     A
C609   C684    1.417   .     S
C610   C612    1.422   .     A
C610   C683    1.417   1_455 S
C613   Cl659   1.774   .     S
C613   C669    1.397   .     S
C614   Cl660   1.778   .     S
C614   C670    1.399   1_455 S
Cu615  O619    2.002   .     S
Cu615  O626    1.962   .     S
Cu615  Cu616   2.725   .     S
Cu615  O622    1.992   .     S
Cu615  N618    2.048   .     S
Cu615  O623    1.979   .     S
Cu616  N617    2.048   .     S
Cu616  O620    2.002   .     S
Cu616  O624    1.979   .     S
Cu616  O621    1.992   .     S
Cu616  O625    1.962   .     S
N618   N1061   1.280   .     S
N618   Cl1110  1.719   .     S
O627   C628    1.415   .     S
C628   H630    1.110   .     S
C628   H629    1.109   .     S
C628   C779    1.516   .     S
C631   H633    1.109   .     S
C631   H632    1.109   .     S
H634   C779    1.104   .     S
O635   C636    1.406   .     S
C636   H638    1.114   .     S
C636   H637    1.094   .     S
C639   H640    1.099   .     S
C639   H642    1.109   .     S
C639   H641    1.108   .     S
C639   C784    1.518   .     S
O643   C644    1.416   .     S
C644   H646    1.113   .     S
C644   H645    1.111   .     S
C647   H648    1.110   .     S
C647   H649    1.109   .     S
C647   C1088   1.515   .     S
C647   H1094   1.107   .     S
O651   C652    1.419   .     S
C652   H654    1.112   .     S
C652   H653    1.116   .     S
C652   C1099   1.515   .     S
C655   H657    1.110   .     S
C655   H658    1.109   .     S
H656   C1099   1.104   .     S
Cl663  C745    1.766   .     S
Cl665  N1061   1.722   .     S
C667   O693    1.300   .     A
C667   O695    1.306   .     A
C667   C671    1.440   .     S
C668   O696    1.305   .     A
C668   C672    1.440   .     S
C668   O694    1.301   .     A
C669   Cl735   1.773   .     S
C669   C686    1.413   .     A
C670   Cl736   1.772   .     S
C670   C685    1.420   .     A
C670   C614    1.399   1_655 S
C672   C819    1.354   .     S
C672   Cl886   1.768   .     S
C673   C678    1.465   .     S
C673   O697    1.306   .     A
C673   O699    1.310   .     A
C674   O700    1.306   .     A
C674   C677    1.461   .     S
C674   O698    1.307   .     A
C675   C677    1.398   .     A
C675   O701    1.384   .     S
C675   C685    1.419   .     A
C676   O709    1.391   .     S
C676   C678    1.409   .     A
C676   C686    1.410   .     A
C677   C679    1.393   .     A
C678   C680    1.400   .     A
C679   C681    1.412   .     A
C679   O717    1.382   .     S
C680   C682    1.413   .     A
C680   O725    1.383   .     S
C681   C687    1.416   .     A
C681   C683    1.425   .     A
C682   C688    1.416   .     A
C682   C684    1.420   .     A
C683   C685    1.426   .     A
C683   C610    1.417   1_655 S
C684   C686    1.422   .     A
C687   Cl733   1.774   .     S
C687   C595    1.397   1_655 S
C688   Cl734   1.778   .     S
Cu689  O693    2.002   .     S
Cu689  O700    1.962   .     S
Cu689  Cu690   2.725   .     S
Cu689  O696    1.992   .     S
Cu689  N692    2.048   .     S
Cu689  O697    1.979   .     S
Cu690  N691    2.048   .     S
Cu690  O694    2.002   .     S
Cu690  O698    1.979   .     S
Cu690  O695    1.992   .     S
Cu690  O699    1.962   .     S
N692   N1135   1.280   .     S
N692   Cl1184  1.719   .     S
O701   C702    1.415   .     S
C702   H704    1.110   .     S
C702   H703    1.109   .     S
C702   C853    1.516   .     S
C705   H707    1.109   .     S
C705   H706    1.109   .     S
H708   C853    1.104   .     S
O709   C710    1.406   .     S
C710   H712    1.114   .     S
C710   H711    1.094   .     S
C713   H714    1.099   .     S
C713   H716    1.109   .     S
C713   H715    1.108   .     S
C713   C858    1.518   .     S
O717   C718    1.416   .     S
C718   H720    1.113   .     S
C718   H719    1.111   .     S
C721   H722    1.110   .     S
C721   H723    1.109   .     S
C721   C1162   1.515   .     S
C721   H1168   1.107   .     S
O725   C726    1.419   .     S
C726   H728    1.112   .     S
C726   H727    1.116   .     S
C726   C1173   1.515   .     S
C729   H731    1.110   .     S
C729   H732    1.109   .     S
H730   C1173   1.104   .     S
Cl737  C819    1.766   .     S
Cl739  N1135   1.722   .     S
C741   O767    1.300   .     A
C741   O769    1.306   .     A
C741   C745    1.440   .     S
C742   O770    1.305   .     A
C742   C746    1.440   .     S
C742   O768    1.301   .     A
C743   Cl809   1.773   .     S
C743   C760    1.413   .     A
C743   C835    1.397   1_455 S
C744   Cl810   1.772   .     S
C744   C759    1.420   .     A
C744   C836    1.399   .     S
C746   C449    1.354   1_565 S
C746   Cl516   1.768   1_565 S
C747   C752    1.465   .     S
C747   O771    1.306   .     A
C747   O773    1.310   .     A
C748   O774    1.306   .     A
C748   C751    1.461   .     S
C748   O772    1.307   .     A
C749   C751    1.398   .     A
C749   O775    1.384   .     S
C749   C759    1.419   .     A
C750   O783    1.391   .     S
C750   C752    1.409   .     A
C750   C760    1.410   .     A
C751   C753    1.393   .     A
C752   C754    1.400   .     A
C753   C755    1.412   .     A
C753   O791    1.382   .     S
C754   C756    1.413   .     A
C754   O799    1.383   .     S
C755   C761    1.416   .     A
C755   C757    1.425   .     A
C756   C762    1.416   .     A
C756   C758    1.420   .     A
C757   C759    1.426   .     A
C757   C832    1.417   .     S
C758   C760    1.422   .     A
C758   C831    1.417   1_455 S
C761   Cl807   1.774   .     S
C761   C817    1.397   .     S
C762   Cl808   1.778   .     S
C762   C818    1.399   1_455 S
Cu763  O767    2.002   .     S
Cu763  O774    1.962   .     S
Cu763  Cu764   2.725   .     S
Cu763  O770    1.992   .     S
Cu763  N766    2.048   .     S
Cu763  O771    1.979   .     S
Cu764  N765    2.048   .     S
Cu764  O768    2.002   .     S
Cu764  O772    1.979   .     S
Cu764  O769    1.992   .     S
Cu764  O773    1.962   .     S
N766   N1209   1.280   .     S
N766   Cl1258  1.719   .     S
O775   C776    1.415   .     S
C776   H778    1.110   .     S
C776   H777    1.109   .     S
C776   C483    1.516   1_565 S
C779   H781    1.109   .     S
C779   H780    1.109   .     S
H782   C483    1.104   1_565 S
O783   C784    1.406   .     S
C784   H786    1.114   .     S
C784   H785    1.094   .     S
C787   H788    1.099   .     S
C787   H790    1.109   .     S
C787   H789    1.108   .     S
C787   C488    1.518   1_565 S
O791   C792    1.416   .     S
C792   H794    1.113   .     S
C792   H793    1.111   .     S
C795   H796    1.110   .     S
C795   H797    1.109   .     S
C795   C1236   1.515   .     S
C795   H1242   1.107   .     S
O799   C800    1.419   .     S
C800   H802    1.112   .     S
C800   H801    1.116   .     S
C800   C1247   1.515   .     S
C803   H805    1.110   .     S
C803   H806    1.109   .     S
H804   C1247   1.104   .     S
Cl811  C449    1.766   1_565 S
Cl813  N1209   1.722   .     S
C815   O841    1.300   .     A
C815   O843    1.306   .     A
C815   C819    1.440   .     S
C816   O844    1.305   .     A
C816   C820    1.440   .     S
C816   O842    1.301   .     A
C817   Cl883   1.773   .     S
C817   C834    1.413   .     A
C818   Cl884   1.772   .     S
C818   C833    1.420   .     A
C818   C762    1.399   1_655 S
C820   C523    1.354   1_565 S
C820   Cl590   1.768   1_565 S
C821   C826    1.465   .     S
C821   O845    1.306   .     A
C821   O847    1.310   .     A
C822   O848    1.306   .     A
C822   C825    1.461   .     S
C822   O846    1.307   .     A
C823   C825    1.398   .     A
C823   O849    1.384   .     S
C823   C833    1.419   .     A
C824   O857    1.391   .     S
C824   C826    1.409   .     A
C824   C834    1.410   .     A
C825   C827    1.393   .     A
C826   C828    1.400   .     A
C827   C829    1.412   .     A
C827   O865    1.382   .     S
C828   C830    1.413   .     A
C828   O873    1.383   .     S
C829   C835    1.416   .     A
C829   C831    1.425   .     A
C830   C836    1.416   .     A
C830   C832    1.420   .     A
C831   C833    1.426   .     A
C831   C758    1.417   1_655 S
C832   C834    1.422   .     A
C835   Cl881   1.774   .     S
C835   C743    1.397   1_655 S
C836   Cl882   1.778   .     S
Cu837  O841    2.002   .     S
Cu837  O848    1.962   .     S
Cu837  Cu838   2.725   .     S
Cu837  O844    1.992   .     S
Cu837  N840    2.048   .     S
Cu837  O845    1.979   .     S
Cu838  N839    2.048   .     S
Cu838  O842    2.002   .     S
Cu838  O846    1.979   .     S
Cu838  O843    1.992   .     S
Cu838  O847    1.962   .     S
N840   N1283   1.280   .     S
N840   Cl1332  1.719   .     S
O849   C850    1.415   .     S
C850   H852    1.110   .     S
C850   H851    1.109   .     S
C850   C557    1.516   1_565 S
C853   H855    1.109   .     S
C853   H854    1.109   .     S
H856   C557    1.104   1_565 S
O857   C858    1.406   .     S
C858   H860    1.114   .     S
C858   H859    1.094   .     S
C861   H862    1.099   .     S
C861   H864    1.109   .     S
C861   H863    1.108   .     S
C861   C562    1.518   1_565 S
O865   C866    1.416   .     S
C866   H868    1.113   .     S
C866   H867    1.111   .     S
C869   H870    1.110   .     S
C869   H871    1.109   .     S
C869   C1310   1.515   .     S
C869   H1316   1.107   .     S
O873   C874    1.419   .     S
C874   H876    1.112   .     S
C874   H875    1.116   .     S
C874   C1321   1.515   .     S
C877   H879    1.110   .     S
C877   H880    1.109   .     S
H878   C1321   1.104   .     S
Cl885  C523    1.766   1_565 S
Cl887  N1283   1.722   .     S
C889   O915    1.300   .     A
C889   O917    1.306   .     A
C889   C893    1.440   .     S
C890   O918    1.305   .     A
C890   C894    1.440   .     S
C890   O916    1.301   .     A
C891   Cl957   1.773   .     S
C891   C908    1.413   .     A
C891   C983    1.397   1_455 S
C892   Cl958   1.772   .     S
C892   C907    1.420   .     A
C892   C984    1.399   .     S
C893   C1190   1.354   1_545 S
C893   Cl1255  1.766   1_545 S
C894   C1041   1.354   .     S
C894   Cl1108  1.768   .     S
C895   C900    1.465   .     S
C895   O919    1.306   .     A
C895   O921    1.310   .     A
C896   O922    1.306   .     A
C896   C899    1.461   .     S
C896   O920    1.307   .     A
C897   C899    1.398   .     A
C897   O923    1.384   .     S
C897   C907    1.419   .     A
C898   O931    1.391   .     S
C898   C900    1.409   .     A
C898   C908    1.410   .     A
C899   C901    1.393   .     A
C900   C902    1.400   .     A
C901   C903    1.412   .     A
C901   O939    1.382   .     S
C902   C904    1.413   .     A
C902   O947    1.383   .     S
C903   C909    1.416   .     A
C903   C905    1.425   .     A
C904   C910    1.416   .     A
C904   C906    1.420   .     A
C905   C907    1.426   .     A
C905   C980    1.417   .     S
C906   C908    1.422   .     A
C906   C979    1.417   1_455 S
C909   Cl955   1.774   .     S
C909   C965    1.397   .     S
C910   Cl956   1.778   .     S
C910   C966    1.399   1_455 S
Cu911  O915    2.002   .     S
Cu911  O922    1.962   .     S
Cu911  Cu912   2.725   .     S
Cu911  O918    1.992   .     S
Cu911  N914    2.048   .     S
Cu911  O919    1.979   .     S
Cu912  N913    2.048   .     S
Cu912  O916    2.002   .     S
Cu912  O920    1.979   .     S
Cu912  O917    1.992   .     S
Cu912  O921    1.962   .     S
N914   N25     1.280   1_556 S
N914   Cl74    1.719   1_556 S
O923   C924    1.415   .     S
C924   H926    1.110   .     S
C924   H925    1.109   .     S
C924   C1075   1.516   .     S
C927   H929    1.109   .     S
C927   H928    1.109   .     S
C927   C1220   1.516   1_545 S
C927   H1226   1.104   1_545 S
H930   C1075   1.104   .     S
O931   C932    1.406   .     S
C932   H934    1.114   .     S
C932   H933    1.094   .     S
C932   C1231   1.518   1_545 S
C935   H936    1.099   .     S
C935   H938    1.109   .     S
C935   H937    1.108   .     S
C935   C1080   1.518   .     S
O939   C940    1.416   .     S
C940   H942    1.113   .     S
C940   H941    1.111   .     S
C943   H944    1.110   .     S
C943   H945    1.109   .     S
C943   C52     1.515   1_556 S
C943   H58     1.107   1_556 S
O947   C948    1.419   .     S
C948   H950    1.112   .     S
C948   H949    1.116   .     S
C948   C63     1.515   1_556 S
C951   H953    1.110   .     S
C951   H954    1.109   .     S
H952   C63     1.104   1_556 S
Cl959  C1041   1.766   .     S
Cl960  C1190   1.768   1_545 S
Cl961  N25     1.722   1_556 S
C963   O989    1.300   .     A
C963   O991    1.306   .     A
C963   C967    1.440   .     S
C964   O992    1.305   .     A
C964   C968    1.440   .     S
C964   O990    1.301   .     A
C965   Cl1031  1.773   .     S
C965   C982    1.413   .     A
C966   Cl1032  1.772   .     S
C966   C981    1.420   .     A
C966   C910    1.399   1_655 S
C967   C1264   1.354   1_545 S
C967   Cl1329  1.766   1_545 S
C968   C1115   1.354   .     S
C968   Cl1182  1.768   .     S
C969   C974    1.465   .     S
C969   O993    1.306   .     A
C969   O995    1.310   .     A
C970   O996    1.306   .     A
C970   C973    1.461   .     S
C970   O994    1.307   .     A
C971   C973    1.398   .     A
C971   O997    1.384   .     S
C971   C981    1.419   .     A
C972   O1005   1.391   .     S
C972   C974    1.409   .     A
C972   C982    1.410   .     A
C973   C975    1.393   .     A
C974   C976    1.400   .     A
C975   C977    1.412   .     A
C975   O1013   1.382   .     S
C976   C978    1.413   .     A
C976   O1021   1.383   .     S
C977   C983    1.416   .     A
C977   C979    1.425   .     A
C978   C984    1.416   .     A
C978   C980    1.420   .     A
C979   C981    1.426   .     A
C979   C906    1.417   1_655 S
C980   C982    1.422   .     A
C983   Cl1029  1.774   .     S
C983   C891    1.397   1_655 S
C984   Cl1030  1.778   .     S
Cu985  O989    2.002   .     S
Cu985  O996    1.962   .     S
Cu985  Cu986   2.725   .     S
Cu985  O992    1.992   .     S
Cu985  N988    2.048   .     S
Cu985  O993    1.979   .     S
Cu986  N987    2.048   .     S
Cu986  O990    2.002   .     S
Cu986  O994    1.979   .     S
Cu986  O991    1.992   .     S
Cu986  O995    1.962   .     S
N988   N99     1.280   1_556 S
N988   Cl148   1.719   1_556 S
O997   C998    1.415   .     S
C998   H1000   1.110   .     S
C998   H999    1.109   .     S
C998   C1149   1.516   .     S
C1001  H1003   1.109   .     S
C1001  H1002   1.109   .     S
C1001  C1294   1.516   1_545 S
C1001  H1300   1.104   1_545 S
H1004  C1149   1.104   .     S
O1005  C1006   1.406   .     S
C1006  H1008   1.114   .     S
C1006  H1007   1.094   .     S
C1006  C1305   1.518   1_545 S
C1009  H1010   1.099   .     S
C1009  H1012   1.109   .     S
C1009  H1011   1.108   .     S
C1009  C1154   1.518   .     S
O1013  C1014   1.416   .     S
C1014  H1016   1.113   .     S
C1014  H1015   1.111   .     S
C1017  H1018   1.110   .     S
C1017  H1019   1.109   .     S
C1017  C126    1.515   1_556 S
C1017  H132    1.107   1_556 S
O1021  C1022   1.419   .     S
C1022  H1024   1.112   .     S
C1022  H1023   1.116   .     S
C1022  C137    1.515   1_556 S
C1025  H1027   1.110   .     S
C1025  H1028   1.109   .     S
H1026  C137    1.104   1_556 S
Cl1033 C1115   1.766   .     S
Cl1034 C1264   1.768   1_545 S
Cl1035 N99     1.722   1_556 S
C1037  O1063   1.300   .     A
C1037  O1065   1.306   .     A
C1037  C1041   1.440   .     S
C1038  O1066   1.305   .     A
C1038  C1042   1.440   .     S
C1038  O1064   1.301   .     A
C1039  Cl1105  1.773   .     S
C1039  C1056   1.413   .     A
C1039  C1131   1.397   1_455 S
C1040  Cl1106  1.772   .     S
C1040  C1055   1.420   .     A
C1040  C1132   1.399   .     S
C1042  C1189   1.354   .     S
C1042  Cl1256  1.768   .     S
C1043  C1048   1.465   .     S
C1043  O1067   1.306   .     A
C1043  O1069   1.310   .     A
C1044  O1070   1.306   .     A
C1044  C1047   1.461   .     S
C1044  O1068   1.307   .     A
C1045  C1047   1.398   .     A
C1045  O1071   1.384   .     S
C1045  C1055   1.419   .     A
C1046  O1079   1.391   .     S
C1046  C1048   1.409   .     A
C1046  C1056   1.410   .     A
C1047  C1049   1.393   .     A
C1048  C1050   1.400   .     A
C1049  C1051   1.412   .     A
C1049  O1087   1.382   .     S
C1050  C1052   1.413   .     A
C1050  O1095   1.383   .     S
C1051  C1057   1.416   .     A
C1051  C1053   1.425   .     A
C1052  C1058   1.416   .     A
C1052  C1054   1.420   .     A
C1053  C1055   1.426   .     A
C1053  C1128   1.417   .     S
C1054  C1056   1.422   .     A
C1054  C1127   1.417   1_455 S
C1057  Cl1103  1.774   .     S
C1057  C1113   1.397   .     S
C1058  Cl1104  1.778   .     S
C1058  C1114   1.399   1_455 S
Cu1059 O1063   2.002   .     S
Cu1059 O1070   1.962   .     S
Cu1059 Cu1060  2.725   .     S
Cu1059 O1066   1.992   .     S
Cu1059 N1062   2.048   .     S
Cu1059 O1067   1.979   .     S
Cu1060 N1061   2.048   .     S
Cu1060 O1064   2.002   .     S
Cu1060 O1068   1.979   .     S
Cu1060 O1065   1.992   .     S
Cu1060 O1069   1.962   .     S
N1062  N173    1.280   1_556 S
N1062  Cl222   1.719   1_556 S
O1071  C1072   1.415   .     S
C1072  H1074   1.110   .     S
C1072  H1073   1.109   .     S
C1072  C1223   1.516   .     S
C1075  H1077   1.109   .     S
C1075  H1076   1.109   .     S
H1078  C1223   1.104   .     S
O1079  C1080   1.406   .     S
C1080  H1082   1.114   .     S
C1080  H1081   1.094   .     S
C1083  H1084   1.099   .     S
C1083  H1086   1.109   .     S
C1083  H1085   1.108   .     S
C1083  C1228   1.518   .     S
O1087  C1088   1.416   .     S
C1088  H1090   1.113   .     S
C1088  H1089   1.111   .     S
C1091  H1092   1.110   .     S
C1091  H1093   1.109   .     S
C1091  C200    1.515   1_556 S
C1091  H206    1.107   1_556 S
O1095  C1096   1.419   .     S
C1096  H1098   1.112   .     S
C1096  H1097   1.116   .     S
C1096  C211    1.515   1_556 S
C1099  H1101   1.110   .     S
C1099  H1102   1.109   .     S
H1100  C211    1.104   1_556 S
Cl1107 C1189   1.766   .     S
Cl1109 N173    1.722   1_556 S
C1111  O1137   1.300   .     A
C1111  O1139   1.306   .     A
C1111  C1115   1.440   .     S
C1112  O1140   1.305   .     A
C1112  C1116   1.440   .     S
C1112  O1138   1.301   .     A
C1113  Cl1179  1.773   .     S
C1113  C1130   1.413   .     A
C1114  Cl1180  1.772   .     S
C1114  C1129   1.420   .     A
C1114  C1058   1.399   1_655 S
C1116  C1263   1.354   .     S
C1116  Cl1330  1.768   .     S
C1117  C1122   1.465   .     S
C1117  O1141   1.306   .     A
C1117  O1143   1.310   .     A
C1118  O1144   1.306   .     A
C1118  C1121   1.461   .     S
C1118  O1142   1.307   .     A
C1119  C1121   1.398   .     A
C1119  O1145   1.384   .     S
C1119  C1129   1.419   .     A
C1120  O1153   1.391   .     S
C1120  C1122   1.409   .     A
C1120  C1130   1.410   .     A
C1121  C1123   1.393   .     A
C1122  C1124   1.400   .     A
C1123  C1125   1.412   .     A
C1123  O1161   1.382   .     S
C1124  C1126   1.413   .     A
C1124  O1169   1.383   .     S
C1125  C1131   1.416   .     A
C1125  C1127   1.425   .     A
C1126  C1132   1.416   .     A
C1126  C1128   1.420   .     A
C1127  C1129   1.426   .     A
C1127  C1054   1.417   1_655 S
C1128  C1130   1.422   .     A
C1131  Cl1177  1.774   .     S
C1131  C1039   1.397   1_655 S
C1132  Cl1178  1.778   .     S
Cu1133 O1137   2.002   .     S
Cu1133 O1144   1.962   .     S
Cu1133 Cu1134  2.725   .     S
Cu1133 O1140   1.992   .     S
Cu1133 N1136   2.048   .     S
Cu1133 O1141   1.979   .     S
Cu1134 N1135   2.048   .     S
Cu1134 O1138   2.002   .     S
Cu1134 O1142   1.979   .     S
Cu1134 O1139   1.992   .     S
Cu1134 O1143   1.962   .     S
N1136  N247    1.280   1_556 S
N1136  Cl296   1.719   1_556 S
O1145  C1146   1.415   .     S
C1146  H1148   1.110   .     S
C1146  H1147   1.109   .     S
C1146  C1297   1.516   .     S
C1149  H1151   1.109   .     S
C1149  H1150   1.109   .     S
H1152  C1297   1.104   .     S
O1153  C1154   1.406   .     S
C1154  H1156   1.114   .     S
C1154  H1155   1.094   .     S
C1157  H1158   1.099   .     S
C1157  H1160   1.109   .     S
C1157  H1159   1.108   .     S
C1157  C1302   1.518   .     S
O1161  C1162   1.416   .     S
C1162  H1164   1.113   .     S
C1162  H1163   1.111   .     S
C1165  H1166   1.110   .     S
C1165  H1167   1.109   .     S
C1165  C274    1.515   1_556 S
C1165  H280    1.107   1_556 S
O1169  C1170   1.419   .     S
C1170  H1172   1.112   .     S
C1170  H1171   1.116   .     S
C1170  C285    1.515   1_556 S
C1173  H1175   1.110   .     S
C1173  H1176   1.109   .     S
H1174  C285    1.104   1_556 S
Cl1181 C1263   1.766   .     S
Cl1183 N247    1.722   1_556 S
C1185  O1211   1.300   .     A
C1185  O1213   1.306   .     A
C1185  C1189   1.440   .     S
C1186  O1214   1.305   .     A
C1186  C1190   1.440   .     S
C1186  O1212   1.301   .     A
C1187  Cl1253  1.773   .     S
C1187  C1204   1.413   .     A
C1187  C1279   1.397   1_455 S
C1188  Cl1254  1.772   .     S
C1188  C1203   1.420   .     A
C1188  C1280   1.399   .     S
C1190  C893    1.354   1_565 S
C1190  Cl960   1.768   1_565 S
C1191  C1196   1.465   .     S
C1191  O1215   1.306   .     A
C1191  O1217   1.310   .     A
C1192  O1218   1.306   .     A
C1192  C1195   1.461   .     S
C1192  O1216   1.307   .     A
C1193  C1195   1.398   .     A
C1193  O1219   1.384   .     S
C1193  C1203   1.419   .     A
C1194  O1227   1.391   .     S
C1194  C1196   1.409   .     A
C1194  C1204   1.410   .     A
C1195  C1197   1.393   .     A
C1196  C1198   1.400   .     A
C1197  C1199   1.412   .     A
C1197  O1235   1.382   .     S
C1198  C1200   1.413   .     A
C1198  O1243   1.383   .     S
C1199  C1205   1.416   .     A
C1199  C1201   1.425   .     A
C1200  C1206   1.416   .     A
C1200  C1202   1.420   .     A
C1201  C1203   1.426   .     A
C1201  C1276   1.417   .     S
C1202  C1204   1.422   .     A
C1202  C1275   1.417   1_455 S
C1205  Cl1251  1.774   .     S
C1205  C1261   1.397   .     S
C1206  Cl1252  1.778   .     S
C1206  C1262   1.399   1_455 S
Cu1207 O1211   2.002   .     S
Cu1207 O1218   1.962   .     S
Cu1207 Cu1208  2.725   .     S
Cu1207 O1214   1.992   .     S
Cu1207 N1210   2.048   .     S
Cu1207 O1215   1.979   .     S
Cu1208 N1209   2.048   .     S
Cu1208 O1212   2.002   .     S
Cu1208 O1216   1.979   .     S
Cu1208 O1213   1.992   .     S
Cu1208 O1217   1.962   .     S
N1210  N321    1.280   1_556 S
N1210  Cl370   1.719   1_556 S
O1219  C1220   1.415   .     S
C1220  H1222   1.110   .     S
C1220  H1221   1.109   .     S
C1220  C927    1.516   1_565 S
C1223  H1225   1.109   .     S
C1223  H1224   1.109   .     S
H1226  C927    1.104   1_565 S
O1227  C1228   1.406   .     S
C1228  H1230   1.114   .     S
C1228  H1229   1.094   .     S
C1231  H1232   1.099   .     S
C1231  H1234   1.109   .     S
C1231  H1233   1.108   .     S
C1231  C932    1.518   1_565 S
O1235  C1236   1.416   .     S
C1236  H1238   1.113   .     S
C1236  H1237   1.111   .     S
C1239  H1240   1.110   .     S
C1239  H1241   1.109   .     S
C1239  C348    1.515   1_556 S
C1239  H354    1.107   1_556 S
O1243  C1244   1.419   .     S
C1244  H1246   1.112   .     S
C1244  H1245   1.116   .     S
C1244  C359    1.515   1_556 S
C1247  H1249   1.110   .     S
C1247  H1250   1.109   .     S
H1248  C359    1.104   1_556 S
Cl1255 C893    1.766   1_565 S
Cl1257 N321    1.722   1_556 S
C1259  O1285   1.300   .     A
C1259  O1287   1.306   .     A
C1259  C1263   1.440   .     S
C1260  O1288   1.305   .     A
C1260  C1264   1.440   .     S
C1260  O1286   1.301   .     A
C1261  Cl1327  1.773   .     S
C1261  C1278   1.413   .     A
C1262  Cl1328  1.772   .     S
C1262  C1277   1.420   .     A
C1262  C1206   1.399   1_655 S
C1264  C967    1.354   1_565 S
C1264  Cl1034  1.768   1_565 S
C1265  C1270   1.465   .     S
C1265  O1289   1.306   .     A
C1265  O1291   1.310   .     A
C1266  O1292   1.306   .     A
C1266  C1269   1.461   .     S
C1266  O1290   1.307   .     A
C1267  C1269   1.398   .     A
C1267  O1293   1.384   .     S
C1267  C1277   1.419   .     A
C1268  O1301   1.391   .     S
C1268  C1270   1.409   .     A
C1268  C1278   1.410   .     A
C1269  C1271   1.393   .     A
C1270  C1272   1.400   .     A
C1271  C1273   1.412   .     A
C1271  O1309   1.382   .     S
C1272  C1274   1.413   .     A
C1272  O1317   1.383   .     S
C1273  C1279   1.416   .     A
C1273  C1275   1.425   .     A
C1274  C1280   1.416   .     A
C1274  C1276   1.420   .     A
C1275  C1277   1.426   .     A
C1275  C1202   1.417   1_655 S
C1276  C1278   1.422   .     A
C1279  Cl1325  1.774   .     S
C1279  C1187   1.397   1_655 S
C1280  Cl1326  1.778   .     S
Cu1281 O1285   2.002   .     S
Cu1281 O1292   1.962   .     S
Cu1281 Cu1282  2.725   .     S
Cu1281 O1288   1.992   .     S
Cu1281 N1284   2.048   .     S
Cu1281 O1289   1.979   .     S
Cu1282 N1283   2.048   .     S
Cu1282 O1286   2.002   .     S
Cu1282 O1290   1.979   .     S
Cu1282 O1287   1.992   .     S
Cu1282 O1291   1.962   .     S
N1284  N395    1.280   1_556 S
N1284  Cl444   1.719   1_556 S
O1293  C1294   1.415   .     S
C1294  H1296   1.110   .     S
C1294  H1295   1.109   .     S
C1294  C1001   1.516   1_565 S
C1297  H1299   1.109   .     S
C1297  H1298   1.109   .     S
H1300  C1001   1.104   1_565 S
O1301  C1302   1.406   .     S
C1302  H1304   1.114   .     S
C1302  H1303   1.094   .     S
C1305  H1306   1.099   .     S
C1305  H1308   1.109   .     S
C1305  H1307   1.108   .     S
C1305  C1006   1.518   1_565 S
O1309  C1310   1.416   .     S
C1310  H1312   1.113   .     S
C1310  H1311   1.111   .     S
C1313  H1314   1.110   .     S
C1313  H1315   1.109   .     S
C1313  C422    1.515   1_556 S
C1313  H428    1.107   1_556 S
O1317  C1318   1.419   .     S
C1318  H1320   1.112   .     S
C1318  H1319   1.116   .     S
C1318  C433    1.515   1_556 S
C1321  H1323   1.110   .     S
C1321  H1324   1.109   .     S
H1322  C433    1.104   1_556 S
Cl1329 C967    1.766   1_565 S
Cl1331 N395    1.722   1_556 S
