data_str_m2_o1_o18_pcu_sym.157
_audit_creation_date              2020-01-03
_audit_creation_method            'Materials Studio'
_symmetry_space_group_name_H-M    'P1'
_symmetry_Int_Tables_number       1
_symmetry_cell_setting            triclinic
loop_
_symmetry_equiv_pos_as_xyz
  x,y,z
_cell_length_a                    28.7603
_cell_length_b                    32.5087
_cell_length_c                    30.8617
_cell_angle_alpha                 86.2547
_cell_angle_beta                  75.0133
_cell_angle_gamma                 89.0439
loop_
_atom_site_label
_atom_site_type_symbol
_atom_site_fract_x
_atom_site_fract_y
_atom_site_fract_z
_atom_site_U_iso_or_equiv
_atom_site_adp_type
_atom_site_occupancy
C1     C     0.00064   0.08757   0.24834   0.00000  Uiso   1.00
C2     C     0.33270   0.24576   0.25166   0.00000  Uiso   1.00
C3     C     0.19384   0.15217   0.04759   0.00000  Uiso   1.00
C4     C     0.13949   0.18116   0.45241   0.00000  Uiso   1.00
C5     C     0.24188   0.14726   0.02551   0.00000  Uiso   1.00
C6     C     0.09145   0.18607   0.47450   0.00000  Uiso   1.00
C7     C     0.29974   0.02209   0.23125   0.00000  Uiso   1.00
C8     C     0.03359   0.31125   0.26875   0.00000  Uiso   1.00
C9     C     0.29846   0.31267   0.23561   0.00000  Uiso   1.00
C10    C     0.03488   0.02066   0.26439   0.00000  Uiso   1.00
C11    C     0.33217   0.29040   0.25319   0.00000  Uiso   1.00
C12    C     0.00116   0.04294   0.24681   0.00000  Uiso   1.00
C13    C     0.18479   0.14146   0.27941   0.00000  Uiso   1.00
C14    C     0.14855   0.19187   0.22060   0.00000  Uiso   1.00
C15    C     0.13548   0.14082   0.28007   0.00000  Uiso   1.00
C16    C     0.19785   0.19252   0.21993   0.00000  Uiso   1.00
C17    C     0.30617   0.16688   0.33608   0.00000  Uiso   1.00
C18    C     0.02716   0.16645   0.16392   0.00000  Uiso   1.00
C19    C     0.29083   0.16511   0.38548   0.00000  Uiso   1.00
C20    C     0.04251   0.16822   0.11452   0.00000  Uiso   1.00
C21    C     0.30634   0.14823   0.45774   0.00000  Uiso   1.00
C22    C     0.02699   0.18511   0.04226   0.00000  Uiso   1.00
C23    C     0.32298   0.15456   0.41136   0.00000  Uiso   1.00
C24    C     0.01035   0.17878   0.08864   0.00000  Uiso   1.00
C25    C     0.24210   0.17126   0.40676   0.00000  Uiso   1.00
C26    C     0.09123   0.16207   0.09324   0.00000  Uiso   1.00
C27    C     0.22418   0.16533   0.45374   0.00000  Uiso   1.00
C28    C     0.10915   0.16801   0.04626   0.00000  Uiso   1.00
C29    C     0.25747   0.15361   0.47908   0.00000  Uiso   1.00
C30    C     0.07586   0.17972   0.02092   0.00000  Uiso   1.00
C31    C     0.17439   0.17005   0.47612   0.00000  Uiso   1.00
C32    C     0.15895   0.16328   0.02388   0.00000  Uiso   1.00
Cu33   Cu    0.04689   0.16667   0.25000   0.00000  Uiso   1.00
Cu34   Cu    0.28645   0.16666   0.25000   0.00000  Uiso   1.00
H35    H     0.26720   0.13844   0.04504   0.00000  Uiso   1.00
H36    H     0.06614   0.19490   0.45496   0.00000  Uiso   1.00
H37    H     0.11441   0.15306   0.11445   0.00000  Uiso   1.00
H38    H     0.21892   0.18028   0.38555   0.00000  Uiso   1.00
H39    H     0.30599   0.18317   0.10424   0.00000  Uiso   1.00
H40    H     0.02734   0.15017   0.39576   0.00000  Uiso   1.00
H41    H     0.33168   0.13844   0.47689   0.00000  Uiso   1.00
H42    H     0.00165   0.19489   0.02311   0.00000  Uiso   1.00
H43    H     0.18563   0.14695   0.08348   0.00000  Uiso   1.00
H44    H     0.14771   0.18638   0.41652   0.00000  Uiso   1.00
H45    H     0.27192   0.29681   0.22364   0.00000  Uiso   1.00
H46    H     0.06141   0.03652   0.27636   0.00000  Uiso   1.00
H47    H     0.19853   0.12150   0.30272   0.00000  Uiso   1.00
H48    H     0.13480   0.21184   0.19728   0.00000  Uiso   1.00
N49    N     0.11736   0.16668   0.24999   0.00000  Uiso   1.00
N50    N     0.21597   0.16666   0.25001   0.00000  Uiso   1.00
O51    O     0.03958   0.10655   0.25000   0.00000  Uiso   1.00
O52    O     0.29375   0.22678   0.25000   0.00000  Uiso   1.00
O53    O     0.29372   0.10654   0.25001   0.00000  Uiso   1.00
O54    O     0.03961   0.22679   0.25000   0.00000  Uiso   1.00
O55    O     0.01852   0.16668   0.31492   0.00000  Uiso   1.00
O56    O     0.31481   0.16666   0.18509   0.00000  Uiso   1.00
O57    O     0.27267   0.16667   0.31492   0.00000  Uiso   1.00
O58    O     0.06067   0.16667   0.18508   0.00000  Uiso   1.00
C59    C     0.26544   0.04370   0.20896   0.00000  Uiso   1.00
C60    C     0.21562   0.03935   0.22748   0.00000  Uiso   1.00
C61    C     0.18325   0.06093   0.20753   0.00000  Uiso   1.00
C62    C     0.20035   0.08704   0.16910   0.00000  Uiso   1.00
C63    C     0.24985   0.09121   0.15017   0.00000  Uiso   1.00
C64    C     0.28236   0.06941   0.16975   0.00000  Uiso   1.00
H65    H     0.20201   0.01995   0.25784   0.00000  Uiso   1.00
H66    H     0.14490   0.05783   0.22214   0.00000  Uiso   1.00
H67    H     0.17519   0.10408   0.15412   0.00000  Uiso   1.00
H68    H     0.26307   0.11149   0.12050   0.00000  Uiso   1.00
H69    H     0.32064   0.07309   0.15488   0.00000  Uiso   1.00
C70    C     0.06790   0.28964   0.29104   0.00000  Uiso   1.00
C71    C     0.05098   0.26392   0.33025   0.00000  Uiso   1.00
C72    C     0.08348   0.24212   0.34983   0.00000  Uiso   1.00
C73    C     0.13299   0.24629   0.33090   0.00000  Uiso   1.00
C74    C     0.15008   0.27241   0.29247   0.00000  Uiso   1.00
C75    C     0.11771   0.29398   0.27252   0.00000  Uiso   1.00
H76    H     0.01269   0.26024   0.34512   0.00000  Uiso   1.00
H77    H     0.07026   0.22184   0.37950   0.00000  Uiso   1.00
H78    H     0.15814   0.22925   0.34588   0.00000  Uiso   1.00
H79    H     0.18844   0.27550   0.27786   0.00000  Uiso   1.00
H80    H     0.13132   0.31338   0.24216   0.00000  Uiso   1.00
S81    S     0.10336   0.10475   0.32335   0.00000  Uiso   1.00
O82    O     0.12898   0.06410   0.31608   0.00000  Uiso   1.00
O83    O     0.10900   0.11914   0.36702   0.00000  Uiso   1.00
O84    O     0.04485   0.09556   0.32952   0.00000  Uiso   1.00
H85    H     0.03558   0.07502   0.35542   0.00000  Uiso   1.00
S86    S     0.22998   0.22859   0.17665   0.00000  Uiso   1.00
O87    O     0.22433   0.21420   0.13298   0.00000  Uiso   1.00
O88    O     0.20436   0.26923   0.18392   0.00000  Uiso   1.00
O89    O     0.28849   0.23777   0.17048   0.00000  Uiso   1.00
H90    H     0.29776   0.25831   0.14459   0.00000  Uiso   1.00
C91    C     0.33397   0.08757   0.24834   0.00000  Uiso   1.00
C92    C     0.66603   0.24576   0.25166   0.00000  Uiso   1.00
C93    C     0.52717   0.15217   0.04759   0.00000  Uiso   1.00
C94    C     0.47283   0.18116   0.45241   0.00000  Uiso   1.00
C95    C     0.57522   0.14726   0.02551   0.00000  Uiso   1.00
C96    C     0.42478   0.18607   0.47450   0.00000  Uiso   1.00
C97    C     0.63308   0.02209   0.23125   0.00000  Uiso   1.00
C98    C     0.36692   0.31125   0.26875   0.00000  Uiso   1.00
C99    C     0.63179   0.31267   0.23561   0.00000  Uiso   1.00
C100   C     0.36821   0.02066   0.26439   0.00000  Uiso   1.00
C101   C     0.66550   0.29040   0.25319   0.00000  Uiso   1.00
C102   C     0.33450   0.04294   0.24681   0.00000  Uiso   1.00
C103   C     0.51812   0.14146   0.27941   0.00000  Uiso   1.00
C104   C     0.48188   0.19187   0.22060   0.00000  Uiso   1.00
C105   C     0.46882   0.14082   0.28007   0.00000  Uiso   1.00
C106   C     0.53118   0.19252   0.21993   0.00000  Uiso   1.00
C107   C     0.63950   0.16688   0.33608   0.00000  Uiso   1.00
C108   C     0.36050   0.16645   0.16392   0.00000  Uiso   1.00
C109   C     0.62416   0.16511   0.38548   0.00000  Uiso   1.00
C110   C     0.37584   0.16822   0.11452   0.00000  Uiso   1.00
C111   C     0.63967   0.14823   0.45774   0.00000  Uiso   1.00
C112   C     0.36033   0.18511   0.04226   0.00000  Uiso   1.00
C113   C     0.65631   0.15456   0.41136   0.00000  Uiso   1.00
C114   C     0.34369   0.17878   0.08864   0.00000  Uiso   1.00
C115   C     0.57543   0.17126   0.40676   0.00000  Uiso   1.00
C116   C     0.42457   0.16207   0.09324   0.00000  Uiso   1.00
C117   C     0.55752   0.16533   0.45374   0.00000  Uiso   1.00
C118   C     0.44248   0.16801   0.04626   0.00000  Uiso   1.00
C119   C     0.59080   0.15361   0.47908   0.00000  Uiso   1.00
C120   C     0.40920   0.17972   0.02092   0.00000  Uiso   1.00
C121   C     0.50772   0.17005   0.47612   0.00000  Uiso   1.00
C122   C     0.49228   0.16328   0.02388   0.00000  Uiso   1.00
Cu123  Cu    0.38022   0.16667   0.25000   0.00000  Uiso   1.00
Cu124  Cu    0.61978   0.16666   0.25000   0.00000  Uiso   1.00
H125   H     0.60053   0.13844   0.04504   0.00000  Uiso   1.00
H126   H     0.39947   0.19490   0.45496   0.00000  Uiso   1.00
H127   H     0.44775   0.15306   0.11445   0.00000  Uiso   1.00
H128   H     0.55225   0.18028   0.38555   0.00000  Uiso   1.00
H129   H     0.63932   0.18317   0.10424   0.00000  Uiso   1.00
H130   H     0.36068   0.15017   0.39576   0.00000  Uiso   1.00
H131   H     0.66502   0.13844   0.47689   0.00000  Uiso   1.00
H132   H     0.33498   0.19489   0.02311   0.00000  Uiso   1.00
H133   H     0.51896   0.14695   0.08348   0.00000  Uiso   1.00
H134   H     0.48104   0.18638   0.41652   0.00000  Uiso   1.00
H135   H     0.60525   0.29681   0.22364   0.00000  Uiso   1.00
H136   H     0.39475   0.03652   0.27636   0.00000  Uiso   1.00
H137   H     0.53186   0.12150   0.30272   0.00000  Uiso   1.00
H138   H     0.46814   0.21184   0.19728   0.00000  Uiso   1.00
N139   N     0.45069   0.16668   0.24999   0.00000  Uiso   1.00
N140   N     0.54931   0.16666   0.25001   0.00000  Uiso   1.00
O141   O     0.37291   0.10655   0.25000   0.00000  Uiso   1.00
O142   O     0.62709   0.22678   0.25000   0.00000  Uiso   1.00
O143   O     0.62706   0.10654   0.25001   0.00000  Uiso   1.00
O144   O     0.37294   0.22679   0.25000   0.00000  Uiso   1.00
O145   O     0.35186   0.16668   0.31492   0.00000  Uiso   1.00
O146   O     0.64814   0.16666   0.18509   0.00000  Uiso   1.00
O147   O     0.60600   0.16667   0.31492   0.00000  Uiso   1.00
O148   O     0.39400   0.16667   0.18508   0.00000  Uiso   1.00
C149   C     0.59877   0.04370   0.20896   0.00000  Uiso   1.00
C150   C     0.54895   0.03935   0.22748   0.00000  Uiso   1.00
C151   C     0.51658   0.06093   0.20753   0.00000  Uiso   1.00
C152   C     0.53368   0.08704   0.16910   0.00000  Uiso   1.00
C153   C     0.58318   0.09121   0.15017   0.00000  Uiso   1.00
C154   C     0.61569   0.06941   0.16975   0.00000  Uiso   1.00
H155   H     0.53534   0.01995   0.25784   0.00000  Uiso   1.00
H156   H     0.47823   0.05783   0.22214   0.00000  Uiso   1.00
H157   H     0.50852   0.10408   0.15412   0.00000  Uiso   1.00
H158   H     0.59641   0.11149   0.12050   0.00000  Uiso   1.00
H159   H     0.65398   0.07309   0.15488   0.00000  Uiso   1.00
C160   C     0.40123   0.28964   0.29104   0.00000  Uiso   1.00
C161   C     0.38431   0.26392   0.33025   0.00000  Uiso   1.00
C162   C     0.41682   0.24212   0.34983   0.00000  Uiso   1.00
C163   C     0.46632   0.24629   0.33090   0.00000  Uiso   1.00
C164   C     0.48342   0.27241   0.29247   0.00000  Uiso   1.00
C165   C     0.45105   0.29398   0.27252   0.00000  Uiso   1.00
H166   H     0.34602   0.26024   0.34512   0.00000  Uiso   1.00
H167   H     0.40360   0.22184   0.37950   0.00000  Uiso   1.00
H168   H     0.49148   0.22925   0.34588   0.00000  Uiso   1.00
H169   H     0.52177   0.27550   0.27786   0.00000  Uiso   1.00
H170   H     0.46466   0.31338   0.24216   0.00000  Uiso   1.00
S171   S     0.43669   0.10475   0.32335   0.00000  Uiso   1.00
O172   O     0.46231   0.06410   0.31608   0.00000  Uiso   1.00
O173   O     0.44234   0.11914   0.36702   0.00000  Uiso   1.00
O174   O     0.37818   0.09556   0.32952   0.00000  Uiso   1.00
H175   H     0.36891   0.07502   0.35542   0.00000  Uiso   1.00
S176   S     0.56331   0.22859   0.17665   0.00000  Uiso   1.00
O177   O     0.55766   0.21420   0.13298   0.00000  Uiso   1.00
O178   O     0.53769   0.26923   0.18392   0.00000  Uiso   1.00
O179   O     0.62182   0.23777   0.17048   0.00000  Uiso   1.00
H180   H     0.63109   0.25831   0.14459   0.00000  Uiso   1.00
C181   C     0.66730   0.08757   0.24834   0.00000  Uiso   1.00
C182   C     0.99936   0.24576   0.25166   0.00000  Uiso   1.00
C183   C     0.86051   0.15217   0.04759   0.00000  Uiso   1.00
C184   C     0.80616   0.18116   0.45241   0.00000  Uiso   1.00
C185   C     0.90855   0.14726   0.02551   0.00000  Uiso   1.00
C186   C     0.75812   0.18607   0.47450   0.00000  Uiso   1.00
C187   C     0.96641   0.02209   0.23125   0.00000  Uiso   1.00
C188   C     0.70026   0.31125   0.26875   0.00000  Uiso   1.00
C189   C     0.96512   0.31267   0.23561   0.00000  Uiso   1.00
C190   C     0.70154   0.02066   0.26439   0.00000  Uiso   1.00
C191   C     0.99884   0.29040   0.25319   0.00000  Uiso   1.00
C192   C     0.66783   0.04294   0.24681   0.00000  Uiso   1.00
C193   C     0.85145   0.14146   0.27941   0.00000  Uiso   1.00
C194   C     0.81521   0.19187   0.22060   0.00000  Uiso   1.00
C195   C     0.80215   0.14082   0.28007   0.00000  Uiso   1.00
C196   C     0.86452   0.19252   0.21993   0.00000  Uiso   1.00
C197   C     0.97284   0.16688   0.33608   0.00000  Uiso   1.00
C198   C     0.69383   0.16645   0.16392   0.00000  Uiso   1.00
C199   C     0.95749   0.16511   0.38548   0.00000  Uiso   1.00
C200   C     0.70918   0.16822   0.11452   0.00000  Uiso   1.00
C201   C     0.97301   0.14823   0.45774   0.00000  Uiso   1.00
C202   C     0.69366   0.18511   0.04226   0.00000  Uiso   1.00
C203   C     0.98965   0.15456   0.41136   0.00000  Uiso   1.00
C204   C     0.67702   0.17878   0.08864   0.00000  Uiso   1.00
C205   C     0.90877   0.17126   0.40676   0.00000  Uiso   1.00
C206   C     0.75790   0.16207   0.09324   0.00000  Uiso   1.00
C207   C     0.89085   0.16533   0.45374   0.00000  Uiso   1.00
C208   C     0.77582   0.16801   0.04626   0.00000  Uiso   1.00
C209   C     0.92414   0.15361   0.47908   0.00000  Uiso   1.00
C210   C     0.74253   0.17972   0.02092   0.00000  Uiso   1.00
C211   C     0.84105   0.17005   0.47612   0.00000  Uiso   1.00
C212   C     0.82561   0.16328   0.02388   0.00000  Uiso   1.00
Cu213  Cu    0.71355   0.16667   0.25000   0.00000  Uiso   1.00
Cu214  Cu    0.95311   0.16666   0.25000   0.00000  Uiso   1.00
H215   H     0.93386   0.13844   0.04504   0.00000  Uiso   1.00
H216   H     0.73280   0.19490   0.45496   0.00000  Uiso   1.00
H217   H     0.78108   0.15306   0.11445   0.00000  Uiso   1.00
H218   H     0.88559   0.18028   0.38555   0.00000  Uiso   1.00
H219   H     0.97266   0.18317   0.10424   0.00000  Uiso   1.00
H220   H     0.69401   0.15017   0.39576   0.00000  Uiso   1.00
H221   H     0.99835   0.13844   0.47689   0.00000  Uiso   1.00
H222   H     0.66832   0.19489   0.02311   0.00000  Uiso   1.00
H223   H     0.85229   0.14695   0.08348   0.00000  Uiso   1.00
H224   H     0.81437   0.18638   0.41652   0.00000  Uiso   1.00
H225   H     0.93859   0.29681   0.22364   0.00000  Uiso   1.00
H226   H     0.72808   0.03652   0.27636   0.00000  Uiso   1.00
H227   H     0.86520   0.12150   0.30272   0.00000  Uiso   1.00
H228   H     0.80147   0.21184   0.19728   0.00000  Uiso   1.00
N229   N     0.78403   0.16668   0.24999   0.00000  Uiso   1.00
N230   N     0.88264   0.16666   0.25001   0.00000  Uiso   1.00
O231   O     0.70625   0.10655   0.25000   0.00000  Uiso   1.00
O232   O     0.96042   0.22678   0.25000   0.00000  Uiso   1.00
O233   O     0.96039   0.10654   0.25001   0.00000  Uiso   1.00
O234   O     0.70628   0.22679   0.25000   0.00000  Uiso   1.00
O235   O     0.68519   0.16668   0.31492   0.00000  Uiso   1.00
O236   O     0.98148   0.16666   0.18509   0.00000  Uiso   1.00
O237   O     0.93933   0.16667   0.31492   0.00000  Uiso   1.00
O238   O     0.72733   0.16667   0.18508   0.00000  Uiso   1.00
C239   C     0.93210   0.04370   0.20896   0.00000  Uiso   1.00
C240   C     0.88229   0.03935   0.22748   0.00000  Uiso   1.00
C241   C     0.84992   0.06093   0.20753   0.00000  Uiso   1.00
C242   C     0.86701   0.08704   0.16910   0.00000  Uiso   1.00
C243   C     0.91652   0.09121   0.15017   0.00000  Uiso   1.00
C244   C     0.94902   0.06941   0.16975   0.00000  Uiso   1.00
H245   H     0.86868   0.01995   0.25784   0.00000  Uiso   1.00
H246   H     0.81156   0.05783   0.22214   0.00000  Uiso   1.00
H247   H     0.84186   0.10408   0.15412   0.00000  Uiso   1.00
H248   H     0.92974   0.11149   0.12050   0.00000  Uiso   1.00
H249   H     0.98731   0.07309   0.15488   0.00000  Uiso   1.00
C250   C     0.73457   0.28964   0.29104   0.00000  Uiso   1.00
C251   C     0.71765   0.26392   0.33025   0.00000  Uiso   1.00
C252   C     0.75015   0.24212   0.34983   0.00000  Uiso   1.00
C253   C     0.79965   0.24629   0.33090   0.00000  Uiso   1.00
C254   C     0.81675   0.27241   0.29247   0.00000  Uiso   1.00
C255   C     0.78438   0.29398   0.27252   0.00000  Uiso   1.00
H256   H     0.67936   0.26024   0.34512   0.00000  Uiso   1.00
H257   H     0.73693   0.22184   0.37950   0.00000  Uiso   1.00
H258   H     0.82481   0.22925   0.34588   0.00000  Uiso   1.00
H259   H     0.85510   0.27550   0.27786   0.00000  Uiso   1.00
H260   H     0.79799   0.31338   0.24216   0.00000  Uiso   1.00
S261   S     0.77002   0.10475   0.32335   0.00000  Uiso   1.00
O262   O     0.79564   0.06410   0.31608   0.00000  Uiso   1.00
O263   O     0.77567   0.11914   0.36702   0.00000  Uiso   1.00
O264   O     0.71151   0.09556   0.32952   0.00000  Uiso   1.00
H265   H     0.70224   0.07502   0.35542   0.00000  Uiso   1.00
S266   S     0.89664   0.22859   0.17665   0.00000  Uiso   1.00
O267   O     0.89100   0.21420   0.13298   0.00000  Uiso   1.00
O268   O     0.87102   0.26923   0.18392   0.00000  Uiso   1.00
O269   O     0.95515   0.23777   0.17048   0.00000  Uiso   1.00
H270   H     0.96442   0.25831   0.14459   0.00000  Uiso   1.00
C271   C     0.00064   0.42090   0.24834   0.00000  Uiso   1.00
C272   C     0.33270   0.57910   0.25166   0.00000  Uiso   1.00
C273   C     0.19384   0.48550   0.04759   0.00000  Uiso   1.00
C274   C     0.13949   0.51450   0.45241   0.00000  Uiso   1.00
C275   C     0.24188   0.48059   0.02551   0.00000  Uiso   1.00
C276   C     0.09145   0.51941   0.47450   0.00000  Uiso   1.00
C277   C     0.29974   0.35542   0.23125   0.00000  Uiso   1.00
C278   C     0.03359   0.64458   0.26875   0.00000  Uiso   1.00
C279   C     0.29846   0.64601   0.23561   0.00000  Uiso   1.00
C280   C     0.03488   0.35399   0.26439   0.00000  Uiso   1.00
C281   C     0.33217   0.62373   0.25319   0.00000  Uiso   1.00
C282   C     0.00116   0.37627   0.24681   0.00000  Uiso   1.00
C283   C     0.18479   0.47480   0.27941   0.00000  Uiso   1.00
C284   C     0.14855   0.52520   0.22060   0.00000  Uiso   1.00
C285   C     0.13548   0.47415   0.28007   0.00000  Uiso   1.00
C286   C     0.19785   0.52585   0.21993   0.00000  Uiso   1.00
C287   C     0.30617   0.50022   0.33608   0.00000  Uiso   1.00
C288   C     0.02716   0.49978   0.16392   0.00000  Uiso   1.00
C289   C     0.29083   0.49845   0.38548   0.00000  Uiso   1.00
C290   C     0.04251   0.50155   0.11452   0.00000  Uiso   1.00
C291   C     0.30634   0.48156   0.45774   0.00000  Uiso   1.00
C292   C     0.02699   0.51844   0.04226   0.00000  Uiso   1.00
C293   C     0.32298   0.48789   0.41136   0.00000  Uiso   1.00
C294   C     0.01035   0.51211   0.08864   0.00000  Uiso   1.00
C295   C     0.24210   0.50460   0.40676   0.00000  Uiso   1.00
C296   C     0.09123   0.49540   0.09324   0.00000  Uiso   1.00
C297   C     0.22418   0.49866   0.45374   0.00000  Uiso   1.00
C298   C     0.10915   0.50134   0.04626   0.00000  Uiso   1.00
C299   C     0.25747   0.48695   0.47908   0.00000  Uiso   1.00
C300   C     0.07586   0.51306   0.02092   0.00000  Uiso   1.00
C301   C     0.17439   0.50339   0.47612   0.00000  Uiso   1.00
C302   C     0.15895   0.49661   0.02388   0.00000  Uiso   1.00
Cu303  Cu    0.04689   0.50001   0.25000   0.00000  Uiso   1.00
Cu304  Cu    0.28645   0.49999   0.25000   0.00000  Uiso   1.00
H305   H     0.26720   0.47177   0.04504   0.00000  Uiso   1.00
H306   H     0.06614   0.52823   0.45496   0.00000  Uiso   1.00
H307   H     0.11441   0.48639   0.11445   0.00000  Uiso   1.00
H308   H     0.21892   0.51361   0.38555   0.00000  Uiso   1.00
H309   H     0.30599   0.51650   0.10424   0.00000  Uiso   1.00
H310   H     0.02734   0.48350   0.39576   0.00000  Uiso   1.00
H311   H     0.33168   0.47178   0.47689   0.00000  Uiso   1.00
H312   H     0.00165   0.52822   0.02311   0.00000  Uiso   1.00
H313   H     0.18563   0.48028   0.08348   0.00000  Uiso   1.00
H314   H     0.14771   0.51972   0.41652   0.00000  Uiso   1.00
H315   H     0.27192   0.63014   0.22364   0.00000  Uiso   1.00
H316   H     0.06141   0.36986   0.27636   0.00000  Uiso   1.00
H317   H     0.19853   0.45483   0.30272   0.00000  Uiso   1.00
H318   H     0.13480   0.54517   0.19728   0.00000  Uiso   1.00
N319   N     0.11736   0.50001   0.24999   0.00000  Uiso   1.00
N320   N     0.21597   0.49999   0.25001   0.00000  Uiso   1.00
O321   O     0.03958   0.43989   0.25000   0.00000  Uiso   1.00
O322   O     0.29375   0.56011   0.25000   0.00000  Uiso   1.00
O323   O     0.29372   0.43988   0.25001   0.00000  Uiso   1.00
O324   O     0.03961   0.56012   0.25000   0.00000  Uiso   1.00
O325   O     0.01852   0.50001   0.31492   0.00000  Uiso   1.00
O326   O     0.31481   0.49999   0.18509   0.00000  Uiso   1.00
O327   O     0.27267   0.50000   0.31492   0.00000  Uiso   1.00
O328   O     0.06067   0.50000   0.18508   0.00000  Uiso   1.00
C329   C     0.26544   0.37703   0.20896   0.00000  Uiso   1.00
C330   C     0.21562   0.37269   0.22748   0.00000  Uiso   1.00
C331   C     0.18325   0.39426   0.20753   0.00000  Uiso   1.00
C332   C     0.20035   0.42037   0.16910   0.00000  Uiso   1.00
C333   C     0.24985   0.42454   0.15017   0.00000  Uiso   1.00
C334   C     0.28236   0.40274   0.16975   0.00000  Uiso   1.00
H335   H     0.20201   0.35328   0.25784   0.00000  Uiso   1.00
H336   H     0.14490   0.39117   0.22214   0.00000  Uiso   1.00
H337   H     0.17519   0.43742   0.15412   0.00000  Uiso   1.00
H338   H     0.26307   0.44483   0.12050   0.00000  Uiso   1.00
H339   H     0.32064   0.40642   0.15488   0.00000  Uiso   1.00
C340   C     0.06790   0.62297   0.29104   0.00000  Uiso   1.00
C341   C     0.05098   0.59726   0.33025   0.00000  Uiso   1.00
C342   C     0.08348   0.57546   0.34983   0.00000  Uiso   1.00
C343   C     0.13299   0.57963   0.33090   0.00000  Uiso   1.00
C344   C     0.15008   0.60574   0.29247   0.00000  Uiso   1.00
C345   C     0.11771   0.62732   0.27252   0.00000  Uiso   1.00
H346   H     0.01269   0.59358   0.34512   0.00000  Uiso   1.00
H347   H     0.07026   0.55517   0.37950   0.00000  Uiso   1.00
H348   H     0.15814   0.56258   0.34588   0.00000  Uiso   1.00
H349   H     0.18844   0.60883   0.27786   0.00000  Uiso   1.00
H350   H     0.13132   0.64672   0.24216   0.00000  Uiso   1.00
S351   S     0.10336   0.43808   0.32335   0.00000  Uiso   1.00
O352   O     0.12898   0.39743   0.31608   0.00000  Uiso   1.00
O353   O     0.10900   0.45247   0.36702   0.00000  Uiso   1.00
O354   O     0.04485   0.42889   0.32952   0.00000  Uiso   1.00
H355   H     0.03558   0.40836   0.35542   0.00000  Uiso   1.00
S356   S     0.22998   0.56192   0.17665   0.00000  Uiso   1.00
O357   O     0.22433   0.54753   0.13298   0.00000  Uiso   1.00
O358   O     0.20436   0.60257   0.18392   0.00000  Uiso   1.00
O359   O     0.28849   0.57111   0.17048   0.00000  Uiso   1.00
H360   H     0.29776   0.59165   0.14459   0.00000  Uiso   1.00
C361   C     0.33397   0.42090   0.24834   0.00000  Uiso   1.00
C362   C     0.66603   0.57910   0.25166   0.00000  Uiso   1.00
C363   C     0.52717   0.48550   0.04759   0.00000  Uiso   1.00
C364   C     0.47283   0.51450   0.45241   0.00000  Uiso   1.00
C365   C     0.57522   0.48059   0.02551   0.00000  Uiso   1.00
C366   C     0.42478   0.51941   0.47450   0.00000  Uiso   1.00
C367   C     0.63308   0.35542   0.23125   0.00000  Uiso   1.00
C368   C     0.36692   0.64458   0.26875   0.00000  Uiso   1.00
C369   C     0.63179   0.64601   0.23561   0.00000  Uiso   1.00
C370   C     0.36821   0.35399   0.26439   0.00000  Uiso   1.00
C371   C     0.66550   0.62373   0.25319   0.00000  Uiso   1.00
C372   C     0.33450   0.37627   0.24681   0.00000  Uiso   1.00
C373   C     0.51812   0.47480   0.27941   0.00000  Uiso   1.00
C374   C     0.48188   0.52520   0.22060   0.00000  Uiso   1.00
C375   C     0.46882   0.47415   0.28007   0.00000  Uiso   1.00
C376   C     0.53118   0.52585   0.21993   0.00000  Uiso   1.00
C377   C     0.63950   0.50022   0.33608   0.00000  Uiso   1.00
C378   C     0.36050   0.49978   0.16392   0.00000  Uiso   1.00
C379   C     0.62416   0.49845   0.38548   0.00000  Uiso   1.00
C380   C     0.37584   0.50155   0.11452   0.00000  Uiso   1.00
C381   C     0.63967   0.48156   0.45774   0.00000  Uiso   1.00
C382   C     0.36033   0.51844   0.04226   0.00000  Uiso   1.00
C383   C     0.65631   0.48789   0.41136   0.00000  Uiso   1.00
C384   C     0.34369   0.51211   0.08864   0.00000  Uiso   1.00
C385   C     0.57543   0.50460   0.40676   0.00000  Uiso   1.00
C386   C     0.42457   0.49540   0.09324   0.00000  Uiso   1.00
C387   C     0.55752   0.49866   0.45374   0.00000  Uiso   1.00
C388   C     0.44248   0.50134   0.04626   0.00000  Uiso   1.00
C389   C     0.59080   0.48695   0.47908   0.00000  Uiso   1.00
C390   C     0.40920   0.51306   0.02092   0.00000  Uiso   1.00
C391   C     0.50772   0.50339   0.47612   0.00000  Uiso   1.00
C392   C     0.49228   0.49661   0.02388   0.00000  Uiso   1.00
Cu393  Cu    0.38022   0.50001   0.25000   0.00000  Uiso   1.00
Cu394  Cu    0.61978   0.49999   0.25000   0.00000  Uiso   1.00
H395   H     0.60053   0.47177   0.04504   0.00000  Uiso   1.00
H396   H     0.39947   0.52823   0.45496   0.00000  Uiso   1.00
H397   H     0.44775   0.48639   0.11445   0.00000  Uiso   1.00
H398   H     0.55225   0.51361   0.38555   0.00000  Uiso   1.00
H399   H     0.63932   0.51650   0.10424   0.00000  Uiso   1.00
H400   H     0.36068   0.48350   0.39576   0.00000  Uiso   1.00
H401   H     0.66502   0.47178   0.47689   0.00000  Uiso   1.00
H402   H     0.33498   0.52822   0.02311   0.00000  Uiso   1.00
H403   H     0.51896   0.48028   0.08348   0.00000  Uiso   1.00
H404   H     0.48104   0.51972   0.41652   0.00000  Uiso   1.00
H405   H     0.60525   0.63014   0.22364   0.00000  Uiso   1.00
H406   H     0.39475   0.36986   0.27636   0.00000  Uiso   1.00
H407   H     0.53186   0.45483   0.30272   0.00000  Uiso   1.00
H408   H     0.46814   0.54517   0.19728   0.00000  Uiso   1.00
N409   N     0.45069   0.50001   0.24999   0.00000  Uiso   1.00
N410   N     0.54931   0.49999   0.25001   0.00000  Uiso   1.00
O411   O     0.37291   0.43989   0.25000   0.00000  Uiso   1.00
O412   O     0.62709   0.56011   0.25000   0.00000  Uiso   1.00
O413   O     0.62706   0.43988   0.25001   0.00000  Uiso   1.00
O414   O     0.37294   0.56012   0.25000   0.00000  Uiso   1.00
O415   O     0.35186   0.50001   0.31492   0.00000  Uiso   1.00
O416   O     0.64814   0.49999   0.18509   0.00000  Uiso   1.00
O417   O     0.60600   0.50000   0.31492   0.00000  Uiso   1.00
O418   O     0.39400   0.50000   0.18508   0.00000  Uiso   1.00
C419   C     0.59877   0.37703   0.20896   0.00000  Uiso   1.00
C420   C     0.54895   0.37269   0.22748   0.00000  Uiso   1.00
C421   C     0.51658   0.39426   0.20753   0.00000  Uiso   1.00
C422   C     0.53368   0.42037   0.16910   0.00000  Uiso   1.00
C423   C     0.58318   0.42454   0.15017   0.00000  Uiso   1.00
C424   C     0.61569   0.40274   0.16975   0.00000  Uiso   1.00
H425   H     0.53534   0.35328   0.25784   0.00000  Uiso   1.00
H426   H     0.47823   0.39117   0.22214   0.00000  Uiso   1.00
H427   H     0.50852   0.43742   0.15412   0.00000  Uiso   1.00
H428   H     0.59641   0.44483   0.12050   0.00000  Uiso   1.00
H429   H     0.65398   0.40642   0.15488   0.00000  Uiso   1.00
C430   C     0.40123   0.62297   0.29104   0.00000  Uiso   1.00
C431   C     0.38431   0.59726   0.33025   0.00000  Uiso   1.00
C432   C     0.41682   0.57546   0.34983   0.00000  Uiso   1.00
C433   C     0.46632   0.57963   0.33090   0.00000  Uiso   1.00
C434   C     0.48342   0.60574   0.29247   0.00000  Uiso   1.00
C435   C     0.45105   0.62732   0.27252   0.00000  Uiso   1.00
H436   H     0.34602   0.59358   0.34512   0.00000  Uiso   1.00
H437   H     0.40360   0.55517   0.37950   0.00000  Uiso   1.00
H438   H     0.49148   0.56258   0.34588   0.00000  Uiso   1.00
H439   H     0.52177   0.60883   0.27786   0.00000  Uiso   1.00
H440   H     0.46466   0.64672   0.24216   0.00000  Uiso   1.00
S441   S     0.43669   0.43808   0.32335   0.00000  Uiso   1.00
O442   O     0.46231   0.39743   0.31608   0.00000  Uiso   1.00
O443   O     0.44234   0.45247   0.36702   0.00000  Uiso   1.00
O444   O     0.37818   0.42889   0.32952   0.00000  Uiso   1.00
H445   H     0.36891   0.40836   0.35542   0.00000  Uiso   1.00
S446   S     0.56331   0.56192   0.17665   0.00000  Uiso   1.00
O447   O     0.55766   0.54753   0.13298   0.00000  Uiso   1.00
O448   O     0.53769   0.60257   0.18392   0.00000  Uiso   1.00
O449   O     0.62182   0.57111   0.17048   0.00000  Uiso   1.00
H450   H     0.63109   0.59165   0.14459   0.00000  Uiso   1.00
C451   C     0.66730   0.42090   0.24834   0.00000  Uiso   1.00
C452   C     0.99936   0.57910   0.25166   0.00000  Uiso   1.00
C453   C     0.86051   0.48550   0.04759   0.00000  Uiso   1.00
C454   C     0.80616   0.51450   0.45241   0.00000  Uiso   1.00
C455   C     0.90855   0.48059   0.02551   0.00000  Uiso   1.00
C456   C     0.75812   0.51941   0.47450   0.00000  Uiso   1.00
C457   C     0.96641   0.35542   0.23125   0.00000  Uiso   1.00
C458   C     0.70026   0.64458   0.26875   0.00000  Uiso   1.00
C459   C     0.96512   0.64601   0.23561   0.00000  Uiso   1.00
C460   C     0.70154   0.35399   0.26439   0.00000  Uiso   1.00
C461   C     0.99884   0.62373   0.25319   0.00000  Uiso   1.00
C462   C     0.66783   0.37627   0.24681   0.00000  Uiso   1.00
C463   C     0.85145   0.47480   0.27941   0.00000  Uiso   1.00
C464   C     0.81521   0.52520   0.22060   0.00000  Uiso   1.00
C465   C     0.80215   0.47415   0.28007   0.00000  Uiso   1.00
C466   C     0.86452   0.52585   0.21993   0.00000  Uiso   1.00
C467   C     0.97284   0.50022   0.33608   0.00000  Uiso   1.00
C468   C     0.69383   0.49978   0.16392   0.00000  Uiso   1.00
C469   C     0.95749   0.49845   0.38548   0.00000  Uiso   1.00
C470   C     0.70918   0.50155   0.11452   0.00000  Uiso   1.00
C471   C     0.97301   0.48156   0.45774   0.00000  Uiso   1.00
C472   C     0.69366   0.51844   0.04226   0.00000  Uiso   1.00
C473   C     0.98965   0.48789   0.41136   0.00000  Uiso   1.00
C474   C     0.67702   0.51211   0.08864   0.00000  Uiso   1.00
C475   C     0.90877   0.50460   0.40676   0.00000  Uiso   1.00
C476   C     0.75790   0.49540   0.09324   0.00000  Uiso   1.00
C477   C     0.89085   0.49866   0.45374   0.00000  Uiso   1.00
C478   C     0.77582   0.50134   0.04626   0.00000  Uiso   1.00
C479   C     0.92414   0.48695   0.47908   0.00000  Uiso   1.00
C480   C     0.74253   0.51306   0.02092   0.00000  Uiso   1.00
C481   C     0.84105   0.50339   0.47612   0.00000  Uiso   1.00
C482   C     0.82561   0.49661   0.02388   0.00000  Uiso   1.00
Cu483  Cu    0.71355   0.50001   0.25000   0.00000  Uiso   1.00
Cu484  Cu    0.95311   0.49999   0.25000   0.00000  Uiso   1.00
H485   H     0.93386   0.47177   0.04504   0.00000  Uiso   1.00
H486   H     0.73280   0.52823   0.45496   0.00000  Uiso   1.00
H487   H     0.78108   0.48639   0.11445   0.00000  Uiso   1.00
H488   H     0.88559   0.51361   0.38555   0.00000  Uiso   1.00
H489   H     0.97266   0.51650   0.10424   0.00000  Uiso   1.00
H490   H     0.69401   0.48350   0.39576   0.00000  Uiso   1.00
H491   H     0.99835   0.47178   0.47689   0.00000  Uiso   1.00
H492   H     0.66832   0.52822   0.02311   0.00000  Uiso   1.00
H493   H     0.85229   0.48028   0.08348   0.00000  Uiso   1.00
H494   H     0.81437   0.51972   0.41652   0.00000  Uiso   1.00
H495   H     0.93859   0.63014   0.22364   0.00000  Uiso   1.00
H496   H     0.72808   0.36986   0.27636   0.00000  Uiso   1.00
H497   H     0.86520   0.45483   0.30272   0.00000  Uiso   1.00
H498   H     0.80147   0.54517   0.19728   0.00000  Uiso   1.00
N499   N     0.78403   0.50001   0.24999   0.00000  Uiso   1.00
N500   N     0.88264   0.49999   0.25001   0.00000  Uiso   1.00
O501   O     0.70625   0.43989   0.25000   0.00000  Uiso   1.00
O502   O     0.96042   0.56011   0.25000   0.00000  Uiso   1.00
O503   O     0.96039   0.43988   0.25001   0.00000  Uiso   1.00
O504   O     0.70628   0.56012   0.25000   0.00000  Uiso   1.00
O505   O     0.68519   0.50001   0.31492   0.00000  Uiso   1.00
O506   O     0.98148   0.49999   0.18509   0.00000  Uiso   1.00
O507   O     0.93933   0.50000   0.31492   0.00000  Uiso   1.00
O508   O     0.72733   0.50000   0.18508   0.00000  Uiso   1.00
C509   C     0.93210   0.37703   0.20896   0.00000  Uiso   1.00
C510   C     0.88229   0.37269   0.22748   0.00000  Uiso   1.00
C511   C     0.84992   0.39426   0.20753   0.00000  Uiso   1.00
C512   C     0.86701   0.42037   0.16910   0.00000  Uiso   1.00
C513   C     0.91652   0.42454   0.15017   0.00000  Uiso   1.00
C514   C     0.94902   0.40274   0.16975   0.00000  Uiso   1.00
H515   H     0.86868   0.35328   0.25784   0.00000  Uiso   1.00
H516   H     0.81156   0.39117   0.22214   0.00000  Uiso   1.00
H517   H     0.84186   0.43742   0.15412   0.00000  Uiso   1.00
H518   H     0.92974   0.44483   0.12050   0.00000  Uiso   1.00
H519   H     0.98731   0.40642   0.15488   0.00000  Uiso   1.00
C520   C     0.73457   0.62297   0.29104   0.00000  Uiso   1.00
C521   C     0.71765   0.59726   0.33025   0.00000  Uiso   1.00
C522   C     0.75015   0.57546   0.34983   0.00000  Uiso   1.00
C523   C     0.79965   0.57963   0.33090   0.00000  Uiso   1.00
C524   C     0.81675   0.60574   0.29247   0.00000  Uiso   1.00
C525   C     0.78438   0.62732   0.27252   0.00000  Uiso   1.00
H526   H     0.67936   0.59358   0.34512   0.00000  Uiso   1.00
H527   H     0.73693   0.55517   0.37950   0.00000  Uiso   1.00
H528   H     0.82481   0.56258   0.34588   0.00000  Uiso   1.00
H529   H     0.85510   0.60883   0.27786   0.00000  Uiso   1.00
H530   H     0.79799   0.64672   0.24216   0.00000  Uiso   1.00
S531   S     0.77002   0.43808   0.32335   0.00000  Uiso   1.00
O532   O     0.79564   0.39743   0.31608   0.00000  Uiso   1.00
O533   O     0.77567   0.45247   0.36702   0.00000  Uiso   1.00
O534   O     0.71151   0.42889   0.32952   0.00000  Uiso   1.00
H535   H     0.70224   0.40836   0.35542   0.00000  Uiso   1.00
S536   S     0.89664   0.56192   0.17665   0.00000  Uiso   1.00
O537   O     0.89100   0.54753   0.13298   0.00000  Uiso   1.00
O538   O     0.87102   0.60257   0.18392   0.00000  Uiso   1.00
O539   O     0.95515   0.57111   0.17048   0.00000  Uiso   1.00
H540   H     0.96442   0.59165   0.14459   0.00000  Uiso   1.00
C541   C     0.00064   0.75424   0.24834   0.00000  Uiso   1.00
C542   C     0.33270   0.91243   0.25166   0.00000  Uiso   1.00
C543   C     0.19384   0.81884   0.04759   0.00000  Uiso   1.00
C544   C     0.13949   0.84783   0.45241   0.00000  Uiso   1.00
C545   C     0.24188   0.81393   0.02551   0.00000  Uiso   1.00
C546   C     0.09145   0.85274   0.47450   0.00000  Uiso   1.00
C547   C     0.29974   0.68875   0.23125   0.00000  Uiso   1.00
C548   C     0.03359   0.97792   0.26875   0.00000  Uiso   1.00
C549   C     0.29846   0.97934   0.23561   0.00000  Uiso   1.00
C550   C     0.03488   0.68733   0.26439   0.00000  Uiso   1.00
C551   C     0.33217   0.95706   0.25319   0.00000  Uiso   1.00
C552   C     0.00116   0.70960   0.24681   0.00000  Uiso   1.00
C553   C     0.18479   0.80813   0.27941   0.00000  Uiso   1.00
C554   C     0.14855   0.85854   0.22060   0.00000  Uiso   1.00
C555   C     0.13548   0.80748   0.28007   0.00000  Uiso   1.00
C556   C     0.19785   0.85918   0.21993   0.00000  Uiso   1.00
C557   C     0.30617   0.83355   0.33608   0.00000  Uiso   1.00
C558   C     0.02716   0.83312   0.16392   0.00000  Uiso   1.00
C559   C     0.29083   0.83178   0.38548   0.00000  Uiso   1.00
C560   C     0.04251   0.83489   0.11452   0.00000  Uiso   1.00
C561   C     0.30634   0.81489   0.45774   0.00000  Uiso   1.00
C562   C     0.02699   0.85177   0.04226   0.00000  Uiso   1.00
C563   C     0.32298   0.82122   0.41136   0.00000  Uiso   1.00
C564   C     0.01035   0.84544   0.08864   0.00000  Uiso   1.00
C565   C     0.24210   0.83793   0.40676   0.00000  Uiso   1.00
C566   C     0.09123   0.82874   0.09324   0.00000  Uiso   1.00
C567   C     0.22418   0.83199   0.45374   0.00000  Uiso   1.00
C568   C     0.10915   0.83467   0.04626   0.00000  Uiso   1.00
C569   C     0.25747   0.82028   0.47908   0.00000  Uiso   1.00
C570   C     0.07586   0.84639   0.02092   0.00000  Uiso   1.00
C571   C     0.17439   0.83672   0.47612   0.00000  Uiso   1.00
C572   C     0.15895   0.82995   0.02388   0.00000  Uiso   1.00
Cu573  Cu    0.04689   0.83334   0.25000   0.00000  Uiso   1.00
Cu574  Cu    0.28645   0.83333   0.25000   0.00000  Uiso   1.00
H575   H     0.26720   0.80510   0.04504   0.00000  Uiso   1.00
H576   H     0.06614   0.86156   0.45496   0.00000  Uiso   1.00
H577   H     0.11441   0.81972   0.11445   0.00000  Uiso   1.00
H578   H     0.21892   0.84694   0.38555   0.00000  Uiso   1.00
H579   H     0.30599   0.84983   0.10424   0.00000  Uiso   1.00
H580   H     0.02734   0.81683   0.39576   0.00000  Uiso   1.00
H581   H     0.33168   0.80511   0.47689   0.00000  Uiso   1.00
H582   H     0.00165   0.86156   0.02311   0.00000  Uiso   1.00
H583   H     0.18563   0.81362   0.08348   0.00000  Uiso   1.00
H584   H     0.14771   0.85305   0.41652   0.00000  Uiso   1.00
H585   H     0.27192   0.96348   0.22364   0.00000  Uiso   1.00
H586   H     0.06141   0.70319   0.27636   0.00000  Uiso   1.00
H587   H     0.19853   0.78816   0.30272   0.00000  Uiso   1.00
H588   H     0.13480   0.87851   0.19728   0.00000  Uiso   1.00
N589   N     0.11736   0.83334   0.24999   0.00000  Uiso   1.00
N590   N     0.21597   0.83332   0.25001   0.00000  Uiso   1.00
O591   O     0.03958   0.77322   0.25000   0.00000  Uiso   1.00
O592   O     0.29375   0.89345   0.25000   0.00000  Uiso   1.00
O593   O     0.29372   0.77321   0.25001   0.00000  Uiso   1.00
O594   O     0.03961   0.89346   0.25000   0.00000  Uiso   1.00
O595   O     0.01852   0.83334   0.31492   0.00000  Uiso   1.00
O596   O     0.31481   0.83332   0.18509   0.00000  Uiso   1.00
O597   O     0.27267   0.83333   0.31492   0.00000  Uiso   1.00
O598   O     0.06067   0.83333   0.18508   0.00000  Uiso   1.00
C599   C     0.26544   0.71036   0.20896   0.00000  Uiso   1.00
C600   C     0.21562   0.70602   0.22748   0.00000  Uiso   1.00
C601   C     0.18325   0.72759   0.20753   0.00000  Uiso   1.00
C602   C     0.20035   0.75371   0.16910   0.00000  Uiso   1.00
C603   C     0.24985   0.75788   0.15017   0.00000  Uiso   1.00
C604   C     0.28236   0.73608   0.16975   0.00000  Uiso   1.00
H605   H     0.20201   0.68662   0.25784   0.00000  Uiso   1.00
H606   H     0.14490   0.72450   0.22214   0.00000  Uiso   1.00
H607   H     0.17519   0.77075   0.15412   0.00000  Uiso   1.00
H608   H     0.26307   0.77816   0.12050   0.00000  Uiso   1.00
H609   H     0.32064   0.73976   0.15488   0.00000  Uiso   1.00
C610   C     0.06790   0.95630   0.29104   0.00000  Uiso   1.00
C611   C     0.05098   0.93059   0.33025   0.00000  Uiso   1.00
C612   C     0.08348   0.90879   0.34983   0.00000  Uiso   1.00
C613   C     0.13299   0.91296   0.33090   0.00000  Uiso   1.00
C614   C     0.15008   0.93907   0.29247   0.00000  Uiso   1.00
C615   C     0.11771   0.96065   0.27252   0.00000  Uiso   1.00
H616   H     0.01269   0.92691   0.34512   0.00000  Uiso   1.00
H617   H     0.07026   0.88851   0.37950   0.00000  Uiso   1.00
H618   H     0.15814   0.89592   0.34588   0.00000  Uiso   1.00
H619   H     0.18844   0.94217   0.27786   0.00000  Uiso   1.00
H620   H     0.13132   0.98005   0.24216   0.00000  Uiso   1.00
S621   S     0.10336   0.77141   0.32335   0.00000  Uiso   1.00
O622   O     0.12898   0.73077   0.31608   0.00000  Uiso   1.00
O623   O     0.10900   0.78581   0.36702   0.00000  Uiso   1.00
O624   O     0.04485   0.76223   0.32952   0.00000  Uiso   1.00
H625   H     0.03558   0.74169   0.35542   0.00000  Uiso   1.00
S626   S     0.22998   0.89525   0.17665   0.00000  Uiso   1.00
O627   O     0.22433   0.88086   0.13298   0.00000  Uiso   1.00
O628   O     0.20436   0.93590   0.18392   0.00000  Uiso   1.00
O629   O     0.28849   0.90444   0.17048   0.00000  Uiso   1.00
H630   H     0.29776   0.92498   0.14459   0.00000  Uiso   1.00
C631   C     0.33397   0.75424   0.24834   0.00000  Uiso   1.00
C632   C     0.66603   0.91243   0.25166   0.00000  Uiso   1.00
C633   C     0.52717   0.81884   0.04759   0.00000  Uiso   1.00
C634   C     0.47283   0.84783   0.45241   0.00000  Uiso   1.00
C635   C     0.57522   0.81393   0.02551   0.00000  Uiso   1.00
C636   C     0.42478   0.85274   0.47450   0.00000  Uiso   1.00
C637   C     0.63308   0.68875   0.23125   0.00000  Uiso   1.00
C638   C     0.36692   0.97792   0.26875   0.00000  Uiso   1.00
C639   C     0.63179   0.97934   0.23561   0.00000  Uiso   1.00
C640   C     0.36821   0.68733   0.26439   0.00000  Uiso   1.00
C641   C     0.66550   0.95706   0.25319   0.00000  Uiso   1.00
C642   C     0.33450   0.70960   0.24681   0.00000  Uiso   1.00
C643   C     0.51812   0.80813   0.27941   0.00000  Uiso   1.00
C644   C     0.48188   0.85854   0.22060   0.00000  Uiso   1.00
C645   C     0.46882   0.80748   0.28007   0.00000  Uiso   1.00
C646   C     0.53118   0.85918   0.21993   0.00000  Uiso   1.00
C647   C     0.63950   0.83355   0.33608   0.00000  Uiso   1.00
C648   C     0.36050   0.83312   0.16392   0.00000  Uiso   1.00
C649   C     0.62416   0.83178   0.38548   0.00000  Uiso   1.00
C650   C     0.37584   0.83489   0.11452   0.00000  Uiso   1.00
C651   C     0.63967   0.81489   0.45774   0.00000  Uiso   1.00
C652   C     0.36033   0.85177   0.04226   0.00000  Uiso   1.00
C653   C     0.65631   0.82122   0.41136   0.00000  Uiso   1.00
C654   C     0.34369   0.84544   0.08864   0.00000  Uiso   1.00
C655   C     0.57543   0.83793   0.40676   0.00000  Uiso   1.00
C656   C     0.42457   0.82874   0.09324   0.00000  Uiso   1.00
C657   C     0.55752   0.83199   0.45374   0.00000  Uiso   1.00
C658   C     0.44248   0.83467   0.04626   0.00000  Uiso   1.00
C659   C     0.59080   0.82028   0.47908   0.00000  Uiso   1.00
C660   C     0.40920   0.84639   0.02092   0.00000  Uiso   1.00
C661   C     0.50772   0.83672   0.47612   0.00000  Uiso   1.00
C662   C     0.49228   0.82995   0.02388   0.00000  Uiso   1.00
Cu663  Cu    0.38022   0.83334   0.25000   0.00000  Uiso   1.00
Cu664  Cu    0.61978   0.83333   0.25000   0.00000  Uiso   1.00
H665   H     0.60053   0.80510   0.04504   0.00000  Uiso   1.00
H666   H     0.39947   0.86156   0.45496   0.00000  Uiso   1.00
H667   H     0.44775   0.81972   0.11445   0.00000  Uiso   1.00
H668   H     0.55225   0.84694   0.38555   0.00000  Uiso   1.00
H669   H     0.63932   0.84983   0.10424   0.00000  Uiso   1.00
H670   H     0.36068   0.81683   0.39576   0.00000  Uiso   1.00
H671   H     0.66502   0.80511   0.47689   0.00000  Uiso   1.00
H672   H     0.33498   0.86156   0.02311   0.00000  Uiso   1.00
H673   H     0.51896   0.81362   0.08348   0.00000  Uiso   1.00
H674   H     0.48104   0.85305   0.41652   0.00000  Uiso   1.00
H675   H     0.60525   0.96348   0.22364   0.00000  Uiso   1.00
H676   H     0.39475   0.70319   0.27636   0.00000  Uiso   1.00
H677   H     0.53186   0.78816   0.30272   0.00000  Uiso   1.00
H678   H     0.46814   0.87851   0.19728   0.00000  Uiso   1.00
N679   N     0.45069   0.83334   0.24999   0.00000  Uiso   1.00
N680   N     0.54931   0.83332   0.25001   0.00000  Uiso   1.00
O681   O     0.37291   0.77322   0.25000   0.00000  Uiso   1.00
O682   O     0.62709   0.89345   0.25000   0.00000  Uiso   1.00
O683   O     0.62706   0.77321   0.25001   0.00000  Uiso   1.00
O684   O     0.37294   0.89346   0.25000   0.00000  Uiso   1.00
O685   O     0.35186   0.83334   0.31492   0.00000  Uiso   1.00
O686   O     0.64814   0.83332   0.18509   0.00000  Uiso   1.00
O687   O     0.60600   0.83333   0.31492   0.00000  Uiso   1.00
O688   O     0.39400   0.83333   0.18508   0.00000  Uiso   1.00
C689   C     0.59877   0.71036   0.20896   0.00000  Uiso   1.00
C690   C     0.54895   0.70602   0.22748   0.00000  Uiso   1.00
C691   C     0.51658   0.72759   0.20753   0.00000  Uiso   1.00
C692   C     0.53368   0.75371   0.16910   0.00000  Uiso   1.00
C693   C     0.58318   0.75788   0.15017   0.00000  Uiso   1.00
C694   C     0.61569   0.73608   0.16975   0.00000  Uiso   1.00
H695   H     0.53534   0.68662   0.25784   0.00000  Uiso   1.00
H696   H     0.47823   0.72450   0.22214   0.00000  Uiso   1.00
H697   H     0.50852   0.77075   0.15412   0.00000  Uiso   1.00
H698   H     0.59641   0.77816   0.12050   0.00000  Uiso   1.00
H699   H     0.65398   0.73976   0.15488   0.00000  Uiso   1.00
C700   C     0.40123   0.95630   0.29104   0.00000  Uiso   1.00
C701   C     0.38431   0.93059   0.33025   0.00000  Uiso   1.00
C702   C     0.41682   0.90879   0.34983   0.00000  Uiso   1.00
C703   C     0.46632   0.91296   0.33090   0.00000  Uiso   1.00
C704   C     0.48342   0.93907   0.29247   0.00000  Uiso   1.00
C705   C     0.45105   0.96065   0.27252   0.00000  Uiso   1.00
H706   H     0.34602   0.92691   0.34512   0.00000  Uiso   1.00
H707   H     0.40360   0.88851   0.37950   0.00000  Uiso   1.00
H708   H     0.49148   0.89592   0.34588   0.00000  Uiso   1.00
H709   H     0.52177   0.94217   0.27786   0.00000  Uiso   1.00
H710   H     0.46466   0.98005   0.24216   0.00000  Uiso   1.00
S711   S     0.43669   0.77141   0.32335   0.00000  Uiso   1.00
O712   O     0.46231   0.73077   0.31608   0.00000  Uiso   1.00
O713   O     0.44234   0.78581   0.36702   0.00000  Uiso   1.00
O714   O     0.37818   0.76223   0.32952   0.00000  Uiso   1.00
H715   H     0.36891   0.74169   0.35542   0.00000  Uiso   1.00
S716   S     0.56331   0.89525   0.17665   0.00000  Uiso   1.00
O717   O     0.55766   0.88086   0.13298   0.00000  Uiso   1.00
O718   O     0.53769   0.93590   0.18392   0.00000  Uiso   1.00
O719   O     0.62182   0.90444   0.17048   0.00000  Uiso   1.00
H720   H     0.63109   0.92498   0.14459   0.00000  Uiso   1.00
C721   C     0.66730   0.75424   0.24834   0.00000  Uiso   1.00
C722   C     0.99936   0.91243   0.25166   0.00000  Uiso   1.00
C723   C     0.86051   0.81884   0.04759   0.00000  Uiso   1.00
C724   C     0.80616   0.84783   0.45241   0.00000  Uiso   1.00
C725   C     0.90855   0.81393   0.02551   0.00000  Uiso   1.00
C726   C     0.75812   0.85274   0.47450   0.00000  Uiso   1.00
C727   C     0.96641   0.68875   0.23125   0.00000  Uiso   1.00
C728   C     0.70026   0.97792   0.26875   0.00000  Uiso   1.00
C729   C     0.96512   0.97934   0.23561   0.00000  Uiso   1.00
C730   C     0.70154   0.68733   0.26439   0.00000  Uiso   1.00
C731   C     0.99884   0.95706   0.25319   0.00000  Uiso   1.00
C732   C     0.66783   0.70960   0.24681   0.00000  Uiso   1.00
C733   C     0.85145   0.80813   0.27941   0.00000  Uiso   1.00
C734   C     0.81521   0.85854   0.22060   0.00000  Uiso   1.00
C735   C     0.80215   0.80748   0.28007   0.00000  Uiso   1.00
C736   C     0.86452   0.85918   0.21993   0.00000  Uiso   1.00
C737   C     0.97284   0.83355   0.33608   0.00000  Uiso   1.00
C738   C     0.69383   0.83312   0.16392   0.00000  Uiso   1.00
C739   C     0.95749   0.83178   0.38548   0.00000  Uiso   1.00
C740   C     0.70918   0.83489   0.11452   0.00000  Uiso   1.00
C741   C     0.97301   0.81489   0.45774   0.00000  Uiso   1.00
C742   C     0.69366   0.85177   0.04226   0.00000  Uiso   1.00
C743   C     0.98965   0.82122   0.41136   0.00000  Uiso   1.00
C744   C     0.67702   0.84544   0.08864   0.00000  Uiso   1.00
C745   C     0.90877   0.83793   0.40676   0.00000  Uiso   1.00
C746   C     0.75790   0.82874   0.09324   0.00000  Uiso   1.00
C747   C     0.89085   0.83199   0.45374   0.00000  Uiso   1.00
C748   C     0.77582   0.83467   0.04626   0.00000  Uiso   1.00
C749   C     0.92414   0.82028   0.47908   0.00000  Uiso   1.00
C750   C     0.74253   0.84639   0.02092   0.00000  Uiso   1.00
C751   C     0.84105   0.83672   0.47612   0.00000  Uiso   1.00
C752   C     0.82561   0.82995   0.02388   0.00000  Uiso   1.00
Cu753  Cu    0.71355   0.83334   0.25000   0.00000  Uiso   1.00
Cu754  Cu    0.95311   0.83333   0.25000   0.00000  Uiso   1.00
H755   H     0.93386   0.80510   0.04504   0.00000  Uiso   1.00
H756   H     0.73280   0.86156   0.45496   0.00000  Uiso   1.00
H757   H     0.78108   0.81972   0.11445   0.00000  Uiso   1.00
H758   H     0.88559   0.84694   0.38555   0.00000  Uiso   1.00
H759   H     0.97266   0.84983   0.10424   0.00000  Uiso   1.00
H760   H     0.69401   0.81683   0.39576   0.00000  Uiso   1.00
H761   H     0.99835   0.80511   0.47689   0.00000  Uiso   1.00
H762   H     0.66832   0.86156   0.02311   0.00000  Uiso   1.00
H763   H     0.85229   0.81362   0.08348   0.00000  Uiso   1.00
H764   H     0.81437   0.85305   0.41652   0.00000  Uiso   1.00
H765   H     0.93859   0.96348   0.22364   0.00000  Uiso   1.00
H766   H     0.72808   0.70319   0.27636   0.00000  Uiso   1.00
H767   H     0.86520   0.78816   0.30272   0.00000  Uiso   1.00
H768   H     0.80147   0.87851   0.19728   0.00000  Uiso   1.00
N769   N     0.78403   0.83334   0.24999   0.00000  Uiso   1.00
N770   N     0.88264   0.83332   0.25001   0.00000  Uiso   1.00
O771   O     0.70625   0.77322   0.25000   0.00000  Uiso   1.00
O772   O     0.96042   0.89345   0.25000   0.00000  Uiso   1.00
O773   O     0.96039   0.77321   0.25001   0.00000  Uiso   1.00
O774   O     0.70628   0.89346   0.25000   0.00000  Uiso   1.00
O775   O     0.68519   0.83334   0.31492   0.00000  Uiso   1.00
O776   O     0.98148   0.83332   0.18509   0.00000  Uiso   1.00
O777   O     0.93933   0.83333   0.31492   0.00000  Uiso   1.00
O778   O     0.72733   0.83333   0.18508   0.00000  Uiso   1.00
C779   C     0.93210   0.71036   0.20896   0.00000  Uiso   1.00
C780   C     0.88229   0.70602   0.22748   0.00000  Uiso   1.00
C781   C     0.84992   0.72759   0.20753   0.00000  Uiso   1.00
C782   C     0.86701   0.75371   0.16910   0.00000  Uiso   1.00
C783   C     0.91652   0.75788   0.15017   0.00000  Uiso   1.00
C784   C     0.94902   0.73608   0.16975   0.00000  Uiso   1.00
H785   H     0.86868   0.68662   0.25784   0.00000  Uiso   1.00
H786   H     0.81156   0.72450   0.22214   0.00000  Uiso   1.00
H787   H     0.84186   0.77075   0.15412   0.00000  Uiso   1.00
H788   H     0.92974   0.77816   0.12050   0.00000  Uiso   1.00
H789   H     0.98731   0.73976   0.15488   0.00000  Uiso   1.00
C790   C     0.73457   0.95630   0.29104   0.00000  Uiso   1.00
C791   C     0.71765   0.93059   0.33025   0.00000  Uiso   1.00
C792   C     0.75015   0.90879   0.34983   0.00000  Uiso   1.00
C793   C     0.79965   0.91296   0.33090   0.00000  Uiso   1.00
C794   C     0.81675   0.93907   0.29247   0.00000  Uiso   1.00
C795   C     0.78438   0.96065   0.27252   0.00000  Uiso   1.00
H796   H     0.67936   0.92691   0.34512   0.00000  Uiso   1.00
H797   H     0.73693   0.88851   0.37950   0.00000  Uiso   1.00
H798   H     0.82481   0.89592   0.34588   0.00000  Uiso   1.00
H799   H     0.85510   0.94217   0.27786   0.00000  Uiso   1.00
H800   H     0.79799   0.98005   0.24216   0.00000  Uiso   1.00
S801   S     0.77002   0.77141   0.32335   0.00000  Uiso   1.00
O802   O     0.79564   0.73077   0.31608   0.00000  Uiso   1.00
O803   O     0.77567   0.78581   0.36702   0.00000  Uiso   1.00
O804   O     0.71151   0.76223   0.32952   0.00000  Uiso   1.00
H805   H     0.70224   0.74169   0.35542   0.00000  Uiso   1.00
S806   S     0.89664   0.89525   0.17665   0.00000  Uiso   1.00
O807   O     0.89100   0.88086   0.13298   0.00000  Uiso   1.00
O808   O     0.87102   0.93590   0.18392   0.00000  Uiso   1.00
O809   O     0.95515   0.90444   0.17048   0.00000  Uiso   1.00
H810   H     0.96442   0.92498   0.14459   0.00000  Uiso   1.00
C811   C     0.00064   0.08757   0.74834   0.00000  Uiso   1.00
C812   C     0.33270   0.24576   0.75166   0.00000  Uiso   1.00
C813   C     0.19384   0.15217   0.54759   0.00000  Uiso   1.00
C814   C     0.13949   0.18116   0.95241   0.00000  Uiso   1.00
C815   C     0.24188   0.14726   0.52551   0.00000  Uiso   1.00
C816   C     0.09145   0.18607   0.97450   0.00000  Uiso   1.00
C817   C     0.29974   0.02209   0.73125   0.00000  Uiso   1.00
C818   C     0.03359   0.31125   0.76875   0.00000  Uiso   1.00
C819   C     0.29846   0.31267   0.73561   0.00000  Uiso   1.00
C820   C     0.03488   0.02066   0.76439   0.00000  Uiso   1.00
C821   C     0.33217   0.29040   0.75319   0.00000  Uiso   1.00
C822   C     0.00116   0.04294   0.74681   0.00000  Uiso   1.00
C823   C     0.18479   0.14146   0.77941   0.00000  Uiso   1.00
C824   C     0.14855   0.19187   0.72060   0.00000  Uiso   1.00
C825   C     0.13548   0.14082   0.78007   0.00000  Uiso   1.00
C826   C     0.19785   0.19252   0.71993   0.00000  Uiso   1.00
C827   C     0.30617   0.16688   0.83608   0.00000  Uiso   1.00
C828   C     0.02716   0.16645   0.66392   0.00000  Uiso   1.00
C829   C     0.29083   0.16511   0.88548   0.00000  Uiso   1.00
C830   C     0.04251   0.16822   0.61452   0.00000  Uiso   1.00
C831   C     0.30634   0.14823   0.95774   0.00000  Uiso   1.00
C832   C     0.02699   0.18511   0.54226   0.00000  Uiso   1.00
C833   C     0.32298   0.15456   0.91136   0.00000  Uiso   1.00
C834   C     0.01035   0.17878   0.58864   0.00000  Uiso   1.00
C835   C     0.24210   0.17126   0.90676   0.00000  Uiso   1.00
C836   C     0.09123   0.16207   0.59324   0.00000  Uiso   1.00
C837   C     0.22418   0.16533   0.95374   0.00000  Uiso   1.00
C838   C     0.10915   0.16801   0.54626   0.00000  Uiso   1.00
C839   C     0.25747   0.15361   0.97908   0.00000  Uiso   1.00
C840   C     0.07586   0.17972   0.52092   0.00000  Uiso   1.00
C841   C     0.17439   0.17005   0.97612   0.00000  Uiso   1.00
C842   C     0.15895   0.16328   0.52388   0.00000  Uiso   1.00
Cu843  Cu    0.04689   0.16667   0.75000   0.00000  Uiso   1.00
Cu844  Cu    0.28645   0.16666   0.75000   0.00000  Uiso   1.00
H845   H     0.26720   0.13844   0.54504   0.00000  Uiso   1.00
H846   H     0.06614   0.19490   0.95496   0.00000  Uiso   1.00
H847   H     0.11441   0.15306   0.61445   0.00000  Uiso   1.00
H848   H     0.21892   0.18028   0.88555   0.00000  Uiso   1.00
H849   H     0.30599   0.18317   0.60424   0.00000  Uiso   1.00
H850   H     0.02734   0.15017   0.89576   0.00000  Uiso   1.00
H851   H     0.33168   0.13844   0.97689   0.00000  Uiso   1.00
H852   H     0.00165   0.19489   0.52311   0.00000  Uiso   1.00
H853   H     0.18563   0.14695   0.58348   0.00000  Uiso   1.00
H854   H     0.14771   0.18638   0.91652   0.00000  Uiso   1.00
H855   H     0.27192   0.29681   0.72364   0.00000  Uiso   1.00
H856   H     0.06141   0.03652   0.77636   0.00000  Uiso   1.00
H857   H     0.19853   0.12150   0.80272   0.00000  Uiso   1.00
H858   H     0.13480   0.21184   0.69728   0.00000  Uiso   1.00
N859   N     0.11736   0.16668   0.74999   0.00000  Uiso   1.00
N860   N     0.21597   0.16666   0.75001   0.00000  Uiso   1.00
O861   O     0.03958   0.10655   0.75000   0.00000  Uiso   1.00
O862   O     0.29375   0.22678   0.75000   0.00000  Uiso   1.00
O863   O     0.29372   0.10654   0.75001   0.00000  Uiso   1.00
O864   O     0.03961   0.22679   0.75000   0.00000  Uiso   1.00
O865   O     0.01852   0.16668   0.81492   0.00000  Uiso   1.00
O866   O     0.31481   0.16666   0.68509   0.00000  Uiso   1.00
O867   O     0.27267   0.16667   0.81492   0.00000  Uiso   1.00
O868   O     0.06067   0.16667   0.68508   0.00000  Uiso   1.00
C869   C     0.26544   0.04370   0.70896   0.00000  Uiso   1.00
C870   C     0.21562   0.03935   0.72748   0.00000  Uiso   1.00
C871   C     0.18325   0.06093   0.70753   0.00000  Uiso   1.00
C872   C     0.20035   0.08704   0.66910   0.00000  Uiso   1.00
C873   C     0.24985   0.09121   0.65017   0.00000  Uiso   1.00
C874   C     0.28236   0.06941   0.66975   0.00000  Uiso   1.00
H875   H     0.20201   0.01995   0.75784   0.00000  Uiso   1.00
H876   H     0.14490   0.05783   0.72214   0.00000  Uiso   1.00
H877   H     0.17519   0.10408   0.65412   0.00000  Uiso   1.00
H878   H     0.26307   0.11149   0.62050   0.00000  Uiso   1.00
H879   H     0.32064   0.07309   0.65488   0.00000  Uiso   1.00
C880   C     0.06790   0.28964   0.79104   0.00000  Uiso   1.00
C881   C     0.05098   0.26392   0.83025   0.00000  Uiso   1.00
C882   C     0.08348   0.24212   0.84983   0.00000  Uiso   1.00
C883   C     0.13299   0.24629   0.83090   0.00000  Uiso   1.00
C884   C     0.15008   0.27241   0.79247   0.00000  Uiso   1.00
C885   C     0.11771   0.29398   0.77252   0.00000  Uiso   1.00
H886   H     0.01269   0.26024   0.84512   0.00000  Uiso   1.00
H887   H     0.07026   0.22184   0.87950   0.00000  Uiso   1.00
H888   H     0.15814   0.22925   0.84588   0.00000  Uiso   1.00
H889   H     0.18844   0.27550   0.77786   0.00000  Uiso   1.00
H890   H     0.13132   0.31338   0.74216   0.00000  Uiso   1.00
S891   S     0.10336   0.10475   0.82335   0.00000  Uiso   1.00
O892   O     0.12898   0.06410   0.81608   0.00000  Uiso   1.00
O893   O     0.10900   0.11914   0.86702   0.00000  Uiso   1.00
O894   O     0.04485   0.09556   0.82952   0.00000  Uiso   1.00
H895   H     0.03558   0.07502   0.85542   0.00000  Uiso   1.00
S896   S     0.22998   0.22859   0.67665   0.00000  Uiso   1.00
O897   O     0.22433   0.21420   0.63298   0.00000  Uiso   1.00
O898   O     0.20436   0.26923   0.68392   0.00000  Uiso   1.00
O899   O     0.28849   0.23777   0.67048   0.00000  Uiso   1.00
H900   H     0.29776   0.25831   0.64459   0.00000  Uiso   1.00
C901   C     0.33397   0.08757   0.74834   0.00000  Uiso   1.00
C902   C     0.66603   0.24576   0.75166   0.00000  Uiso   1.00
C903   C     0.52717   0.15217   0.54759   0.00000  Uiso   1.00
C904   C     0.47283   0.18116   0.95241   0.00000  Uiso   1.00
C905   C     0.57522   0.14726   0.52551   0.00000  Uiso   1.00
C906   C     0.42478   0.18607   0.97450   0.00000  Uiso   1.00
C907   C     0.63308   0.02209   0.73125   0.00000  Uiso   1.00
C908   C     0.36692   0.31125   0.76875   0.00000  Uiso   1.00
C909   C     0.63179   0.31267   0.73561   0.00000  Uiso   1.00
C910   C     0.36821   0.02066   0.76439   0.00000  Uiso   1.00
C911   C     0.66550   0.29040   0.75319   0.00000  Uiso   1.00
C912   C     0.33450   0.04294   0.74681   0.00000  Uiso   1.00
C913   C     0.51812   0.14146   0.77941   0.00000  Uiso   1.00
C914   C     0.48188   0.19187   0.72060   0.00000  Uiso   1.00
C915   C     0.46882   0.14082   0.78007   0.00000  Uiso   1.00
C916   C     0.53118   0.19252   0.71993   0.00000  Uiso   1.00
C917   C     0.63950   0.16688   0.83608   0.00000  Uiso   1.00
C918   C     0.36050   0.16645   0.66392   0.00000  Uiso   1.00
C919   C     0.62416   0.16511   0.88548   0.00000  Uiso   1.00
C920   C     0.37584   0.16822   0.61452   0.00000  Uiso   1.00
C921   C     0.63967   0.14823   0.95774   0.00000  Uiso   1.00
C922   C     0.36033   0.18511   0.54226   0.00000  Uiso   1.00
C923   C     0.65631   0.15456   0.91136   0.00000  Uiso   1.00
C924   C     0.34369   0.17878   0.58864   0.00000  Uiso   1.00
C925   C     0.57543   0.17126   0.90676   0.00000  Uiso   1.00
C926   C     0.42457   0.16207   0.59324   0.00000  Uiso   1.00
C927   C     0.55752   0.16533   0.95374   0.00000  Uiso   1.00
C928   C     0.44248   0.16801   0.54626   0.00000  Uiso   1.00
C929   C     0.59080   0.15361   0.97908   0.00000  Uiso   1.00
C930   C     0.40920   0.17972   0.52092   0.00000  Uiso   1.00
C931   C     0.50772   0.17005   0.97612   0.00000  Uiso   1.00
C932   C     0.49228   0.16328   0.52388   0.00000  Uiso   1.00
Cu933  Cu    0.38022   0.16667   0.75000   0.00000  Uiso   1.00
Cu934  Cu    0.61978   0.16666   0.75000   0.00000  Uiso   1.00
H935   H     0.60053   0.13844   0.54504   0.00000  Uiso   1.00
H936   H     0.39947   0.19490   0.95496   0.00000  Uiso   1.00
H937   H     0.44775   0.15306   0.61445   0.00000  Uiso   1.00
H938   H     0.55225   0.18028   0.88555   0.00000  Uiso   1.00
H939   H     0.63932   0.18317   0.60424   0.00000  Uiso   1.00
H940   H     0.36068   0.15017   0.89576   0.00000  Uiso   1.00
H941   H     0.66502   0.13844   0.97689   0.00000  Uiso   1.00
H942   H     0.33498   0.19489   0.52311   0.00000  Uiso   1.00
H943   H     0.51896   0.14695   0.58348   0.00000  Uiso   1.00
H944   H     0.48104   0.18638   0.91652   0.00000  Uiso   1.00
H945   H     0.60525   0.29681   0.72364   0.00000  Uiso   1.00
H946   H     0.39475   0.03652   0.77636   0.00000  Uiso   1.00
H947   H     0.53186   0.12150   0.80272   0.00000  Uiso   1.00
H948   H     0.46814   0.21184   0.69728   0.00000  Uiso   1.00
N949   N     0.45069   0.16668   0.74999   0.00000  Uiso   1.00
N950   N     0.54931   0.16666   0.75001   0.00000  Uiso   1.00
O951   O     0.37291   0.10655   0.75000   0.00000  Uiso   1.00
O952   O     0.62709   0.22678   0.75000   0.00000  Uiso   1.00
O953   O     0.62706   0.10654   0.75001   0.00000  Uiso   1.00
O954   O     0.37294   0.22679   0.75000   0.00000  Uiso   1.00
O955   O     0.35186   0.16668   0.81492   0.00000  Uiso   1.00
O956   O     0.64814   0.16666   0.68509   0.00000  Uiso   1.00
O957   O     0.60600   0.16667   0.81492   0.00000  Uiso   1.00
O958   O     0.39400   0.16667   0.68508   0.00000  Uiso   1.00
C959   C     0.59877   0.04370   0.70896   0.00000  Uiso   1.00
C960   C     0.54895   0.03935   0.72748   0.00000  Uiso   1.00
C961   C     0.51658   0.06093   0.70753   0.00000  Uiso   1.00
C962   C     0.53368   0.08704   0.66910   0.00000  Uiso   1.00
C963   C     0.58318   0.09121   0.65017   0.00000  Uiso   1.00
C964   C     0.61569   0.06941   0.66975   0.00000  Uiso   1.00
H965   H     0.53534   0.01995   0.75784   0.00000  Uiso   1.00
H966   H     0.47823   0.05783   0.72214   0.00000  Uiso   1.00
H967   H     0.50852   0.10408   0.65412   0.00000  Uiso   1.00
H968   H     0.59641   0.11149   0.62050   0.00000  Uiso   1.00
H969   H     0.65398   0.07309   0.65488   0.00000  Uiso   1.00
C970   C     0.40123   0.28964   0.79104   0.00000  Uiso   1.00
C971   C     0.38431   0.26392   0.83025   0.00000  Uiso   1.00
C972   C     0.41682   0.24212   0.84983   0.00000  Uiso   1.00
C973   C     0.46632   0.24629   0.83090   0.00000  Uiso   1.00
C974   C     0.48342   0.27241   0.79247   0.00000  Uiso   1.00
C975   C     0.45105   0.29398   0.77252   0.00000  Uiso   1.00
H976   H     0.34602   0.26024   0.84512   0.00000  Uiso   1.00
H977   H     0.40360   0.22184   0.87950   0.00000  Uiso   1.00
H978   H     0.49148   0.22925   0.84588   0.00000  Uiso   1.00
H979   H     0.52177   0.27550   0.77786   0.00000  Uiso   1.00
H980   H     0.46466   0.31338   0.74216   0.00000  Uiso   1.00
S981   S     0.43669   0.10475   0.82335   0.00000  Uiso   1.00
O982   O     0.46231   0.06410   0.81608   0.00000  Uiso   1.00
O983   O     0.44234   0.11914   0.86702   0.00000  Uiso   1.00
O984   O     0.37818   0.09556   0.82952   0.00000  Uiso   1.00
H985   H     0.36891   0.07502   0.85542   0.00000  Uiso   1.00
S986   S     0.56331   0.22859   0.67665   0.00000  Uiso   1.00
O987   O     0.55766   0.21420   0.63298   0.00000  Uiso   1.00
O988   O     0.53769   0.26923   0.68392   0.00000  Uiso   1.00
O989   O     0.62182   0.23777   0.67048   0.00000  Uiso   1.00
H990   H     0.63109   0.25831   0.64459   0.00000  Uiso   1.00
C991   C     0.66730   0.08757   0.74834   0.00000  Uiso   1.00
C992   C     0.99936   0.24576   0.75166   0.00000  Uiso   1.00
C993   C     0.86051   0.15217   0.54759   0.00000  Uiso   1.00
C994   C     0.80616   0.18116   0.95241   0.00000  Uiso   1.00
C995   C     0.90855   0.14726   0.52551   0.00000  Uiso   1.00
C996   C     0.75812   0.18607   0.97450   0.00000  Uiso   1.00
C997   C     0.96641   0.02209   0.73125   0.00000  Uiso   1.00
C998   C     0.70026   0.31125   0.76875   0.00000  Uiso   1.00
C999   C     0.96512   0.31267   0.73561   0.00000  Uiso   1.00
C1000  C     0.70154   0.02066   0.76439   0.00000  Uiso   1.00
C1001  C     0.99884   0.29040   0.75319   0.00000  Uiso   1.00
C1002  C     0.66783   0.04294   0.74681   0.00000  Uiso   1.00
C1003  C     0.85145   0.14146   0.77941   0.00000  Uiso   1.00
C1004  C     0.81521   0.19187   0.72060   0.00000  Uiso   1.00
C1005  C     0.80215   0.14082   0.78007   0.00000  Uiso   1.00
C1006  C     0.86452   0.19252   0.71993   0.00000  Uiso   1.00
C1007  C     0.97284   0.16688   0.83608   0.00000  Uiso   1.00
C1008  C     0.69383   0.16645   0.66392   0.00000  Uiso   1.00
C1009  C     0.95749   0.16511   0.88548   0.00000  Uiso   1.00
C1010  C     0.70918   0.16822   0.61452   0.00000  Uiso   1.00
C1011  C     0.97301   0.14823   0.95774   0.00000  Uiso   1.00
C1012  C     0.69366   0.18511   0.54226   0.00000  Uiso   1.00
C1013  C     0.98965   0.15456   0.91136   0.00000  Uiso   1.00
C1014  C     0.67702   0.17878   0.58864   0.00000  Uiso   1.00
C1015  C     0.90877   0.17126   0.90676   0.00000  Uiso   1.00
C1016  C     0.75790   0.16207   0.59324   0.00000  Uiso   1.00
C1017  C     0.89085   0.16533   0.95374   0.00000  Uiso   1.00
C1018  C     0.77582   0.16801   0.54626   0.00000  Uiso   1.00
C1019  C     0.92414   0.15361   0.97908   0.00000  Uiso   1.00
C1020  C     0.74253   0.17972   0.52092   0.00000  Uiso   1.00
C1021  C     0.84105   0.17005   0.97612   0.00000  Uiso   1.00
C1022  C     0.82561   0.16328   0.52388   0.00000  Uiso   1.00
Cu1023 Cu    0.71355   0.16667   0.75000   0.00000  Uiso   1.00
Cu1024 Cu    0.95311   0.16666   0.75000   0.00000  Uiso   1.00
H1025  H     0.93386   0.13844   0.54504   0.00000  Uiso   1.00
H1026  H     0.73280   0.19490   0.95496   0.00000  Uiso   1.00
H1027  H     0.78108   0.15306   0.61445   0.00000  Uiso   1.00
H1028  H     0.88559   0.18028   0.88555   0.00000  Uiso   1.00
H1029  H     0.97266   0.18317   0.60424   0.00000  Uiso   1.00
H1030  H     0.69401   0.15017   0.89576   0.00000  Uiso   1.00
H1031  H     0.99835   0.13844   0.97689   0.00000  Uiso   1.00
H1032  H     0.66832   0.19489   0.52311   0.00000  Uiso   1.00
H1033  H     0.85229   0.14695   0.58348   0.00000  Uiso   1.00
H1034  H     0.81437   0.18638   0.91652   0.00000  Uiso   1.00
H1035  H     0.93859   0.29681   0.72364   0.00000  Uiso   1.00
H1036  H     0.72808   0.03652   0.77636   0.00000  Uiso   1.00
H1037  H     0.86520   0.12150   0.80272   0.00000  Uiso   1.00
H1038  H     0.80147   0.21184   0.69728   0.00000  Uiso   1.00
N1039  N     0.78403   0.16668   0.74999   0.00000  Uiso   1.00
N1040  N     0.88264   0.16666   0.75001   0.00000  Uiso   1.00
O1041  O     0.70625   0.10655   0.75000   0.00000  Uiso   1.00
O1042  O     0.96042   0.22678   0.75000   0.00000  Uiso   1.00
O1043  O     0.96039   0.10654   0.75001   0.00000  Uiso   1.00
O1044  O     0.70628   0.22679   0.75000   0.00000  Uiso   1.00
O1045  O     0.68519   0.16668   0.81492   0.00000  Uiso   1.00
O1046  O     0.98148   0.16666   0.68509   0.00000  Uiso   1.00
O1047  O     0.93933   0.16667   0.81492   0.00000  Uiso   1.00
O1048  O     0.72733   0.16667   0.68508   0.00000  Uiso   1.00
C1049  C     0.93210   0.04370   0.70896   0.00000  Uiso   1.00
C1050  C     0.88229   0.03935   0.72748   0.00000  Uiso   1.00
C1051  C     0.84992   0.06093   0.70753   0.00000  Uiso   1.00
C1052  C     0.86701   0.08704   0.66910   0.00000  Uiso   1.00
C1053  C     0.91652   0.09121   0.65017   0.00000  Uiso   1.00
C1054  C     0.94902   0.06941   0.66975   0.00000  Uiso   1.00
H1055  H     0.86868   0.01995   0.75784   0.00000  Uiso   1.00
H1056  H     0.81156   0.05783   0.72214   0.00000  Uiso   1.00
H1057  H     0.84186   0.10408   0.65412   0.00000  Uiso   1.00
H1058  H     0.92974   0.11149   0.62050   0.00000  Uiso   1.00
H1059  H     0.98731   0.07309   0.65488   0.00000  Uiso   1.00
C1060  C     0.73457   0.28964   0.79104   0.00000  Uiso   1.00
C1061  C     0.71765   0.26392   0.83025   0.00000  Uiso   1.00
C1062  C     0.75015   0.24212   0.84983   0.00000  Uiso   1.00
C1063  C     0.79965   0.24629   0.83090   0.00000  Uiso   1.00
C1064  C     0.81675   0.27241   0.79247   0.00000  Uiso   1.00
C1065  C     0.78438   0.29398   0.77252   0.00000  Uiso   1.00
H1066  H     0.67936   0.26024   0.84512   0.00000  Uiso   1.00
H1067  H     0.73693   0.22184   0.87950   0.00000  Uiso   1.00
H1068  H     0.82481   0.22925   0.84588   0.00000  Uiso   1.00
H1069  H     0.85510   0.27550   0.77786   0.00000  Uiso   1.00
H1070  H     0.79799   0.31338   0.74216   0.00000  Uiso   1.00
S1071  S     0.77002   0.10475   0.82335   0.00000  Uiso   1.00
O1072  O     0.79564   0.06410   0.81608   0.00000  Uiso   1.00
O1073  O     0.77567   0.11914   0.86702   0.00000  Uiso   1.00
O1074  O     0.71151   0.09556   0.82952   0.00000  Uiso   1.00
H1075  H     0.70224   0.07502   0.85542   0.00000  Uiso   1.00
S1076  S     0.89664   0.22859   0.67665   0.00000  Uiso   1.00
O1077  O     0.89100   0.21420   0.63298   0.00000  Uiso   1.00
O1078  O     0.87102   0.26923   0.68392   0.00000  Uiso   1.00
O1079  O     0.95515   0.23777   0.67048   0.00000  Uiso   1.00
H1080  H     0.96442   0.25831   0.64459   0.00000  Uiso   1.00
C1081  C     0.00064   0.42090   0.74834   0.00000  Uiso   1.00
C1082  C     0.33270   0.57910   0.75166   0.00000  Uiso   1.00
C1083  C     0.19384   0.48550   0.54759   0.00000  Uiso   1.00
C1084  C     0.13949   0.51450   0.95241   0.00000  Uiso   1.00
C1085  C     0.24188   0.48059   0.52551   0.00000  Uiso   1.00
C1086  C     0.09145   0.51941   0.97450   0.00000  Uiso   1.00
C1087  C     0.29974   0.35542   0.73125   0.00000  Uiso   1.00
C1088  C     0.03359   0.64458   0.76875   0.00000  Uiso   1.00
C1089  C     0.29846   0.64601   0.73561   0.00000  Uiso   1.00
C1090  C     0.03488   0.35399   0.76439   0.00000  Uiso   1.00
C1091  C     0.33217   0.62373   0.75319   0.00000  Uiso   1.00
C1092  C     0.00116   0.37627   0.74681   0.00000  Uiso   1.00
C1093  C     0.18479   0.47480   0.77941   0.00000  Uiso   1.00
C1094  C     0.14855   0.52520   0.72060   0.00000  Uiso   1.00
C1095  C     0.13548   0.47415   0.78007   0.00000  Uiso   1.00
C1096  C     0.19785   0.52585   0.71993   0.00000  Uiso   1.00
C1097  C     0.30617   0.50022   0.83608   0.00000  Uiso   1.00
C1098  C     0.02716   0.49978   0.66392   0.00000  Uiso   1.00
C1099  C     0.29083   0.49845   0.88548   0.00000  Uiso   1.00
C1100  C     0.04251   0.50155   0.61452   0.00000  Uiso   1.00
C1101  C     0.30634   0.48156   0.95774   0.00000  Uiso   1.00
C1102  C     0.02699   0.51844   0.54226   0.00000  Uiso   1.00
C1103  C     0.32298   0.48789   0.91136   0.00000  Uiso   1.00
C1104  C     0.01035   0.51211   0.58864   0.00000  Uiso   1.00
C1105  C     0.24210   0.50460   0.90676   0.00000  Uiso   1.00
C1106  C     0.09123   0.49540   0.59324   0.00000  Uiso   1.00
C1107  C     0.22418   0.49866   0.95374   0.00000  Uiso   1.00
C1108  C     0.10915   0.50134   0.54626   0.00000  Uiso   1.00
C1109  C     0.25747   0.48695   0.97908   0.00000  Uiso   1.00
C1110  C     0.07586   0.51306   0.52092   0.00000  Uiso   1.00
C1111  C     0.17439   0.50339   0.97612   0.00000  Uiso   1.00
C1112  C     0.15895   0.49661   0.52388   0.00000  Uiso   1.00
Cu1113 Cu    0.04689   0.50001   0.75000   0.00000  Uiso   1.00
Cu1114 Cu    0.28645   0.49999   0.75000   0.00000  Uiso   1.00
H1115  H     0.26720   0.47177   0.54504   0.00000  Uiso   1.00
H1116  H     0.06614   0.52823   0.95496   0.00000  Uiso   1.00
H1117  H     0.11441   0.48639   0.61445   0.00000  Uiso   1.00
H1118  H     0.21892   0.51361   0.88555   0.00000  Uiso   1.00
H1119  H     0.30599   0.51650   0.60424   0.00000  Uiso   1.00
H1120  H     0.02734   0.48350   0.89576   0.00000  Uiso   1.00
H1121  H     0.33168   0.47178   0.97689   0.00000  Uiso   1.00
H1122  H     0.00165   0.52822   0.52311   0.00000  Uiso   1.00
H1123  H     0.18563   0.48028   0.58348   0.00000  Uiso   1.00
H1124  H     0.14771   0.51972   0.91652   0.00000  Uiso   1.00
H1125  H     0.27192   0.63014   0.72364   0.00000  Uiso   1.00
H1126  H     0.06141   0.36986   0.77636   0.00000  Uiso   1.00
H1127  H     0.19853   0.45483   0.80272   0.00000  Uiso   1.00
H1128  H     0.13480   0.54517   0.69728   0.00000  Uiso   1.00
N1129  N     0.11736   0.50001   0.74999   0.00000  Uiso   1.00
N1130  N     0.21597   0.49999   0.75001   0.00000  Uiso   1.00
O1131  O     0.03958   0.43989   0.75000   0.00000  Uiso   1.00
O1132  O     0.29375   0.56011   0.75000   0.00000  Uiso   1.00
O1133  O     0.29372   0.43988   0.75001   0.00000  Uiso   1.00
O1134  O     0.03961   0.56012   0.75000   0.00000  Uiso   1.00
O1135  O     0.01852   0.50001   0.81492   0.00000  Uiso   1.00
O1136  O     0.31481   0.49999   0.68509   0.00000  Uiso   1.00
O1137  O     0.27267   0.50000   0.81492   0.00000  Uiso   1.00
O1138  O     0.06067   0.50000   0.68508   0.00000  Uiso   1.00
C1139  C     0.26544   0.37703   0.70896   0.00000  Uiso   1.00
C1140  C     0.21562   0.37269   0.72748   0.00000  Uiso   1.00
C1141  C     0.18325   0.39426   0.70753   0.00000  Uiso   1.00
C1142  C     0.20035   0.42037   0.66910   0.00000  Uiso   1.00
C1143  C     0.24985   0.42454   0.65017   0.00000  Uiso   1.00
C1144  C     0.28236   0.40274   0.66975   0.00000  Uiso   1.00
H1145  H     0.20201   0.35328   0.75784   0.00000  Uiso   1.00
H1146  H     0.14490   0.39117   0.72214   0.00000  Uiso   1.00
H1147  H     0.17519   0.43742   0.65412   0.00000  Uiso   1.00
H1148  H     0.26307   0.44483   0.62050   0.00000  Uiso   1.00
H1149  H     0.32064   0.40642   0.65488   0.00000  Uiso   1.00
C1150  C     0.06790   0.62297   0.79104   0.00000  Uiso   1.00
C1151  C     0.05098   0.59726   0.83025   0.00000  Uiso   1.00
C1152  C     0.08348   0.57546   0.84983   0.00000  Uiso   1.00
C1153  C     0.13299   0.57963   0.83090   0.00000  Uiso   1.00
C1154  C     0.15008   0.60574   0.79247   0.00000  Uiso   1.00
C1155  C     0.11771   0.62732   0.77252   0.00000  Uiso   1.00
H1156  H     0.01269   0.59358   0.84512   0.00000  Uiso   1.00
H1157  H     0.07026   0.55517   0.87950   0.00000  Uiso   1.00
H1158  H     0.15814   0.56258   0.84588   0.00000  Uiso   1.00
H1159  H     0.18844   0.60883   0.77786   0.00000  Uiso   1.00
H1160  H     0.13132   0.64672   0.74216   0.00000  Uiso   1.00
S1161  S     0.10336   0.43808   0.82335   0.00000  Uiso   1.00
O1162  O     0.12898   0.39743   0.81608   0.00000  Uiso   1.00
O1163  O     0.10900   0.45247   0.86702   0.00000  Uiso   1.00
O1164  O     0.04485   0.42889   0.82952   0.00000  Uiso   1.00
H1165  H     0.03558   0.40836   0.85542   0.00000  Uiso   1.00
S1166  S     0.22998   0.56192   0.67665   0.00000  Uiso   1.00
O1167  O     0.22433   0.54753   0.63298   0.00000  Uiso   1.00
O1168  O     0.20436   0.60257   0.68392   0.00000  Uiso   1.00
O1169  O     0.28849   0.57111   0.67048   0.00000  Uiso   1.00
H1170  H     0.29776   0.59165   0.64459   0.00000  Uiso   1.00
C1171  C     0.33397   0.42090   0.74834   0.00000  Uiso   1.00
C1172  C     0.66603   0.57910   0.75166   0.00000  Uiso   1.00
C1173  C     0.52717   0.48550   0.54759   0.00000  Uiso   1.00
C1174  C     0.47283   0.51450   0.95241   0.00000  Uiso   1.00
C1175  C     0.57522   0.48059   0.52551   0.00000  Uiso   1.00
C1176  C     0.42478   0.51941   0.97450   0.00000  Uiso   1.00
C1177  C     0.63308   0.35542   0.73125   0.00000  Uiso   1.00
C1178  C     0.36692   0.64458   0.76875   0.00000  Uiso   1.00
C1179  C     0.63179   0.64601   0.73561   0.00000  Uiso   1.00
C1180  C     0.36821   0.35399   0.76439   0.00000  Uiso   1.00
C1181  C     0.66550   0.62373   0.75319   0.00000  Uiso   1.00
C1182  C     0.33450   0.37627   0.74681   0.00000  Uiso   1.00
C1183  C     0.51812   0.47480   0.77941   0.00000  Uiso   1.00
C1184  C     0.48188   0.52520   0.72060   0.00000  Uiso   1.00
C1185  C     0.46882   0.47415   0.78007   0.00000  Uiso   1.00
C1186  C     0.53118   0.52585   0.71993   0.00000  Uiso   1.00
C1187  C     0.63950   0.50022   0.83608   0.00000  Uiso   1.00
C1188  C     0.36050   0.49978   0.66392   0.00000  Uiso   1.00
C1189  C     0.62416   0.49845   0.88548   0.00000  Uiso   1.00
C1190  C     0.37584   0.50155   0.61452   0.00000  Uiso   1.00
C1191  C     0.63967   0.48156   0.95774   0.00000  Uiso   1.00
C1192  C     0.36033   0.51844   0.54226   0.00000  Uiso   1.00
C1193  C     0.65631   0.48789   0.91136   0.00000  Uiso   1.00
C1194  C     0.34369   0.51211   0.58864   0.00000  Uiso   1.00
C1195  C     0.57543   0.50460   0.90676   0.00000  Uiso   1.00
C1196  C     0.42457   0.49540   0.59324   0.00000  Uiso   1.00
C1197  C     0.55752   0.49866   0.95374   0.00000  Uiso   1.00
C1198  C     0.44248   0.50134   0.54626   0.00000  Uiso   1.00
C1199  C     0.59080   0.48695   0.97908   0.00000  Uiso   1.00
C1200  C     0.40920   0.51306   0.52092   0.00000  Uiso   1.00
C1201  C     0.50772   0.50339   0.97612   0.00000  Uiso   1.00
C1202  C     0.49228   0.49661   0.52388   0.00000  Uiso   1.00
Cu1203 Cu    0.38022   0.50001   0.75000   0.00000  Uiso   1.00
Cu1204 Cu    0.61978   0.49999   0.75000   0.00000  Uiso   1.00
H1205  H     0.60053   0.47177   0.54504   0.00000  Uiso   1.00
H1206  H     0.39947   0.52823   0.95496   0.00000  Uiso   1.00
H1207  H     0.44775   0.48639   0.61445   0.00000  Uiso   1.00
H1208  H     0.55225   0.51361   0.88555   0.00000  Uiso   1.00
H1209  H     0.63932   0.51650   0.60424   0.00000  Uiso   1.00
H1210  H     0.36068   0.48350   0.89576   0.00000  Uiso   1.00
H1211  H     0.66502   0.47178   0.97689   0.00000  Uiso   1.00
H1212  H     0.33498   0.52822   0.52311   0.00000  Uiso   1.00
H1213  H     0.51896   0.48028   0.58348   0.00000  Uiso   1.00
H1214  H     0.48104   0.51972   0.91652   0.00000  Uiso   1.00
H1215  H     0.60525   0.63014   0.72364   0.00000  Uiso   1.00
H1216  H     0.39475   0.36986   0.77636   0.00000  Uiso   1.00
H1217  H     0.53186   0.45483   0.80272   0.00000  Uiso   1.00
H1218  H     0.46814   0.54517   0.69728   0.00000  Uiso   1.00
N1219  N     0.45069   0.50001   0.74999   0.00000  Uiso   1.00
N1220  N     0.54931   0.49999   0.75001   0.00000  Uiso   1.00
O1221  O     0.37291   0.43989   0.75000   0.00000  Uiso   1.00
O1222  O     0.62709   0.56011   0.75000   0.00000  Uiso   1.00
O1223  O     0.62706   0.43988   0.75001   0.00000  Uiso   1.00
O1224  O     0.37294   0.56012   0.75000   0.00000  Uiso   1.00
O1225  O     0.35186   0.50001   0.81492   0.00000  Uiso   1.00
O1226  O     0.64814   0.49999   0.68509   0.00000  Uiso   1.00
O1227  O     0.60600   0.50000   0.81492   0.00000  Uiso   1.00
O1228  O     0.39400   0.50000   0.68508   0.00000  Uiso   1.00
C1229  C     0.59877   0.37703   0.70896   0.00000  Uiso   1.00
C1230  C     0.54895   0.37269   0.72748   0.00000  Uiso   1.00
C1231  C     0.51658   0.39426   0.70753   0.00000  Uiso   1.00
C1232  C     0.53368   0.42037   0.66910   0.00000  Uiso   1.00
C1233  C     0.58318   0.42454   0.65017   0.00000  Uiso   1.00
C1234  C     0.61569   0.40274   0.66975   0.00000  Uiso   1.00
H1235  H     0.53534   0.35328   0.75784   0.00000  Uiso   1.00
H1236  H     0.47823   0.39117   0.72214   0.00000  Uiso   1.00
H1237  H     0.50852   0.43742   0.65412   0.00000  Uiso   1.00
H1238  H     0.59641   0.44483   0.62050   0.00000  Uiso   1.00
H1239  H     0.65398   0.40642   0.65488   0.00000  Uiso   1.00
C1240  C     0.40123   0.62297   0.79104   0.00000  Uiso   1.00
C1241  C     0.38431   0.59726   0.83025   0.00000  Uiso   1.00
C1242  C     0.41682   0.57546   0.84983   0.00000  Uiso   1.00
C1243  C     0.46632   0.57963   0.83090   0.00000  Uiso   1.00
C1244  C     0.48342   0.60574   0.79247   0.00000  Uiso   1.00
C1245  C     0.45105   0.62732   0.77252   0.00000  Uiso   1.00
H1246  H     0.34602   0.59358   0.84512   0.00000  Uiso   1.00
H1247  H     0.40360   0.55517   0.87950   0.00000  Uiso   1.00
H1248  H     0.49148   0.56258   0.84588   0.00000  Uiso   1.00
H1249  H     0.52177   0.60883   0.77786   0.00000  Uiso   1.00
H1250  H     0.46466   0.64672   0.74216   0.00000  Uiso   1.00
S1251  S     0.43669   0.43808   0.82335   0.00000  Uiso   1.00
O1252  O     0.46231   0.39743   0.81608   0.00000  Uiso   1.00
O1253  O     0.44234   0.45247   0.86702   0.00000  Uiso   1.00
O1254  O     0.37818   0.42889   0.82952   0.00000  Uiso   1.00
H1255  H     0.36891   0.40836   0.85542   0.00000  Uiso   1.00
S1256  S     0.56331   0.56192   0.67665   0.00000  Uiso   1.00
O1257  O     0.55766   0.54753   0.63298   0.00000  Uiso   1.00
O1258  O     0.53769   0.60257   0.68392   0.00000  Uiso   1.00
O1259  O     0.62182   0.57111   0.67048   0.00000  Uiso   1.00
H1260  H     0.63109   0.59165   0.64459   0.00000  Uiso   1.00
C1261  C     0.66730   0.42090   0.74834   0.00000  Uiso   1.00
C1262  C     0.99936   0.57910   0.75166   0.00000  Uiso   1.00
C1263  C     0.86051   0.48550   0.54759   0.00000  Uiso   1.00
C1264  C     0.80616   0.51450   0.95241   0.00000  Uiso   1.00
C1265  C     0.90855   0.48059   0.52551   0.00000  Uiso   1.00
C1266  C     0.75812   0.51941   0.97450   0.00000  Uiso   1.00
C1267  C     0.96641   0.35542   0.73125   0.00000  Uiso   1.00
C1268  C     0.70026   0.64458   0.76875   0.00000  Uiso   1.00
C1269  C     0.96512   0.64601   0.73561   0.00000  Uiso   1.00
C1270  C     0.70154   0.35399   0.76439   0.00000  Uiso   1.00
C1271  C     0.99884   0.62373   0.75319   0.00000  Uiso   1.00
C1272  C     0.66783   0.37627   0.74681   0.00000  Uiso   1.00
C1273  C     0.85145   0.47480   0.77941   0.00000  Uiso   1.00
C1274  C     0.81521   0.52520   0.72060   0.00000  Uiso   1.00
C1275  C     0.80215   0.47415   0.78007   0.00000  Uiso   1.00
C1276  C     0.86452   0.52585   0.71993   0.00000  Uiso   1.00
C1277  C     0.97284   0.50022   0.83608   0.00000  Uiso   1.00
C1278  C     0.69383   0.49978   0.66392   0.00000  Uiso   1.00
C1279  C     0.95749   0.49845   0.88548   0.00000  Uiso   1.00
C1280  C     0.70918   0.50155   0.61452   0.00000  Uiso   1.00
C1281  C     0.97301   0.48156   0.95774   0.00000  Uiso   1.00
C1282  C     0.69366   0.51844   0.54226   0.00000  Uiso   1.00
C1283  C     0.98965   0.48789   0.91136   0.00000  Uiso   1.00
C1284  C     0.67702   0.51211   0.58864   0.00000  Uiso   1.00
C1285  C     0.90877   0.50460   0.90676   0.00000  Uiso   1.00
C1286  C     0.75790   0.49540   0.59324   0.00000  Uiso   1.00
C1287  C     0.89085   0.49866   0.95374   0.00000  Uiso   1.00
C1288  C     0.77582   0.50134   0.54626   0.00000  Uiso   1.00
C1289  C     0.92414   0.48695   0.97908   0.00000  Uiso   1.00
C1290  C     0.74253   0.51306   0.52092   0.00000  Uiso   1.00
C1291  C     0.84105   0.50339   0.97612   0.00000  Uiso   1.00
C1292  C     0.82561   0.49661   0.52388   0.00000  Uiso   1.00
Cu1293 Cu    0.71355   0.50001   0.75000   0.00000  Uiso   1.00
Cu1294 Cu    0.95311   0.49999   0.75000   0.00000  Uiso   1.00
H1295  H     0.93386   0.47177   0.54504   0.00000  Uiso   1.00
H1296  H     0.73280   0.52823   0.95496   0.00000  Uiso   1.00
H1297  H     0.78108   0.48639   0.61445   0.00000  Uiso   1.00
H1298  H     0.88559   0.51361   0.88555   0.00000  Uiso   1.00
H1299  H     0.97266   0.51650   0.60424   0.00000  Uiso   1.00
H1300  H     0.69401   0.48350   0.89576   0.00000  Uiso   1.00
H1301  H     0.99835   0.47178   0.97689   0.00000  Uiso   1.00
H1302  H     0.66832   0.52822   0.52311   0.00000  Uiso   1.00
H1303  H     0.85229   0.48028   0.58348   0.00000  Uiso   1.00
H1304  H     0.81437   0.51972   0.91652   0.00000  Uiso   1.00
H1305  H     0.93859   0.63014   0.72364   0.00000  Uiso   1.00
H1306  H     0.72808   0.36986   0.77636   0.00000  Uiso   1.00
H1307  H     0.86520   0.45483   0.80272   0.00000  Uiso   1.00
H1308  H     0.80147   0.54517   0.69728   0.00000  Uiso   1.00
N1309  N     0.78403   0.50001   0.74999   0.00000  Uiso   1.00
N1310  N     0.88264   0.49999   0.75001   0.00000  Uiso   1.00
O1311  O     0.70625   0.43989   0.75000   0.00000  Uiso   1.00
O1312  O     0.96042   0.56011   0.75000   0.00000  Uiso   1.00
O1313  O     0.96039   0.43988   0.75001   0.00000  Uiso   1.00
O1314  O     0.70628   0.56012   0.75000   0.00000  Uiso   1.00
O1315  O     0.68519   0.50001   0.81492   0.00000  Uiso   1.00
O1316  O     0.98148   0.49999   0.68509   0.00000  Uiso   1.00
O1317  O     0.93933   0.50000   0.81492   0.00000  Uiso   1.00
O1318  O     0.72733   0.50000   0.68508   0.00000  Uiso   1.00
C1319  C     0.93210   0.37703   0.70896   0.00000  Uiso   1.00
C1320  C     0.88229   0.37269   0.72748   0.00000  Uiso   1.00
C1321  C     0.84992   0.39426   0.70753   0.00000  Uiso   1.00
C1322  C     0.86701   0.42037   0.66910   0.00000  Uiso   1.00
C1323  C     0.91652   0.42454   0.65017   0.00000  Uiso   1.00
C1324  C     0.94902   0.40274   0.66975   0.00000  Uiso   1.00
H1325  H     0.86868   0.35328   0.75784   0.00000  Uiso   1.00
H1326  H     0.81156   0.39117   0.72214   0.00000  Uiso   1.00
H1327  H     0.84186   0.43742   0.65412   0.00000  Uiso   1.00
H1328  H     0.92974   0.44483   0.62050   0.00000  Uiso   1.00
H1329  H     0.98731   0.40642   0.65488   0.00000  Uiso   1.00
C1330  C     0.73457   0.62297   0.79104   0.00000  Uiso   1.00
C1331  C     0.71765   0.59726   0.83025   0.00000  Uiso   1.00
C1332  C     0.75015   0.57546   0.84983   0.00000  Uiso   1.00
C1333  C     0.79965   0.57963   0.83090   0.00000  Uiso   1.00
C1334  C     0.81675   0.60574   0.79247   0.00000  Uiso   1.00
C1335  C     0.78438   0.62732   0.77252   0.00000  Uiso   1.00
H1336  H     0.67936   0.59358   0.84512   0.00000  Uiso   1.00
H1337  H     0.73693   0.55517   0.87950   0.00000  Uiso   1.00
H1338  H     0.82481   0.56258   0.84588   0.00000  Uiso   1.00
H1339  H     0.85510   0.60883   0.77786   0.00000  Uiso   1.00
H1340  H     0.79799   0.64672   0.74216   0.00000  Uiso   1.00
S1341  S     0.77002   0.43808   0.82335   0.00000  Uiso   1.00
O1342  O     0.79564   0.39743   0.81608   0.00000  Uiso   1.00
O1343  O     0.77567   0.45247   0.86702   0.00000  Uiso   1.00
O1344  O     0.71151   0.42889   0.82952   0.00000  Uiso   1.00
H1345  H     0.70224   0.40836   0.85542   0.00000  Uiso   1.00
S1346  S     0.89664   0.56192   0.67665   0.00000  Uiso   1.00
O1347  O     0.89100   0.54753   0.63298   0.00000  Uiso   1.00
O1348  O     0.87102   0.60257   0.68392   0.00000  Uiso   1.00
O1349  O     0.95515   0.57111   0.67048   0.00000  Uiso   1.00
H1350  H     0.96442   0.59165   0.64459   0.00000  Uiso   1.00
C1351  C     0.00064   0.75424   0.74834   0.00000  Uiso   1.00
C1352  C     0.33270   0.91243   0.75166   0.00000  Uiso   1.00
C1353  C     0.19384   0.81884   0.54759   0.00000  Uiso   1.00
C1354  C     0.13949   0.84783   0.95241   0.00000  Uiso   1.00
C1355  C     0.24188   0.81393   0.52551   0.00000  Uiso   1.00
C1356  C     0.09145   0.85274   0.97450   0.00000  Uiso   1.00
C1357  C     0.29974   0.68875   0.73125   0.00000  Uiso   1.00
C1358  C     0.03359   0.97792   0.76875   0.00000  Uiso   1.00
C1359  C     0.29846   0.97934   0.73561   0.00000  Uiso   1.00
C1360  C     0.03488   0.68733   0.76439   0.00000  Uiso   1.00
C1361  C     0.33217   0.95706   0.75319   0.00000  Uiso   1.00
C1362  C     0.00116   0.70960   0.74681   0.00000  Uiso   1.00
C1363  C     0.18479   0.80813   0.77941   0.00000  Uiso   1.00
C1364  C     0.14855   0.85854   0.72060   0.00000  Uiso   1.00
C1365  C     0.13548   0.80748   0.78007   0.00000  Uiso   1.00
C1366  C     0.19785   0.85918   0.71993   0.00000  Uiso   1.00
C1367  C     0.30617   0.83355   0.83608   0.00000  Uiso   1.00
C1368  C     0.02716   0.83312   0.66392   0.00000  Uiso   1.00
C1369  C     0.29083   0.83178   0.88548   0.00000  Uiso   1.00
C1370  C     0.04251   0.83489   0.61452   0.00000  Uiso   1.00
C1371  C     0.30634   0.81489   0.95774   0.00000  Uiso   1.00
C1372  C     0.02699   0.85177   0.54226   0.00000  Uiso   1.00
C1373  C     0.32298   0.82122   0.91136   0.00000  Uiso   1.00
C1374  C     0.01035   0.84544   0.58864   0.00000  Uiso   1.00
C1375  C     0.24210   0.83793   0.90676   0.00000  Uiso   1.00
C1376  C     0.09123   0.82874   0.59324   0.00000  Uiso   1.00
C1377  C     0.22418   0.83199   0.95374   0.00000  Uiso   1.00
C1378  C     0.10915   0.83467   0.54626   0.00000  Uiso   1.00
C1379  C     0.25747   0.82028   0.97908   0.00000  Uiso   1.00
C1380  C     0.07586   0.84639   0.52092   0.00000  Uiso   1.00
C1381  C     0.17439   0.83672   0.97612   0.00000  Uiso   1.00
C1382  C     0.15895   0.82995   0.52388   0.00000  Uiso   1.00
Cu1383 Cu    0.04689   0.83334   0.75000   0.00000  Uiso   1.00
Cu1384 Cu    0.28645   0.83333   0.75000   0.00000  Uiso   1.00
H1385  H     0.26720   0.80510   0.54504   0.00000  Uiso   1.00
H1386  H     0.06614   0.86156   0.95496   0.00000  Uiso   1.00
H1387  H     0.11441   0.81972   0.61445   0.00000  Uiso   1.00
H1388  H     0.21892   0.84694   0.88555   0.00000  Uiso   1.00
H1389  H     0.30599   0.84983   0.60424   0.00000  Uiso   1.00
H1390  H     0.02734   0.81683   0.89576   0.00000  Uiso   1.00
H1391  H     0.33168   0.80511   0.97689   0.00000  Uiso   1.00
H1392  H     0.00165   0.86156   0.52311   0.00000  Uiso   1.00
H1393  H     0.18563   0.81362   0.58348   0.00000  Uiso   1.00
H1394  H     0.14771   0.85305   0.91652   0.00000  Uiso   1.00
H1395  H     0.27192   0.96348   0.72364   0.00000  Uiso   1.00
H1396  H     0.06141   0.70319   0.77636   0.00000  Uiso   1.00
H1397  H     0.19853   0.78816   0.80272   0.00000  Uiso   1.00
H1398  H     0.13480   0.87851   0.69728   0.00000  Uiso   1.00
N1399  N     0.11736   0.83334   0.74999   0.00000  Uiso   1.00
N1400  N     0.21597   0.83332   0.75001   0.00000  Uiso   1.00
O1401  O     0.03958   0.77322   0.75000   0.00000  Uiso   1.00
O1402  O     0.29375   0.89345   0.75000   0.00000  Uiso   1.00
O1403  O     0.29372   0.77321   0.75001   0.00000  Uiso   1.00
O1404  O     0.03961   0.89346   0.75000   0.00000  Uiso   1.00
O1405  O     0.01852   0.83334   0.81492   0.00000  Uiso   1.00
O1406  O     0.31481   0.83332   0.68509   0.00000  Uiso   1.00
O1407  O     0.27267   0.83333   0.81492   0.00000  Uiso   1.00
O1408  O     0.06067   0.83333   0.68508   0.00000  Uiso   1.00
C1409  C     0.26544   0.71036   0.70896   0.00000  Uiso   1.00
C1410  C     0.21562   0.70602   0.72748   0.00000  Uiso   1.00
C1411  C     0.18325   0.72759   0.70753   0.00000  Uiso   1.00
C1412  C     0.20035   0.75371   0.66910   0.00000  Uiso   1.00
C1413  C     0.24985   0.75788   0.65017   0.00000  Uiso   1.00
C1414  C     0.28236   0.73608   0.66975   0.00000  Uiso   1.00
H1415  H     0.20201   0.68662   0.75784   0.00000  Uiso   1.00
H1416  H     0.14490   0.72450   0.72214   0.00000  Uiso   1.00
H1417  H     0.17519   0.77075   0.65412   0.00000  Uiso   1.00
H1418  H     0.26307   0.77816   0.62050   0.00000  Uiso   1.00
H1419  H     0.32064   0.73976   0.65488   0.00000  Uiso   1.00
C1420  C     0.06790   0.95630   0.79104   0.00000  Uiso   1.00
C1421  C     0.05098   0.93059   0.83025   0.00000  Uiso   1.00
C1422  C     0.08348   0.90879   0.84983   0.00000  Uiso   1.00
C1423  C     0.13299   0.91296   0.83090   0.00000  Uiso   1.00
C1424  C     0.15008   0.93907   0.79247   0.00000  Uiso   1.00
C1425  C     0.11771   0.96065   0.77252   0.00000  Uiso   1.00
H1426  H     0.01269   0.92691   0.84512   0.00000  Uiso   1.00
H1427  H     0.07026   0.88851   0.87950   0.00000  Uiso   1.00
H1428  H     0.15814   0.89592   0.84588   0.00000  Uiso   1.00
H1429  H     0.18844   0.94217   0.77786   0.00000  Uiso   1.00
H1430  H     0.13132   0.98005   0.74216   0.00000  Uiso   1.00
S1431  S     0.10336   0.77141   0.82335   0.00000  Uiso   1.00
O1432  O     0.12898   0.73077   0.81608   0.00000  Uiso   1.00
O1433  O     0.10900   0.78581   0.86702   0.00000  Uiso   1.00
O1434  O     0.04485   0.76223   0.82952   0.00000  Uiso   1.00
H1435  H     0.03558   0.74169   0.85542   0.00000  Uiso   1.00
S1436  S     0.22998   0.89525   0.67665   0.00000  Uiso   1.00
O1437  O     0.22433   0.88086   0.63298   0.00000  Uiso   1.00
O1438  O     0.20436   0.93590   0.68392   0.00000  Uiso   1.00
O1439  O     0.28849   0.90444   0.67048   0.00000  Uiso   1.00
H1440  H     0.29776   0.92498   0.64459   0.00000  Uiso   1.00
C1441  C     0.33397   0.75424   0.74834   0.00000  Uiso   1.00
C1442  C     0.66603   0.91243   0.75166   0.00000  Uiso   1.00
C1443  C     0.52717   0.81884   0.54759   0.00000  Uiso   1.00
C1444  C     0.47283   0.84783   0.95241   0.00000  Uiso   1.00
C1445  C     0.57522   0.81393   0.52551   0.00000  Uiso   1.00
C1446  C     0.42478   0.85274   0.97450   0.00000  Uiso   1.00
C1447  C     0.63308   0.68875   0.73125   0.00000  Uiso   1.00
C1448  C     0.36692   0.97792   0.76875   0.00000  Uiso   1.00
C1449  C     0.63179   0.97934   0.73561   0.00000  Uiso   1.00
C1450  C     0.36821   0.68733   0.76439   0.00000  Uiso   1.00
C1451  C     0.66550   0.95706   0.75319   0.00000  Uiso   1.00
C1452  C     0.33450   0.70960   0.74681   0.00000  Uiso   1.00
C1453  C     0.51812   0.80813   0.77941   0.00000  Uiso   1.00
C1454  C     0.48188   0.85854   0.72060   0.00000  Uiso   1.00
C1455  C     0.46882   0.80748   0.78007   0.00000  Uiso   1.00
C1456  C     0.53118   0.85918   0.71993   0.00000  Uiso   1.00
C1457  C     0.63950   0.83355   0.83608   0.00000  Uiso   1.00
C1458  C     0.36050   0.83312   0.66392   0.00000  Uiso   1.00
C1459  C     0.62416   0.83178   0.88548   0.00000  Uiso   1.00
C1460  C     0.37584   0.83489   0.61452   0.00000  Uiso   1.00
C1461  C     0.63967   0.81489   0.95774   0.00000  Uiso   1.00
C1462  C     0.36033   0.85177   0.54226   0.00000  Uiso   1.00
C1463  C     0.65631   0.82122   0.91136   0.00000  Uiso   1.00
C1464  C     0.34369   0.84544   0.58864   0.00000  Uiso   1.00
C1465  C     0.57543   0.83793   0.90676   0.00000  Uiso   1.00
C1466  C     0.42457   0.82874   0.59324   0.00000  Uiso   1.00
C1467  C     0.55752   0.83199   0.95374   0.00000  Uiso   1.00
C1468  C     0.44248   0.83467   0.54626   0.00000  Uiso   1.00
C1469  C     0.59080   0.82028   0.97908   0.00000  Uiso   1.00
C1470  C     0.40920   0.84639   0.52092   0.00000  Uiso   1.00
C1471  C     0.50772   0.83672   0.97612   0.00000  Uiso   1.00
C1472  C     0.49228   0.82995   0.52388   0.00000  Uiso   1.00
Cu1473 Cu    0.38022   0.83334   0.75000   0.00000  Uiso   1.00
Cu1474 Cu    0.61978   0.83333   0.75000   0.00000  Uiso   1.00
H1475  H     0.60053   0.80510   0.54504   0.00000  Uiso   1.00
H1476  H     0.39947   0.86156   0.95496   0.00000  Uiso   1.00
H1477  H     0.44775   0.81972   0.61445   0.00000  Uiso   1.00
H1478  H     0.55225   0.84694   0.88555   0.00000  Uiso   1.00
H1479  H     0.63932   0.84983   0.60424   0.00000  Uiso   1.00
H1480  H     0.36068   0.81683   0.89576   0.00000  Uiso   1.00
H1481  H     0.66502   0.80511   0.97689   0.00000  Uiso   1.00
H1482  H     0.33498   0.86156   0.52311   0.00000  Uiso   1.00
H1483  H     0.51896   0.81362   0.58348   0.00000  Uiso   1.00
H1484  H     0.48104   0.85305   0.91652   0.00000  Uiso   1.00
H1485  H     0.60525   0.96348   0.72364   0.00000  Uiso   1.00
H1486  H     0.39475   0.70319   0.77636   0.00000  Uiso   1.00
H1487  H     0.53186   0.78816   0.80272   0.00000  Uiso   1.00
H1488  H     0.46814   0.87851   0.69728   0.00000  Uiso   1.00
N1489  N     0.45069   0.83334   0.74999   0.00000  Uiso   1.00
N1490  N     0.54931   0.83332   0.75001   0.00000  Uiso   1.00
O1491  O     0.37291   0.77322   0.75000   0.00000  Uiso   1.00
O1492  O     0.62709   0.89345   0.75000   0.00000  Uiso   1.00
O1493  O     0.62706   0.77321   0.75001   0.00000  Uiso   1.00
O1494  O     0.37294   0.89346   0.75000   0.00000  Uiso   1.00
O1495  O     0.35186   0.83334   0.81492   0.00000  Uiso   1.00
O1496  O     0.64814   0.83332   0.68509   0.00000  Uiso   1.00
O1497  O     0.60600   0.83333   0.81492   0.00000  Uiso   1.00
O1498  O     0.39400   0.83333   0.68508   0.00000  Uiso   1.00
C1499  C     0.59877   0.71036   0.70896   0.00000  Uiso   1.00
C1500  C     0.54895   0.70602   0.72748   0.00000  Uiso   1.00
C1501  C     0.51658   0.72759   0.70753   0.00000  Uiso   1.00
C1502  C     0.53368   0.75371   0.66910   0.00000  Uiso   1.00
C1503  C     0.58318   0.75788   0.65017   0.00000  Uiso   1.00
C1504  C     0.61569   0.73608   0.66975   0.00000  Uiso   1.00
H1505  H     0.53534   0.68662   0.75784   0.00000  Uiso   1.00
H1506  H     0.47823   0.72450   0.72214   0.00000  Uiso   1.00
H1507  H     0.50852   0.77075   0.65412   0.00000  Uiso   1.00
H1508  H     0.59641   0.77816   0.62050   0.00000  Uiso   1.00
H1509  H     0.65398   0.73976   0.65488   0.00000  Uiso   1.00
C1510  C     0.40123   0.95630   0.79104   0.00000  Uiso   1.00
C1511  C     0.38431   0.93059   0.83025   0.00000  Uiso   1.00
C1512  C     0.41682   0.90879   0.84983   0.00000  Uiso   1.00
C1513  C     0.46632   0.91296   0.83090   0.00000  Uiso   1.00
C1514  C     0.48342   0.93907   0.79247   0.00000  Uiso   1.00
C1515  C     0.45105   0.96065   0.77252   0.00000  Uiso   1.00
H1516  H     0.34602   0.92691   0.84512   0.00000  Uiso   1.00
H1517  H     0.40360   0.88851   0.87950   0.00000  Uiso   1.00
H1518  H     0.49148   0.89592   0.84588   0.00000  Uiso   1.00
H1519  H     0.52177   0.94217   0.77786   0.00000  Uiso   1.00
H1520  H     0.46466   0.98005   0.74216   0.00000  Uiso   1.00
S1521  S     0.43669   0.77141   0.82335   0.00000  Uiso   1.00
O1522  O     0.46231   0.73077   0.81608   0.00000  Uiso   1.00
O1523  O     0.44234   0.78581   0.86702   0.00000  Uiso   1.00
O1524  O     0.37818   0.76223   0.82952   0.00000  Uiso   1.00
H1525  H     0.36891   0.74169   0.85542   0.00000  Uiso   1.00
S1526  S     0.56331   0.89525   0.67665   0.00000  Uiso   1.00
O1527  O     0.55766   0.88086   0.63298   0.00000  Uiso   1.00
O1528  O     0.53769   0.93590   0.68392   0.00000  Uiso   1.00
O1529  O     0.62182   0.90444   0.67048   0.00000  Uiso   1.00
H1530  H     0.63109   0.92498   0.64459   0.00000  Uiso   1.00
C1531  C     0.66730   0.75424   0.74834   0.00000  Uiso   1.00
C1532  C     0.99936   0.91243   0.75166   0.00000  Uiso   1.00
C1533  C     0.86051   0.81884   0.54759   0.00000  Uiso   1.00
C1534  C     0.80616   0.84783   0.95241   0.00000  Uiso   1.00
C1535  C     0.90855   0.81393   0.52551   0.00000  Uiso   1.00
C1536  C     0.75812   0.85274   0.97450   0.00000  Uiso   1.00
C1537  C     0.96641   0.68875   0.73125   0.00000  Uiso   1.00
C1538  C     0.70026   0.97792   0.76875   0.00000  Uiso   1.00
C1539  C     0.96512   0.97934   0.73561   0.00000  Uiso   1.00
C1540  C     0.70154   0.68733   0.76439   0.00000  Uiso   1.00
C1541  C     0.99884   0.95706   0.75319   0.00000  Uiso   1.00
C1542  C     0.66783   0.70960   0.74681   0.00000  Uiso   1.00
C1543  C     0.85145   0.80813   0.77941   0.00000  Uiso   1.00
C1544  C     0.81521   0.85854   0.72060   0.00000  Uiso   1.00
C1545  C     0.80215   0.80748   0.78007   0.00000  Uiso   1.00
C1546  C     0.86452   0.85918   0.71993   0.00000  Uiso   1.00
C1547  C     0.97284   0.83355   0.83608   0.00000  Uiso   1.00
C1548  C     0.69383   0.83312   0.66392   0.00000  Uiso   1.00
C1549  C     0.95749   0.83178   0.88548   0.00000  Uiso   1.00
C1550  C     0.70918   0.83489   0.61452   0.00000  Uiso   1.00
C1551  C     0.97301   0.81489   0.95774   0.00000  Uiso   1.00
C1552  C     0.69366   0.85177   0.54226   0.00000  Uiso   1.00
C1553  C     0.98965   0.82122   0.91136   0.00000  Uiso   1.00
C1554  C     0.67702   0.84544   0.58864   0.00000  Uiso   1.00
C1555  C     0.90877   0.83793   0.90676   0.00000  Uiso   1.00
C1556  C     0.75790   0.82874   0.59324   0.00000  Uiso   1.00
C1557  C     0.89085   0.83199   0.95374   0.00000  Uiso   1.00
C1558  C     0.77582   0.83467   0.54626   0.00000  Uiso   1.00
C1559  C     0.92414   0.82028   0.97908   0.00000  Uiso   1.00
C1560  C     0.74253   0.84639   0.52092   0.00000  Uiso   1.00
C1561  C     0.84105   0.83672   0.97612   0.00000  Uiso   1.00
C1562  C     0.82561   0.82995   0.52388   0.00000  Uiso   1.00
Cu1563 Cu    0.71355   0.83334   0.75000   0.00000  Uiso   1.00
Cu1564 Cu    0.95311   0.83333   0.75000   0.00000  Uiso   1.00
H1565  H     0.93386   0.80510   0.54504   0.00000  Uiso   1.00
H1566  H     0.73280   0.86156   0.95496   0.00000  Uiso   1.00
H1567  H     0.78108   0.81972   0.61445   0.00000  Uiso   1.00
H1568  H     0.88559   0.84694   0.88555   0.00000  Uiso   1.00
H1569  H     0.97266   0.84983   0.60424   0.00000  Uiso   1.00
H1570  H     0.69401   0.81683   0.89576   0.00000  Uiso   1.00
H1571  H     0.99835   0.80511   0.97689   0.00000  Uiso   1.00
H1572  H     0.66832   0.86156   0.52311   0.00000  Uiso   1.00
H1573  H     0.85229   0.81362   0.58348   0.00000  Uiso   1.00
H1574  H     0.81437   0.85305   0.91652   0.00000  Uiso   1.00
H1575  H     0.93859   0.96348   0.72364   0.00000  Uiso   1.00
H1576  H     0.72808   0.70319   0.77636   0.00000  Uiso   1.00
H1577  H     0.86520   0.78816   0.80272   0.00000  Uiso   1.00
H1578  H     0.80147   0.87851   0.69728   0.00000  Uiso   1.00
N1579  N     0.78403   0.83334   0.74999   0.00000  Uiso   1.00
N1580  N     0.88264   0.83332   0.75001   0.00000  Uiso   1.00
O1581  O     0.70625   0.77322   0.75000   0.00000  Uiso   1.00
O1582  O     0.96042   0.89345   0.75000   0.00000  Uiso   1.00
O1583  O     0.96039   0.77321   0.75001   0.00000  Uiso   1.00
O1584  O     0.70628   0.89346   0.75000   0.00000  Uiso   1.00
O1585  O     0.68519   0.83334   0.81492   0.00000  Uiso   1.00
O1586  O     0.98148   0.83332   0.68509   0.00000  Uiso   1.00
O1587  O     0.93933   0.83333   0.81492   0.00000  Uiso   1.00
O1588  O     0.72733   0.83333   0.68508   0.00000  Uiso   1.00
C1589  C     0.93210   0.71036   0.70896   0.00000  Uiso   1.00
C1590  C     0.88229   0.70602   0.72748   0.00000  Uiso   1.00
C1591  C     0.84992   0.72759   0.70753   0.00000  Uiso   1.00
C1592  C     0.86701   0.75371   0.66910   0.00000  Uiso   1.00
C1593  C     0.91652   0.75788   0.65017   0.00000  Uiso   1.00
C1594  C     0.94902   0.73608   0.66975   0.00000  Uiso   1.00
H1595  H     0.86868   0.68662   0.75784   0.00000  Uiso   1.00
H1596  H     0.81156   0.72450   0.72214   0.00000  Uiso   1.00
H1597  H     0.84186   0.77075   0.65412   0.00000  Uiso   1.00
H1598  H     0.92974   0.77816   0.62050   0.00000  Uiso   1.00
H1599  H     0.98731   0.73976   0.65488   0.00000  Uiso   1.00
C1600  C     0.73457   0.95630   0.79104   0.00000  Uiso   1.00
C1601  C     0.71765   0.93059   0.83025   0.00000  Uiso   1.00
C1602  C     0.75015   0.90879   0.84983   0.00000  Uiso   1.00
C1603  C     0.79965   0.91296   0.83090   0.00000  Uiso   1.00
C1604  C     0.81675   0.93907   0.79247   0.00000  Uiso   1.00
C1605  C     0.78438   0.96065   0.77252   0.00000  Uiso   1.00
H1606  H     0.67936   0.92691   0.84512   0.00000  Uiso   1.00
H1607  H     0.73693   0.88851   0.87950   0.00000  Uiso   1.00
H1608  H     0.82481   0.89592   0.84588   0.00000  Uiso   1.00
H1609  H     0.85510   0.94217   0.77786   0.00000  Uiso   1.00
H1610  H     0.79799   0.98005   0.74216   0.00000  Uiso   1.00
S1611  S     0.77002   0.77141   0.82335   0.00000  Uiso   1.00
O1612  O     0.79564   0.73077   0.81608   0.00000  Uiso   1.00
O1613  O     0.77567   0.78581   0.86702   0.00000  Uiso   1.00
O1614  O     0.71151   0.76223   0.82952   0.00000  Uiso   1.00
H1615  H     0.70224   0.74169   0.85542   0.00000  Uiso   1.00
S1616  S     0.89664   0.89525   0.67665   0.00000  Uiso   1.00
O1617  O     0.89100   0.88086   0.63298   0.00000  Uiso   1.00
O1618  O     0.87102   0.93590   0.68392   0.00000  Uiso   1.00
O1619  O     0.95515   0.90444   0.67048   0.00000  Uiso   1.00
H1620  H     0.96442   0.92498   0.64459   0.00000  Uiso   1.00
loop_
_geom_bond_atom_site_label_1
_geom_bond_atom_site_label_2
_geom_bond_distance
_geom_bond_site_symmetry_2
_ccdc_geom_bond_type
C1     C12     1.455   .     S
C1     O51     1.302   .     A
C1     O233    1.293   1_455 S
C2     C11     1.455   .     S
C2     O52     1.302   .     A
C2     O144    1.293   .     S
C3     H43     1.074   .     S
C3     C32     1.416   .     A
C3     C5      1.385   .     A
C4     C6      1.385   .     A
C4     H44     1.074   .     S
C4     C31     1.416   .     A
C5     H35     1.083   .     S
C5     C839    1.389   1_554 S
C6     H36     1.083   .     S
C6     C840    1.389   .     S
C7     C59     1.485   .     S
C7     C549    1.387   1_545 S
C7     C102    1.415   .     S
C8     C70     1.485   .     S
C8     C280    1.387   .     S
C8     C191    1.415   1_455 S
C9     H45     1.081   .     S
C9     C11     1.399   .     A
C9     C277    1.387   .     S
C10    H46     1.081   .     S
C10    C12     1.399   .     A
C10    C548    1.387   1_545 S
C11    C98     1.415   .     S
C12    C187    1.415   1_455 S
C13    H47     1.083   .     S
C13    N50     1.343   .     A
C13    C15     1.413   .     A
C14    N49     1.343   .     A
C14    H48     1.083   .     S
C14    C16     1.413   .     A
C15    S81     1.791   .     S
C15    N49     1.405   .     A
C16    N50     1.405   .     A
C16    S86     1.791   .     S
C17    C19     1.471   .     S
C17    O57     1.297   .     A
C17    O145    1.307   .     S
C18    O58     1.297   .     A
C18    C20     1.471   .     S
C18    O236    1.307   1_455 S
C19    C23     1.395   .     A
C19    C25     1.402   .     A
C20    C24     1.395   .     A
C20    C26     1.402   .     A
C21    C29     1.403   .     A
C21    H41     1.083   .     S
C21    C23     1.389   .     A
C22    C24     1.389   .     A
C22    C30     1.403   .     A
C22    H42     1.083   .     S
C23    H130    1.078   .     S
C24    H219    1.078   1_455 S
C25    H38     1.074   .     S
C25    C27     1.409   .     A
C26    C28     1.409   .     A
C26    H37     1.074   .     S
C27    C29     1.418   .     A
C27    C31     1.431   .     A
C28    C32     1.431   .     A
C28    C30     1.418   .     A
C29    C815    1.389   .     S
C30    C816    1.389   1_554 S
C31    C842    1.428   .     S
C32    C841    1.428   1_554 S
Cu33   O55     1.958   .     S
Cu33   O58     1.939   .     S
Cu33   N49     2.027   .     S
Cu33   O54     1.962   .     S
Cu33   O51     1.969   .     S
Cu33   Cu214   2.697   1_455 S
Cu34   O56     1.958   .     S
Cu34   O57     1.939   .     S
Cu34   N50     2.027   .     S
Cu34   O52     1.969   .     S
Cu34   O53     1.962   .     S
Cu34   Cu123   2.697   .     S
H39    C114    1.078   .     S
H40    C203    1.078   1_455 S
O53    C91     1.293   .     S
O54    C182    1.293   1_455 S
O55    C197    1.307   1_455 S
O56    C108    1.307   .     S
C59    C64     1.406   .     A
C59    C60     1.404   .     A
C60    C61     1.399   .     A
C60    H65     1.082   .     S
C61    H66     1.082   .     S
C61    C62     1.396   .     A
C62    H67     1.082   .     S
C62    C63     1.397   .     A
C63    H68     1.080   .     S
C63    C64     1.398   .     A
C64    H69     1.083   .     S
C70    C71     1.406   .     A
C70    C75     1.404   .     A
C71    H76     1.083   .     S
C71    C72     1.398   .     A
C72    H77     1.080   .     S
C72    C73     1.397   .     A
C73    C74     1.396   .     A
C73    H78     1.082   .     S
C74    C75     1.399   .     A
C74    H79     1.082   .     S
C75    H80     1.082   .     S
S81    O82     1.503   .     D
S81    O83     1.503   .     D
S81    O84     1.674   .     S
O84    H85     0.991   .     S
S86    O88     1.503   .     D
S86    O87     1.503   .     D
S86    O89     1.674   .     S
O89    H90     0.991   .     S
C91    C102    1.455   .     S
C91    O141    1.302   .     A
C92    C101    1.455   .     S
C92    O142    1.302   .     A
C92    O234    1.293   .     S
C93    H133    1.074   .     S
C93    C122    1.416   .     A
C93    C95     1.385   .     A
C94    C96     1.385   .     A
C94    H134    1.074   .     S
C94    C121    1.416   .     A
C95    H125    1.083   .     S
C95    C929    1.389   1_554 S
C96    H126    1.083   .     S
C96    C930    1.389   .     S
C97    C149    1.485   .     S
C97    C639    1.387   1_545 S
C97    C192    1.415   .     S
C98    C160    1.485   .     S
C98    C370    1.387   .     S
C99    H135    1.081   .     S
C99    C101    1.399   .     A
C99    C367    1.387   .     S
C100   H136    1.081   .     S
C100   C102    1.399   .     A
C100   C638    1.387   1_545 S
C101   C188    1.415   .     S
C103   H137    1.083   .     S
C103   N140    1.343   .     A
C103   C105    1.413   .     A
C104   N139    1.343   .     A
C104   H138    1.083   .     S
C104   C106    1.413   .     A
C105   S171    1.791   .     S
C105   N139    1.405   .     A
C106   N140    1.405   .     A
C106   S176    1.791   .     S
C107   C109    1.471   .     S
C107   O147    1.297   .     A
C107   O235    1.307   .     S
C108   O148    1.297   .     A
C108   C110    1.471   .     S
C109   C113    1.395   .     A
C109   C115    1.402   .     A
C110   C114    1.395   .     A
C110   C116    1.402   .     A
C111   C119    1.403   .     A
C111   H131    1.083   .     S
C111   C113    1.389   .     A
C112   C114    1.389   .     A
C112   C120    1.403   .     A
C112   H132    1.083   .     S
C113   H220    1.078   .     S
C115   H128    1.074   .     S
C115   C117    1.409   .     A
C116   C118    1.409   .     A
C116   H127    1.074   .     S
C117   C119    1.418   .     A
C117   C121    1.431   .     A
C118   C122    1.431   .     A
C118   C120    1.418   .     A
C119   C905    1.389   .     S
C120   C906    1.389   1_554 S
C121   C932    1.428   .     S
C122   C931    1.428   1_554 S
Cu123  O145    1.958   .     S
Cu123  O148    1.939   .     S
Cu123  N139    2.027   .     S
Cu123  O144    1.962   .     S
Cu123  O141    1.969   .     S
Cu124  O146    1.958   .     S
Cu124  O147    1.939   .     S
Cu124  N140    2.027   .     S
Cu124  O142    1.969   .     S
Cu124  O143    1.962   .     S
Cu124  Cu213   2.697   .     S
H129   C204    1.078   .     S
O143   C181    1.293   .     S
O146   C198    1.307   .     S
C149   C154    1.406   .     A
C149   C150    1.404   .     A
C150   C151    1.399   .     A
C150   H155    1.082   .     S
C151   H156    1.082   .     S
C151   C152    1.396   .     A
C152   H157    1.082   .     S
C152   C153    1.397   .     A
C153   H158    1.080   .     S
C153   C154    1.398   .     A
C154   H159    1.083   .     S
C160   C161    1.406   .     A
C160   C165    1.404   .     A
C161   H166    1.083   .     S
C161   C162    1.398   .     A
C162   H167    1.080   .     S
C162   C163    1.397   .     A
C163   C164    1.396   .     A
C163   H168    1.082   .     S
C164   C165    1.399   .     A
C164   H169    1.082   .     S
C165   H170    1.082   .     S
S171   O172    1.503   .     D
S171   O173    1.503   .     D
S171   O174    1.674   .     S
O174   H175    0.991   .     S
S176   O178    1.503   .     D
S176   O177    1.503   .     D
S176   O179    1.674   .     S
O179   H180    0.991   .     S
C181   C192    1.455   .     S
C181   O231    1.302   .     A
C182   C191    1.455   .     S
C182   O232    1.302   .     A
C182   O54     1.293   1_655 S
C183   H223    1.074   .     S
C183   C212    1.416   .     A
C183   C185    1.385   .     A
C184   C186    1.385   .     A
C184   H224    1.074   .     S
C184   C211    1.416   .     A
C185   H215    1.083   .     S
C185   C1019   1.389   1_554 S
C186   H216    1.083   .     S
C186   C1020   1.389   .     S
C187   C239    1.485   .     S
C187   C729    1.387   1_545 S
C187   C12     1.415   1_655 S
C188   C250    1.485   .     S
C188   C460    1.387   .     S
C189   H225    1.081   .     S
C189   C191    1.399   .     A
C189   C457    1.387   .     S
C190   H226    1.081   .     S
C190   C192    1.399   .     A
C190   C728    1.387   1_545 S
C191   C8      1.415   1_655 S
C193   H227    1.083   .     S
C193   N230    1.343   .     A
C193   C195    1.413   .     A
C194   N229    1.343   .     A
C194   H228    1.083   .     S
C194   C196    1.413   .     A
C195   S261    1.791   .     S
C195   N229    1.405   .     A
C196   N230    1.405   .     A
C196   S266    1.791   .     S
C197   C199    1.471   .     S
C197   O237    1.297   .     A
C197   O55     1.307   1_655 S
C198   O238    1.297   .     A
C198   C200    1.471   .     S
C199   C203    1.395   .     A
C199   C205    1.402   .     A
C200   C204    1.395   .     A
C200   C206    1.402   .     A
C201   C209    1.403   .     A
C201   H221    1.083   .     S
C201   C203    1.389   .     A
C202   C204    1.389   .     A
C202   C210    1.403   .     A
C202   H222    1.083   .     S
C203   H40     1.078   1_655 S
C205   H218    1.074   .     S
C205   C207    1.409   .     A
C206   C208    1.409   .     A
C206   H217    1.074   .     S
C207   C209    1.418   .     A
C207   C211    1.431   .     A
C208   C212    1.431   .     A
C208   C210    1.418   .     A
C209   C995    1.389   .     S
C210   C996    1.389   1_554 S
C211   C1022   1.428   .     S
C212   C1021   1.428   1_554 S
Cu213  O235    1.958   .     S
Cu213  O238    1.939   .     S
Cu213  N229    2.027   .     S
Cu213  O234    1.962   .     S
Cu213  O231    1.969   .     S
Cu214  O236    1.958   .     S
Cu214  O237    1.939   .     S
Cu214  N230    2.027   .     S
Cu214  O232    1.969   .     S
Cu214  O233    1.962   .     S
Cu214  Cu33    2.697   1_655 S
H219   C24     1.078   1_655 S
O233   C1      1.293   1_655 S
O236   C18     1.307   1_655 S
C239   C244    1.406   .     A
C239   C240    1.404   .     A
C240   C241    1.399   .     A
C240   H245    1.082   .     S
C241   H246    1.082   .     S
C241   C242    1.396   .     A
C242   H247    1.082   .     S
C242   C243    1.397   .     A
C243   H248    1.080   .     S
C243   C244    1.398   .     A
C244   H249    1.083   .     S
C250   C251    1.406   .     A
C250   C255    1.404   .     A
C251   H256    1.083   .     S
C251   C252    1.398   .     A
C252   H257    1.080   .     S
C252   C253    1.397   .     A
C253   C254    1.396   .     A
C253   H258    1.082   .     S
C254   C255    1.399   .     A
C254   H259    1.082   .     S
C255   H260    1.082   .     S
S261   O262    1.503   .     D
S261   O263    1.503   .     D
S261   O264    1.674   .     S
O264   H265    0.991   .     S
S266   O268    1.503   .     D
S266   O267    1.503   .     D
S266   O269    1.674   .     S
O269   H270    0.991   .     S
C271   C282    1.455   .     S
C271   O321    1.302   .     A
C271   O503    1.293   1_455 S
C272   C281    1.455   .     S
C272   O322    1.302   .     A
C272   O414    1.293   .     S
C273   H313    1.074   .     S
C273   C302    1.416   .     A
C273   C275    1.385   .     A
C274   C276    1.385   .     A
C274   H314    1.074   .     S
C274   C301    1.416   .     A
C275   H305    1.083   .     S
C275   C1109   1.389   1_554 S
C276   H306    1.083   .     S
C276   C1110   1.389   .     S
C277   C329    1.485   .     S
C277   C372    1.415   .     S
C278   C340    1.485   .     S
C278   C550    1.387   .     S
C278   C461    1.415   1_455 S
C279   H315    1.081   .     S
C279   C281    1.399   .     A
C279   C547    1.387   .     S
C280   H316    1.081   .     S
C280   C282    1.399   .     A
C281   C368    1.415   .     S
C282   C457    1.415   1_455 S
C283   H317    1.083   .     S
C283   N320    1.343   .     A
C283   C285    1.413   .     A
C284   N319    1.343   .     A
C284   H318    1.083   .     S
C284   C286    1.413   .     A
C285   S351    1.791   .     S
C285   N319    1.405   .     A
C286   N320    1.405   .     A
C286   S356    1.791   .     S
C287   C289    1.471   .     S
C287   O327    1.297   .     A
C287   O415    1.307   .     S
C288   O328    1.297   .     A
C288   C290    1.471   .     S
C288   O506    1.307   1_455 S
C289   C293    1.395   .     A
C289   C295    1.402   .     A
C290   C294    1.395   .     A
C290   C296    1.402   .     A
C291   C299    1.403   .     A
C291   H311    1.083   .     S
C291   C293    1.389   .     A
C292   C294    1.389   .     A
C292   C300    1.403   .     A
C292   H312    1.083   .     S
C293   H400    1.078   .     S
C294   H489    1.078   1_455 S
C295   H308    1.074   .     S
C295   C297    1.409   .     A
C296   C298    1.409   .     A
C296   H307    1.074   .     S
C297   C299    1.418   .     A
C297   C301    1.431   .     A
C298   C302    1.431   .     A
C298   C300    1.418   .     A
C299   C1085   1.389   .     S
C300   C1086   1.389   1_554 S
C301   C1112   1.428   .     S
C302   C1111   1.428   1_554 S
Cu303  O325    1.958   .     S
Cu303  O328    1.939   .     S
Cu303  N319    2.027   .     S
Cu303  O324    1.962   .     S
Cu303  O321    1.969   .     S
Cu303  Cu484   2.697   1_455 S
Cu304  O326    1.958   .     S
Cu304  O327    1.939   .     S
Cu304  N320    2.027   .     S
Cu304  O322    1.969   .     S
Cu304  O323    1.962   .     S
Cu304  Cu393   2.697   .     S
H309   C384    1.078   .     S
H310   C473    1.078   1_455 S
O323   C361    1.293   .     S
O324   C452    1.293   1_455 S
O325   C467    1.307   1_455 S
O326   C378    1.307   .     S
C329   C334    1.406   .     A
C329   C330    1.404   .     A
C330   C331    1.399   .     A
C330   H335    1.082   .     S
C331   H336    1.082   .     S
C331   C332    1.396   .     A
C332   H337    1.082   .     S
C332   C333    1.397   .     A
C333   H338    1.080   .     S
C333   C334    1.398   .     A
C334   H339    1.083   .     S
C340   C341    1.406   .     A
C340   C345    1.404   .     A
C341   H346    1.083   .     S
C341   C342    1.398   .     A
C342   H347    1.080   .     S
C342   C343    1.397   .     A
C343   C344    1.396   .     A
C343   H348    1.082   .     S
C344   C345    1.399   .     A
C344   H349    1.082   .     S
C345   H350    1.082   .     S
S351   O352    1.503   .     D
S351   O353    1.503   .     D
S351   O354    1.674   .     S
O354   H355    0.991   .     S
S356   O358    1.503   .     D
S356   O357    1.503   .     D
S356   O359    1.674   .     S
O359   H360    0.991   .     S
C361   C372    1.455   .     S
C361   O411    1.302   .     A
C362   C371    1.455   .     S
C362   O412    1.302   .     A
C362   O504    1.293   .     S
C363   H403    1.074   .     S
C363   C392    1.416   .     A
C363   C365    1.385   .     A
C364   C366    1.385   .     A
C364   H404    1.074   .     S
C364   C391    1.416   .     A
C365   H395    1.083   .     S
C365   C1199   1.389   1_554 S
C366   H396    1.083   .     S
C366   C1200   1.389   .     S
C367   C419    1.485   .     S
C367   C462    1.415   .     S
C368   C430    1.485   .     S
C368   C640    1.387   .     S
C369   H405    1.081   .     S
C369   C371    1.399   .     A
C369   C637    1.387   .     S
C370   H406    1.081   .     S
C370   C372    1.399   .     A
C371   C458    1.415   .     S
C373   H407    1.083   .     S
C373   N410    1.343   .     A
C373   C375    1.413   .     A
C374   N409    1.343   .     A
C374   H408    1.083   .     S
C374   C376    1.413   .     A
C375   S441    1.791   .     S
C375   N409    1.405   .     A
C376   N410    1.405   .     A
C376   S446    1.791   .     S
C377   C379    1.471   .     S
C377   O417    1.297   .     A
C377   O505    1.307   .     S
C378   O418    1.297   .     A
C378   C380    1.471   .     S
C379   C383    1.395   .     A
C379   C385    1.402   .     A
C380   C384    1.395   .     A
C380   C386    1.402   .     A
C381   C389    1.403   .     A
C381   H401    1.083   .     S
C381   C383    1.389   .     A
C382   C384    1.389   .     A
C382   C390    1.403   .     A
C382   H402    1.083   .     S
C383   H490    1.078   .     S
C385   H398    1.074   .     S
C385   C387    1.409   .     A
C386   C388    1.409   .     A
C386   H397    1.074   .     S
C387   C389    1.418   .     A
C387   C391    1.431   .     A
C388   C392    1.431   .     A
C388   C390    1.418   .     A
C389   C1175   1.389   .     S
C390   C1176   1.389   1_554 S
C391   C1202   1.428   .     S
C392   C1201   1.428   1_554 S
Cu393  O415    1.958   .     S
Cu393  O418    1.939   .     S
Cu393  N409    2.027   .     S
Cu393  O414    1.962   .     S
Cu393  O411    1.969   .     S
Cu394  O416    1.958   .     S
Cu394  O417    1.939   .     S
Cu394  N410    2.027   .     S
Cu394  O412    1.969   .     S
Cu394  O413    1.962   .     S
Cu394  Cu483   2.697   .     S
H399   C474    1.078   .     S
O413   C451    1.293   .     S
O416   C468    1.307   .     S
C419   C424    1.406   .     A
C419   C420    1.404   .     A
C420   C421    1.399   .     A
C420   H425    1.082   .     S
C421   H426    1.082   .     S
C421   C422    1.396   .     A
C422   H427    1.082   .     S
C422   C423    1.397   .     A
C423   H428    1.080   .     S
C423   C424    1.398   .     A
C424   H429    1.083   .     S
C430   C431    1.406   .     A
C430   C435    1.404   .     A
C431   H436    1.083   .     S
C431   C432    1.398   .     A
C432   H437    1.080   .     S
C432   C433    1.397   .     A
C433   C434    1.396   .     A
C433   H438    1.082   .     S
C434   C435    1.399   .     A
C434   H439    1.082   .     S
C435   H440    1.082   .     S
S441   O442    1.503   .     D
S441   O443    1.503   .     D
S441   O444    1.674   .     S
O444   H445    0.991   .     S
S446   O448    1.503   .     D
S446   O447    1.503   .     D
S446   O449    1.674   .     S
O449   H450    0.991   .     S
C451   C462    1.455   .     S
C451   O501    1.302   .     A
C452   C461    1.455   .     S
C452   O502    1.302   .     A
C452   O324    1.293   1_655 S
C453   H493    1.074   .     S
C453   C482    1.416   .     A
C453   C455    1.385   .     A
C454   C456    1.385   .     A
C454   H494    1.074   .     S
C454   C481    1.416   .     A
C455   H485    1.083   .     S
C455   C1289   1.389   1_554 S
C456   H486    1.083   .     S
C456   C1290   1.389   .     S
C457   C509    1.485   .     S
C457   C282    1.415   1_655 S
C458   C520    1.485   .     S
C458   C730    1.387   .     S
C459   H495    1.081   .     S
C459   C461    1.399   .     A
C459   C727    1.387   .     S
C460   H496    1.081   .     S
C460   C462    1.399   .     A
C461   C278    1.415   1_655 S
C463   H497    1.083   .     S
C463   N500    1.343   .     A
C463   C465    1.413   .     A
C464   N499    1.343   .     A
C464   H498    1.083   .     S
C464   C466    1.413   .     A
C465   S531    1.791   .     S
C465   N499    1.405   .     A
C466   N500    1.405   .     A
C466   S536    1.791   .     S
C467   C469    1.471   .     S
C467   O507    1.297   .     A
C467   O325    1.307   1_655 S
C468   O508    1.297   .     A
C468   C470    1.471   .     S
C469   C473    1.395   .     A
C469   C475    1.402   .     A
C470   C474    1.395   .     A
C470   C476    1.402   .     A
C471   C479    1.403   .     A
C471   H491    1.083   .     S
C471   C473    1.389   .     A
C472   C474    1.389   .     A
C472   C480    1.403   .     A
C472   H492    1.083   .     S
C473   H310    1.078   1_655 S
C475   H488    1.074   .     S
C475   C477    1.409   .     A
C476   C478    1.409   .     A
C476   H487    1.074   .     S
C477   C479    1.418   .     A
C477   C481    1.431   .     A
C478   C482    1.431   .     A
C478   C480    1.418   .     A
C479   C1265   1.389   .     S
C480   C1266   1.389   1_554 S
C481   C1292   1.428   .     S
C482   C1291   1.428   1_554 S
Cu483  O505    1.958   .     S
Cu483  O508    1.939   .     S
Cu483  N499    2.027   .     S
Cu483  O504    1.962   .     S
Cu483  O501    1.969   .     S
Cu484  O506    1.958   .     S
Cu484  O507    1.939   .     S
Cu484  N500    2.027   .     S
Cu484  O502    1.969   .     S
Cu484  O503    1.962   .     S
Cu484  Cu303   2.697   1_655 S
H489   C294    1.078   1_655 S
O503   C271    1.293   1_655 S
O506   C288    1.307   1_655 S
C509   C514    1.406   .     A
C509   C510    1.404   .     A
C510   C511    1.399   .     A
C510   H515    1.082   .     S
C511   H516    1.082   .     S
C511   C512    1.396   .     A
C512   H517    1.082   .     S
C512   C513    1.397   .     A
C513   H518    1.080   .     S
C513   C514    1.398   .     A
C514   H519    1.083   .     S
C520   C521    1.406   .     A
C520   C525    1.404   .     A
C521   H526    1.083   .     S
C521   C522    1.398   .     A
C522   H527    1.080   .     S
C522   C523    1.397   .     A
C523   C524    1.396   .     A
C523   H528    1.082   .     S
C524   C525    1.399   .     A
C524   H529    1.082   .     S
C525   H530    1.082   .     S
S531   O532    1.503   .     D
S531   O533    1.503   .     D
S531   O534    1.674   .     S
O534   H535    0.991   .     S
S536   O538    1.503   .     D
S536   O537    1.503   .     D
S536   O539    1.674   .     S
O539   H540    0.991   .     S
C541   C552    1.455   .     S
C541   O591    1.302   .     A
C541   O773    1.293   1_455 S
C542   C551    1.455   .     S
C542   O592    1.302   .     A
C542   O684    1.293   .     S
C543   H583    1.074   .     S
C543   C572    1.416   .     A
C543   C545    1.385   .     A
C544   C546    1.385   .     A
C544   H584    1.074   .     S
C544   C571    1.416   .     A
C545   H575    1.083   .     S
C545   C1379   1.389   1_554 S
C546   H576    1.083   .     S
C546   C1380   1.389   .     S
C547   C599    1.485   .     S
C547   C642    1.415   .     S
C548   C610    1.485   .     S
C548   C10     1.387   1_565 S
C548   C731    1.415   1_455 S
C549   H585    1.081   .     S
C549   C551    1.399   .     A
C549   C7      1.387   1_565 S
C550   H586    1.081   .     S
C550   C552    1.399   .     A
C551   C638    1.415   .     S
C552   C727    1.415   1_455 S
C553   H587    1.083   .     S
C553   N590    1.343   .     A
C553   C555    1.413   .     A
C554   N589    1.343   .     A
C554   H588    1.083   .     S
C554   C556    1.413   .     A
C555   S621    1.791   .     S
C555   N589    1.405   .     A
C556   N590    1.405   .     A
C556   S626    1.791   .     S
C557   C559    1.471   .     S
C557   O597    1.297   .     A
C557   O685    1.307   .     S
C558   O598    1.297   .     A
C558   C560    1.471   .     S
C558   O776    1.307   1_455 S
C559   C563    1.395   .     A
C559   C565    1.402   .     A
C560   C564    1.395   .     A
C560   C566    1.402   .     A
C561   C569    1.403   .     A
C561   H581    1.083   .     S
C561   C563    1.389   .     A
C562   C564    1.389   .     A
C562   C570    1.403   .     A
C562   H582    1.083   .     S
C563   H670    1.078   .     S
C564   H759    1.078   1_455 S
C565   H578    1.074   .     S
C565   C567    1.409   .     A
C566   C568    1.409   .     A
C566   H577    1.074   .     S
C567   C569    1.418   .     A
C567   C571    1.431   .     A
C568   C572    1.431   .     A
C568   C570    1.418   .     A
C569   C1355   1.389   .     S
C570   C1356   1.389   1_554 S
C571   C1382   1.428   .     S
C572   C1381   1.428   1_554 S
Cu573  O595    1.958   .     S
Cu573  O598    1.939   .     S
Cu573  N589    2.027   .     S
Cu573  O594    1.962   .     S
Cu573  O591    1.969   .     S
Cu573  Cu754   2.697   1_455 S
Cu574  O596    1.958   .     S
Cu574  O597    1.939   .     S
Cu574  N590    2.027   .     S
Cu574  O592    1.969   .     S
Cu574  O593    1.962   .     S
Cu574  Cu663   2.697   .     S
H579   C654    1.078   .     S
H580   C743    1.078   1_455 S
O593   C631    1.293   .     S
O594   C722    1.293   1_455 S
O595   C737    1.307   1_455 S
O596   C648    1.307   .     S
C599   C604    1.406   .     A
C599   C600    1.404   .     A
C600   C601    1.399   .     A
C600   H605    1.082   .     S
C601   H606    1.082   .     S
C601   C602    1.396   .     A
C602   H607    1.082   .     S
C602   C603    1.397   .     A
C603   H608    1.080   .     S
C603   C604    1.398   .     A
C604   H609    1.083   .     S
C610   C611    1.406   .     A
C610   C615    1.404   .     A
C611   H616    1.083   .     S
C611   C612    1.398   .     A
C612   H617    1.080   .     S
C612   C613    1.397   .     A
C613   C614    1.396   .     A
C613   H618    1.082   .     S
C614   C615    1.399   .     A
C614   H619    1.082   .     S
C615   H620    1.082   .     S
S621   O622    1.503   .     D
S621   O623    1.503   .     D
S621   O624    1.674   .     S
O624   H625    0.991   .     S
S626   O628    1.503   .     D
S626   O627    1.503   .     D
S626   O629    1.674   .     S
O629   H630    0.991   .     S
C631   C642    1.455   .     S
C631   O681    1.302   .     A
C632   C641    1.455   .     S
C632   O682    1.302   .     A
C632   O774    1.293   .     S
C633   H673    1.074   .     S
C633   C662    1.416   .     A
C633   C635    1.385   .     A
C634   C636    1.385   .     A
C634   H674    1.074   .     S
C634   C661    1.416   .     A
C635   H665    1.083   .     S
C635   C1469   1.389   1_554 S
C636   H666    1.083   .     S
C636   C1470   1.389   .     S
C637   C689    1.485   .     S
C637   C732    1.415   .     S
C638   C700    1.485   .     S
C638   C100    1.387   1_565 S
C639   H675    1.081   .     S
C639   C641    1.399   .     A
C639   C97     1.387   1_565 S
C640   H676    1.081   .     S
C640   C642    1.399   .     A
C641   C728    1.415   .     S
C643   H677    1.083   .     S
C643   N680    1.343   .     A
C643   C645    1.413   .     A
C644   N679    1.343   .     A
C644   H678    1.083   .     S
C644   C646    1.413   .     A
C645   S711    1.791   .     S
C645   N679    1.405   .     A
C646   N680    1.405   .     A
C646   S716    1.791   .     S
C647   C649    1.471   .     S
C647   O687    1.297   .     A
C647   O775    1.307   .     S
C648   O688    1.297   .     A
C648   C650    1.471   .     S
C649   C653    1.395   .     A
C649   C655    1.402   .     A
C650   C654    1.395   .     A
C650   C656    1.402   .     A
C651   C659    1.403   .     A
C651   H671    1.083   .     S
C651   C653    1.389   .     A
C652   C654    1.389   .     A
C652   C660    1.403   .     A
C652   H672    1.083   .     S
C653   H760    1.078   .     S
C655   H668    1.074   .     S
C655   C657    1.409   .     A
C656   C658    1.409   .     A
C656   H667    1.074   .     S
C657   C659    1.418   .     A
C657   C661    1.431   .     A
C658   C662    1.431   .     A
C658   C660    1.418   .     A
C659   C1445   1.389   .     S
C660   C1446   1.389   1_554 S
C661   C1472   1.428   .     S
C662   C1471   1.428   1_554 S
Cu663  O685    1.958   .     S
Cu663  O688    1.939   .     S
Cu663  N679    2.027   .     S
Cu663  O684    1.962   .     S
Cu663  O681    1.969   .     S
Cu664  O686    1.958   .     S
Cu664  O687    1.939   .     S
Cu664  N680    2.027   .     S
Cu664  O682    1.969   .     S
Cu664  O683    1.962   .     S
Cu664  Cu753   2.697   .     S
H669   C744    1.078   .     S
O683   C721    1.293   .     S
O686   C738    1.307   .     S
C689   C694    1.406   .     A
C689   C690    1.404   .     A
C690   C691    1.399   .     A
C690   H695    1.082   .     S
C691   H696    1.082   .     S
C691   C692    1.396   .     A
C692   H697    1.082   .     S
C692   C693    1.397   .     A
C693   H698    1.080   .     S
C693   C694    1.398   .     A
C694   H699    1.083   .     S
C700   C701    1.406   .     A
C700   C705    1.404   .     A
C701   H706    1.083   .     S
C701   C702    1.398   .     A
C702   H707    1.080   .     S
C702   C703    1.397   .     A
C703   C704    1.396   .     A
C703   H708    1.082   .     S
C704   C705    1.399   .     A
C704   H709    1.082   .     S
C705   H710    1.082   .     S
S711   O712    1.503   .     D
S711   O713    1.503   .     D
S711   O714    1.674   .     S
O714   H715    0.991   .     S
S716   O718    1.503   .     D
S716   O717    1.503   .     D
S716   O719    1.674   .     S
O719   H720    0.991   .     S
C721   C732    1.455   .     S
C721   O771    1.302   .     A
C722   C731    1.455   .     S
C722   O772    1.302   .     A
C722   O594    1.293   1_655 S
C723   H763    1.074   .     S
C723   C752    1.416   .     A
C723   C725    1.385   .     A
C724   C726    1.385   .     A
C724   H764    1.074   .     S
C724   C751    1.416   .     A
C725   H755    1.083   .     S
C725   C1559   1.389   1_554 S
C726   H756    1.083   .     S
C726   C1560   1.389   .     S
C727   C779    1.485   .     S
C727   C552    1.415   1_655 S
C728   C790    1.485   .     S
C728   C190    1.387   1_565 S
C729   H765    1.081   .     S
C729   C731    1.399   .     A
C729   C187    1.387   1_565 S
C730   H766    1.081   .     S
C730   C732    1.399   .     A
C731   C548    1.415   1_655 S
C733   H767    1.083   .     S
C733   N770    1.343   .     A
C733   C735    1.413   .     A
C734   N769    1.343   .     A
C734   H768    1.083   .     S
C734   C736    1.413   .     A
C735   S801    1.791   .     S
C735   N769    1.405   .     A
C736   N770    1.405   .     A
C736   S806    1.791   .     S
C737   C739    1.471   .     S
C737   O777    1.297   .     A
C737   O595    1.307   1_655 S
C738   O778    1.297   .     A
C738   C740    1.471   .     S
C739   C743    1.395   .     A
C739   C745    1.402   .     A
C740   C744    1.395   .     A
C740   C746    1.402   .     A
C741   C749    1.403   .     A
C741   H761    1.083   .     S
C741   C743    1.389   .     A
C742   C744    1.389   .     A
C742   C750    1.403   .     A
C742   H762    1.083   .     S
C743   H580    1.078   1_655 S
C745   H758    1.074   .     S
C745   C747    1.409   .     A
C746   C748    1.409   .     A
C746   H757    1.074   .     S
C747   C749    1.418   .     A
C747   C751    1.431   .     A
C748   C752    1.431   .     A
C748   C750    1.418   .     A
C749   C1535   1.389   .     S
C750   C1536   1.389   1_554 S
C751   C1562   1.428   .     S
C752   C1561   1.428   1_554 S
Cu753  O775    1.958   .     S
Cu753  O778    1.939   .     S
Cu753  N769    2.027   .     S
Cu753  O774    1.962   .     S
Cu753  O771    1.969   .     S
Cu754  O776    1.958   .     S
Cu754  O777    1.939   .     S
Cu754  N770    2.027   .     S
Cu754  O772    1.969   .     S
Cu754  O773    1.962   .     S
Cu754  Cu573   2.697   1_655 S
H759   C564    1.078   1_655 S
O773   C541    1.293   1_655 S
O776   C558    1.307   1_655 S
C779   C784    1.406   .     A
C779   C780    1.404   .     A
C780   C781    1.399   .     A
C780   H785    1.082   .     S
C781   H786    1.082   .     S
C781   C782    1.396   .     A
C782   H787    1.082   .     S
C782   C783    1.397   .     A
C783   H788    1.080   .     S
C783   C784    1.398   .     A
C784   H789    1.083   .     S
C790   C791    1.406   .     A
C790   C795    1.404   .     A
C791   H796    1.083   .     S
C791   C792    1.398   .     A
C792   H797    1.080   .     S
C792   C793    1.397   .     A
C793   C794    1.396   .     A
C793   H798    1.082   .     S
C794   C795    1.399   .     A
C794   H799    1.082   .     S
C795   H800    1.082   .     S
S801   O802    1.503   .     D
S801   O803    1.503   .     D
S801   O804    1.674   .     S
O804   H805    0.991   .     S
S806   O808    1.503   .     D
S806   O807    1.503   .     D
S806   O809    1.674   .     S
O809   H810    0.991   .     S
C811   C822    1.455   .     S
C811   O861    1.302   .     A
C811   O1043   1.293   1_455 S
C812   C821    1.455   .     S
C812   O862    1.302   .     A
C812   O954    1.293   .     S
C813   H853    1.074   .     S
C813   C842    1.416   .     A
C813   C815    1.385   .     A
C814   C816    1.385   .     A
C814   H854    1.074   .     S
C814   C841    1.416   .     A
C815   H845    1.083   .     S
C816   H846    1.083   .     S
C816   C30     1.389   1_556 S
C817   C869    1.485   .     S
C817   C1359   1.387   1_545 S
C817   C912    1.415   .     S
C818   C880    1.485   .     S
C818   C1090   1.387   .     S
C818   C1001   1.415   1_455 S
C819   H855    1.081   .     S
C819   C821    1.399   .     A
C819   C1087   1.387   .     S
C820   H856    1.081   .     S
C820   C822    1.399   .     A
C820   C1358   1.387   1_545 S
C821   C908    1.415   .     S
C822   C997    1.415   1_455 S
C823   H857    1.083   .     S
C823   N860    1.343   .     A
C823   C825    1.413   .     A
C824   N859    1.343   .     A
C824   H858    1.083   .     S
C824   C826    1.413   .     A
C825   S891    1.791   .     S
C825   N859    1.405   .     A
C826   N860    1.405   .     A
C826   S896    1.791   .     S
C827   C829    1.471   .     S
C827   O867    1.297   .     A
C827   O955    1.307   .     S
C828   O868    1.297   .     A
C828   C830    1.471   .     S
C828   O1046   1.307   1_455 S
C829   C833    1.395   .     A
C829   C835    1.402   .     A
C830   C834    1.395   .     A
C830   C836    1.402   .     A
C831   C839    1.403   .     A
C831   H851    1.083   .     S
C831   C833    1.389   .     A
C832   C834    1.389   .     A
C832   C840    1.403   .     A
C832   H852    1.083   .     S
C833   H940    1.078   .     S
C834   H1029   1.078   1_455 S
C835   H848    1.074   .     S
C835   C837    1.409   .     A
C836   C838    1.409   .     A
C836   H847    1.074   .     S
C837   C839    1.418   .     A
C837   C841    1.431   .     A
C838   C842    1.431   .     A
C838   C840    1.418   .     A
C839   C5      1.389   1_556 S
C841   C32     1.428   1_556 S
Cu843  O865    1.958   .     S
Cu843  O868    1.939   .     S
Cu843  N859    2.027   .     S
Cu843  O864    1.962   .     S
Cu843  O861    1.969   .     S
Cu843  Cu1024  2.697   1_455 S
Cu844  O866    1.958   .     S
Cu844  O867    1.939   .     S
Cu844  N860    2.027   .     S
Cu844  O862    1.969   .     S
Cu844  O863    1.962   .     S
Cu844  Cu933   2.697   .     S
H849   C924    1.078   .     S
H850   C1013   1.078   1_455 S
O863   C901    1.293   .     S
O864   C992    1.293   1_455 S
O865   C1007   1.307   1_455 S
O866   C918    1.307   .     S
C869   C874    1.406   .     A
C869   C870    1.404   .     A
C870   C871    1.399   .     A
C870   H875    1.082   .     S
C871   H876    1.082   .     S
C871   C872    1.396   .     A
C872   H877    1.082   .     S
C872   C873    1.397   .     A
C873   H878    1.080   .     S
C873   C874    1.398   .     A
C874   H879    1.083   .     S
C880   C881    1.406   .     A
C880   C885    1.404   .     A
C881   H886    1.083   .     S
C881   C882    1.398   .     A
C882   H887    1.080   .     S
C882   C883    1.397   .     A
C883   C884    1.396   .     A
C883   H888    1.082   .     S
C884   C885    1.399   .     A
C884   H889    1.082   .     S
C885   H890    1.082   .     S
S891   O892    1.503   .     D
S891   O893    1.503   .     D
S891   O894    1.674   .     S
O894   H895    0.991   .     S
S896   O898    1.503   .     D
S896   O897    1.503   .     D
S896   O899    1.674   .     S
O899   H900    0.991   .     S
C901   C912    1.455   .     S
C901   O951    1.302   .     A
C902   C911    1.455   .     S
C902   O952    1.302   .     A
C902   O1044   1.293   .     S
C903   H943    1.074   .     S
C903   C932    1.416   .     A
C903   C905    1.385   .     A
C904   C906    1.385   .     A
C904   H944    1.074   .     S
C904   C931    1.416   .     A
C905   H935    1.083   .     S
C906   H936    1.083   .     S
C906   C120    1.389   1_556 S
C907   C959    1.485   .     S
C907   C1449   1.387   1_545 S
C907   C1002   1.415   .     S
C908   C970    1.485   .     S
C908   C1180   1.387   .     S
C909   H945    1.081   .     S
C909   C911    1.399   .     A
C909   C1177   1.387   .     S
C910   H946    1.081   .     S
C910   C912    1.399   .     A
C910   C1448   1.387   1_545 S
C911   C998    1.415   .     S
C913   H947    1.083   .     S
C913   N950    1.343   .     A
C913   C915    1.413   .     A
C914   N949    1.343   .     A
C914   H948    1.083   .     S
C914   C916    1.413   .     A
C915   S981    1.791   .     S
C915   N949    1.405   .     A
C916   N950    1.405   .     A
C916   S986    1.791   .     S
C917   C919    1.471   .     S
C917   O957    1.297   .     A
C917   O1045   1.307   .     S
C918   O958    1.297   .     A
C918   C920    1.471   .     S
C919   C923    1.395   .     A
C919   C925    1.402   .     A
C920   C924    1.395   .     A
C920   C926    1.402   .     A
C921   C929    1.403   .     A
C921   H941    1.083   .     S
C921   C923    1.389   .     A
C922   C924    1.389   .     A
C922   C930    1.403   .     A
C922   H942    1.083   .     S
C923   H1030   1.078   .     S
C925   H938    1.074   .     S
C925   C927    1.409   .     A
C926   C928    1.409   .     A
C926   H937    1.074   .     S
C927   C929    1.418   .     A
C927   C931    1.431   .     A
C928   C932    1.431   .     A
C928   C930    1.418   .     A
C929   C95     1.389   1_556 S
C931   C122    1.428   1_556 S
Cu933  O955    1.958   .     S
Cu933  O958    1.939   .     S
Cu933  N949    2.027   .     S
Cu933  O954    1.962   .     S
Cu933  O951    1.969   .     S
Cu934  O956    1.958   .     S
Cu934  O957    1.939   .     S
Cu934  N950    2.027   .     S
Cu934  O952    1.969   .     S
Cu934  O953    1.962   .     S
Cu934  Cu1023  2.697   .     S
H939   C1014   1.078   .     S
O953   C991    1.293   .     S
O956   C1008   1.307   .     S
C959   C964    1.406   .     A
C959   C960    1.404   .     A
C960   C961    1.399   .     A
C960   H965    1.082   .     S
C961   H966    1.082   .     S
C961   C962    1.396   .     A
C962   H967    1.082   .     S
C962   C963    1.397   .     A
C963   H968    1.080   .     S
C963   C964    1.398   .     A
C964   H969    1.083   .     S
C970   C971    1.406   .     A
C970   C975    1.404   .     A
C971   H976    1.083   .     S
C971   C972    1.398   .     A
C972   H977    1.080   .     S
C972   C973    1.397   .     A
C973   C974    1.396   .     A
C973   H978    1.082   .     S
C974   C975    1.399   .     A
C974   H979    1.082   .     S
C975   H980    1.082   .     S
S981   O982    1.503   .     D
S981   O983    1.503   .     D
S981   O984    1.674   .     S
O984   H985    0.991   .     S
S986   O988    1.503   .     D
S986   O987    1.503   .     D
S986   O989    1.674   .     S
O989   H990    0.991   .     S
C991   C1002   1.455   .     S
C991   O1041   1.302   .     A
C992   C1001   1.455   .     S
C992   O1042   1.302   .     A
C992   O864    1.293   1_655 S
C993   H1033   1.074   .     S
C993   C1022   1.416   .     A
C993   C995    1.385   .     A
C994   C996    1.385   .     A
C994   H1034   1.074   .     S
C994   C1021   1.416   .     A
C995   H1025   1.083   .     S
C996   H1026   1.083   .     S
C996   C210    1.389   1_556 S
C997   C1049   1.485   .     S
C997   C1539   1.387   1_545 S
C997   C822    1.415   1_655 S
C998   C1060   1.485   .     S
C998   C1270   1.387   .     S
C999   H1035   1.081   .     S
C999   C1001   1.399   .     A
C999   C1267   1.387   .     S
C1000  H1036   1.081   .     S
C1000  C1002   1.399   .     A
C1000  C1538   1.387   1_545 S
C1001  C818    1.415   1_655 S
C1003  H1037   1.083   .     S
C1003  N1040   1.343   .     A
C1003  C1005   1.413   .     A
C1004  N1039   1.343   .     A
C1004  H1038   1.083   .     S
C1004  C1006   1.413   .     A
C1005  S1071   1.791   .     S
C1005  N1039   1.405   .     A
C1006  N1040   1.405   .     A
C1006  S1076   1.791   .     S
C1007  C1009   1.471   .     S
C1007  O1047   1.297   .     A
C1007  O865    1.307   1_655 S
C1008  O1048   1.297   .     A
C1008  C1010   1.471   .     S
C1009  C1013   1.395   .     A
C1009  C1015   1.402   .     A
C1010  C1014   1.395   .     A
C1010  C1016   1.402   .     A
C1011  C1019   1.403   .     A
C1011  H1031   1.083   .     S
C1011  C1013   1.389   .     A
C1012  C1014   1.389   .     A
C1012  C1020   1.403   .     A
C1012  H1032   1.083   .     S
C1013  H850    1.078   1_655 S
C1015  H1028   1.074   .     S
C1015  C1017   1.409   .     A
C1016  C1018   1.409   .     A
C1016  H1027   1.074   .     S
C1017  C1019   1.418   .     A
C1017  C1021   1.431   .     A
C1018  C1022   1.431   .     A
C1018  C1020   1.418   .     A
C1019  C185    1.389   1_556 S
C1021  C212    1.428   1_556 S
Cu1023 O1045   1.958   .     S
Cu1023 O1048   1.939   .     S
Cu1023 N1039   2.027   .     S
Cu1023 O1044   1.962   .     S
Cu1023 O1041   1.969   .     S
Cu1024 O1046   1.958   .     S
Cu1024 O1047   1.939   .     S
Cu1024 N1040   2.027   .     S
Cu1024 O1042   1.969   .     S
Cu1024 O1043   1.962   .     S
Cu1024 Cu843   2.697   1_655 S
H1029  C834    1.078   1_655 S
O1043  C811    1.293   1_655 S
O1046  C828    1.307   1_655 S
C1049  C1054   1.406   .     A
C1049  C1050   1.404   .     A
C1050  C1051   1.399   .     A
C1050  H1055   1.082   .     S
C1051  H1056   1.082   .     S
C1051  C1052   1.396   .     A
C1052  H1057   1.082   .     S
C1052  C1053   1.397   .     A
C1053  H1058   1.080   .     S
C1053  C1054   1.398   .     A
C1054  H1059   1.083   .     S
C1060  C1061   1.406   .     A
C1060  C1065   1.404   .     A
C1061  H1066   1.083   .     S
C1061  C1062   1.398   .     A
C1062  H1067   1.080   .     S
C1062  C1063   1.397   .     A
C1063  C1064   1.396   .     A
C1063  H1068   1.082   .     S
C1064  C1065   1.399   .     A
C1064  H1069   1.082   .     S
C1065  H1070   1.082   .     S
S1071  O1072   1.503   .     D
S1071  O1073   1.503   .     D
S1071  O1074   1.674   .     S
O1074  H1075   0.991   .     S
S1076  O1078   1.503   .     D
S1076  O1077   1.503   .     D
S1076  O1079   1.674   .     S
O1079  H1080   0.991   .     S
C1081  C1092   1.455   .     S
C1081  O1131   1.302   .     A
C1081  O1313   1.293   1_455 S
C1082  C1091   1.455   .     S
C1082  O1132   1.302   .     A
C1082  O1224   1.293   .     S
C1083  H1123   1.074   .     S
C1083  C1112   1.416   .     A
C1083  C1085   1.385   .     A
C1084  C1086   1.385   .     A
C1084  H1124   1.074   .     S
C1084  C1111   1.416   .     A
C1085  H1115   1.083   .     S
C1086  H1116   1.083   .     S
C1086  C300    1.389   1_556 S
C1087  C1139   1.485   .     S
C1087  C1182   1.415   .     S
C1088  C1150   1.485   .     S
C1088  C1360   1.387   .     S
C1088  C1271   1.415   1_455 S
C1089  H1125   1.081   .     S
C1089  C1091   1.399   .     A
C1089  C1357   1.387   .     S
C1090  H1126   1.081   .     S
C1090  C1092   1.399   .     A
C1091  C1178   1.415   .     S
C1092  C1267   1.415   1_455 S
C1093  H1127   1.083   .     S
C1093  N1130   1.343   .     A
C1093  C1095   1.413   .     A
C1094  N1129   1.343   .     A
C1094  H1128   1.083   .     S
C1094  C1096   1.413   .     A
C1095  S1161   1.791   .     S
C1095  N1129   1.405   .     A
C1096  N1130   1.405   .     A
C1096  S1166   1.791   .     S
C1097  C1099   1.471   .     S
C1097  O1137   1.297   .     A
C1097  O1225   1.307   .     S
C1098  O1138   1.297   .     A
C1098  C1100   1.471   .     S
C1098  O1316   1.307   1_455 S
C1099  C1103   1.395   .     A
C1099  C1105   1.402   .     A
C1100  C1104   1.395   .     A
C1100  C1106   1.402   .     A
C1101  C1109   1.403   .     A
C1101  H1121   1.083   .     S
C1101  C1103   1.389   .     A
C1102  C1104   1.389   .     A
C1102  C1110   1.403   .     A
C1102  H1122   1.083   .     S
C1103  H1210   1.078   .     S
C1104  H1299   1.078   1_455 S
C1105  H1118   1.074   .     S
C1105  C1107   1.409   .     A
C1106  C1108   1.409   .     A
C1106  H1117   1.074   .     S
C1107  C1109   1.418   .     A
C1107  C1111   1.431   .     A
C1108  C1112   1.431   .     A
C1108  C1110   1.418   .     A
C1109  C275    1.389   1_556 S
C1111  C302    1.428   1_556 S
Cu1113 O1135   1.958   .     S
Cu1113 O1138   1.939   .     S
Cu1113 N1129   2.027   .     S
Cu1113 O1134   1.962   .     S
Cu1113 O1131   1.969   .     S
Cu1113 Cu1294  2.697   1_455 S
Cu1114 O1136   1.958   .     S
Cu1114 O1137   1.939   .     S
Cu1114 N1130   2.027   .     S
Cu1114 O1132   1.969   .     S
Cu1114 O1133   1.962   .     S
Cu1114 Cu1203  2.697   .     S
H1119  C1194   1.078   .     S
H1120  C1283   1.078   1_455 S
O1133  C1171   1.293   .     S
O1134  C1262   1.293   1_455 S
O1135  C1277   1.307   1_455 S
O1136  C1188   1.307   .     S
C1139  C1144   1.406   .     A
C1139  C1140   1.404   .     A
C1140  C1141   1.399   .     A
C1140  H1145   1.082   .     S
C1141  H1146   1.082   .     S
C1141  C1142   1.396   .     A
C1142  H1147   1.082   .     S
C1142  C1143   1.397   .     A
C1143  H1148   1.080   .     S
C1143  C1144   1.398   .     A
C1144  H1149   1.083   .     S
C1150  C1151   1.406   .     A
C1150  C1155   1.404   .     A
C1151  H1156   1.083   .     S
C1151  C1152   1.398   .     A
C1152  H1157   1.080   .     S
C1152  C1153   1.397   .     A
C1153  C1154   1.396   .     A
C1153  H1158   1.082   .     S
C1154  C1155   1.399   .     A
C1154  H1159   1.082   .     S
C1155  H1160   1.082   .     S
S1161  O1162   1.503   .     D
S1161  O1163   1.503   .     D
S1161  O1164   1.674   .     S
O1164  H1165   0.991   .     S
S1166  O1168   1.503   .     D
S1166  O1167   1.503   .     D
S1166  O1169   1.674   .     S
O1169  H1170   0.991   .     S
C1171  C1182   1.455   .     S
C1171  O1221   1.302   .     A
C1172  C1181   1.455   .     S
C1172  O1222   1.302   .     A
C1172  O1314   1.293   .     S
C1173  H1213   1.074   .     S
C1173  C1202   1.416   .     A
C1173  C1175   1.385   .     A
C1174  C1176   1.385   .     A
C1174  H1214   1.074   .     S
C1174  C1201   1.416   .     A
C1175  H1205   1.083   .     S
C1176  H1206   1.083   .     S
C1176  C390    1.389   1_556 S
C1177  C1229   1.485   .     S
C1177  C1272   1.415   .     S
C1178  C1240   1.485   .     S
C1178  C1450   1.387   .     S
C1179  H1215   1.081   .     S
C1179  C1181   1.399   .     A
C1179  C1447   1.387   .     S
C1180  H1216   1.081   .     S
C1180  C1182   1.399   .     A
C1181  C1268   1.415   .     S
C1183  H1217   1.083   .     S
C1183  N1220   1.343   .     A
C1183  C1185   1.413   .     A
C1184  N1219   1.343   .     A
C1184  H1218   1.083   .     S
C1184  C1186   1.413   .     A
C1185  S1251   1.791   .     S
C1185  N1219   1.405   .     A
C1186  N1220   1.405   .     A
C1186  S1256   1.791   .     S
C1187  C1189   1.471   .     S
C1187  O1227   1.297   .     A
C1187  O1315   1.307   .     S
C1188  O1228   1.297   .     A
C1188  C1190   1.471   .     S
C1189  C1193   1.395   .     A
C1189  C1195   1.402   .     A
C1190  C1194   1.395   .     A
C1190  C1196   1.402   .     A
C1191  C1199   1.403   .     A
C1191  H1211   1.083   .     S
C1191  C1193   1.389   .     A
C1192  C1194   1.389   .     A
C1192  C1200   1.403   .     A
C1192  H1212   1.083   .     S
C1193  H1300   1.078   .     S
C1195  H1208   1.074   .     S
C1195  C1197   1.409   .     A
C1196  C1198   1.409   .     A
C1196  H1207   1.074   .     S
C1197  C1199   1.418   .     A
C1197  C1201   1.431   .     A
C1198  C1202   1.431   .     A
C1198  C1200   1.418   .     A
C1199  C365    1.389   1_556 S
C1201  C392    1.428   1_556 S
Cu1203 O1225   1.958   .     S
Cu1203 O1228   1.939   .     S
Cu1203 N1219   2.027   .     S
Cu1203 O1224   1.962   .     S
Cu1203 O1221   1.969   .     S
Cu1204 O1226   1.958   .     S
Cu1204 O1227   1.939   .     S
Cu1204 N1220   2.027   .     S
Cu1204 O1222   1.969   .     S
Cu1204 O1223   1.962   .     S
Cu1204 Cu1293  2.697   .     S
H1209  C1284   1.078   .     S
O1223  C1261   1.293   .     S
O1226  C1278   1.307   .     S
C1229  C1234   1.406   .     A
C1229  C1230   1.404   .     A
C1230  C1231   1.399   .     A
C1230  H1235   1.082   .     S
C1231  H1236   1.082   .     S
C1231  C1232   1.396   .     A
C1232  H1237   1.082   .     S
C1232  C1233   1.397   .     A
C1233  H1238   1.080   .     S
C1233  C1234   1.398   .     A
C1234  H1239   1.083   .     S
C1240  C1241   1.406   .     A
C1240  C1245   1.404   .     A
C1241  H1246   1.083   .     S
C1241  C1242   1.398   .     A
C1242  H1247   1.080   .     S
C1242  C1243   1.397   .     A
C1243  C1244   1.396   .     A
C1243  H1248   1.082   .     S
C1244  C1245   1.399   .     A
C1244  H1249   1.082   .     S
C1245  H1250   1.082   .     S
S1251  O1252   1.503   .     D
S1251  O1253   1.503   .     D
S1251  O1254   1.674   .     S
O1254  H1255   0.991   .     S
S1256  O1258   1.503   .     D
S1256  O1257   1.503   .     D
S1256  O1259   1.674   .     S
O1259  H1260   0.991   .     S
C1261  C1272   1.455   .     S
C1261  O1311   1.302   .     A
C1262  C1271   1.455   .     S
C1262  O1312   1.302   .     A
C1262  O1134   1.293   1_655 S
C1263  H1303   1.074   .     S
C1263  C1292   1.416   .     A
C1263  C1265   1.385   .     A
C1264  C1266   1.385   .     A
C1264  H1304   1.074   .     S
C1264  C1291   1.416   .     A
C1265  H1295   1.083   .     S
C1266  H1296   1.083   .     S
C1266  C480    1.389   1_556 S
C1267  C1319   1.485   .     S
C1267  C1092   1.415   1_655 S
C1268  C1330   1.485   .     S
C1268  C1540   1.387   .     S
C1269  H1305   1.081   .     S
C1269  C1271   1.399   .     A
C1269  C1537   1.387   .     S
C1270  H1306   1.081   .     S
C1270  C1272   1.399   .     A
C1271  C1088   1.415   1_655 S
C1273  H1307   1.083   .     S
C1273  N1310   1.343   .     A
C1273  C1275   1.413   .     A
C1274  N1309   1.343   .     A
C1274  H1308   1.083   .     S
C1274  C1276   1.413   .     A
C1275  S1341   1.791   .     S
C1275  N1309   1.405   .     A
C1276  N1310   1.405   .     A
C1276  S1346   1.791   .     S
C1277  C1279   1.471   .     S
C1277  O1317   1.297   .     A
C1277  O1135   1.307   1_655 S
C1278  O1318   1.297   .     A
C1278  C1280   1.471   .     S
C1279  C1283   1.395   .     A
C1279  C1285   1.402   .     A
C1280  C1284   1.395   .     A
C1280  C1286   1.402   .     A
C1281  C1289   1.403   .     A
C1281  H1301   1.083   .     S
C1281  C1283   1.389   .     A
C1282  C1284   1.389   .     A
C1282  C1290   1.403   .     A
C1282  H1302   1.083   .     S
C1283  H1120   1.078   1_655 S
C1285  H1298   1.074   .     S
C1285  C1287   1.409   .     A
C1286  C1288   1.409   .     A
C1286  H1297   1.074   .     S
C1287  C1289   1.418   .     A
C1287  C1291   1.431   .     A
C1288  C1292   1.431   .     A
C1288  C1290   1.418   .     A
C1289  C455    1.389   1_556 S
C1291  C482    1.428   1_556 S
Cu1293 O1315   1.958   .     S
Cu1293 O1318   1.939   .     S
Cu1293 N1309   2.027   .     S
Cu1293 O1314   1.962   .     S
Cu1293 O1311   1.969   .     S
Cu1294 O1316   1.958   .     S
Cu1294 O1317   1.939   .     S
Cu1294 N1310   2.027   .     S
Cu1294 O1312   1.969   .     S
Cu1294 O1313   1.962   .     S
Cu1294 Cu1113  2.697   1_655 S
H1299  C1104   1.078   1_655 S
O1313  C1081   1.293   1_655 S
O1316  C1098   1.307   1_655 S
C1319  C1324   1.406   .     A
C1319  C1320   1.404   .     A
C1320  C1321   1.399   .     A
C1320  H1325   1.082   .     S
C1321  H1326   1.082   .     S
C1321  C1322   1.396   .     A
C1322  H1327   1.082   .     S
C1322  C1323   1.397   .     A
C1323  H1328   1.080   .     S
C1323  C1324   1.398   .     A
C1324  H1329   1.083   .     S
C1330  C1331   1.406   .     A
C1330  C1335   1.404   .     A
C1331  H1336   1.083   .     S
C1331  C1332   1.398   .     A
C1332  H1337   1.080   .     S
C1332  C1333   1.397   .     A
C1333  C1334   1.396   .     A
C1333  H1338   1.082   .     S
C1334  C1335   1.399   .     A
C1334  H1339   1.082   .     S
C1335  H1340   1.082   .     S
S1341  O1342   1.503   .     D
S1341  O1343   1.503   .     D
S1341  O1344   1.674   .     S
O1344  H1345   0.991   .     S
S1346  O1348   1.503   .     D
S1346  O1347   1.503   .     D
S1346  O1349   1.674   .     S
O1349  H1350   0.991   .     S
C1351  C1362   1.455   .     S
C1351  O1401   1.302   .     A
C1351  O1583   1.293   1_455 S
C1352  C1361   1.455   .     S
C1352  O1402   1.302   .     A
C1352  O1494   1.293   .     S
C1353  H1393   1.074   .     S
C1353  C1382   1.416   .     A
C1353  C1355   1.385   .     A
C1354  C1356   1.385   .     A
C1354  H1394   1.074   .     S
C1354  C1381   1.416   .     A
C1355  H1385   1.083   .     S
C1356  H1386   1.083   .     S
C1356  C570    1.389   1_556 S
C1357  C1409   1.485   .     S
C1357  C1452   1.415   .     S
C1358  C1420   1.485   .     S
C1358  C820    1.387   1_565 S
C1358  C1541   1.415   1_455 S
C1359  H1395   1.081   .     S
C1359  C1361   1.399   .     A
C1359  C817    1.387   1_565 S
C1360  H1396   1.081   .     S
C1360  C1362   1.399   .     A
C1361  C1448   1.415   .     S
C1362  C1537   1.415   1_455 S
C1363  H1397   1.083   .     S
C1363  N1400   1.343   .     A
C1363  C1365   1.413   .     A
C1364  N1399   1.343   .     A
C1364  H1398   1.083   .     S
C1364  C1366   1.413   .     A
C1365  S1431   1.791   .     S
C1365  N1399   1.405   .     A
C1366  N1400   1.405   .     A
C1366  S1436   1.791   .     S
C1367  C1369   1.471   .     S
C1367  O1407   1.297   .     A
C1367  O1495   1.307   .     S
C1368  O1408   1.297   .     A
C1368  C1370   1.471   .     S
C1368  O1586   1.307   1_455 S
C1369  C1373   1.395   .     A
C1369  C1375   1.402   .     A
C1370  C1374   1.395   .     A
C1370  C1376   1.402   .     A
C1371  C1379   1.403   .     A
C1371  H1391   1.083   .     S
C1371  C1373   1.389   .     A
C1372  C1374   1.389   .     A
C1372  C1380   1.403   .     A
C1372  H1392   1.083   .     S
C1373  H1480   1.078   .     S
C1374  H1569   1.078   1_455 S
C1375  H1388   1.074   .     S
C1375  C1377   1.409   .     A
C1376  C1378   1.409   .     A
C1376  H1387   1.074   .     S
C1377  C1379   1.418   .     A
C1377  C1381   1.431   .     A
C1378  C1382   1.431   .     A
C1378  C1380   1.418   .     A
C1379  C545    1.389   1_556 S
C1381  C572    1.428   1_556 S
Cu1383 O1405   1.958   .     S
Cu1383 O1408   1.939   .     S
Cu1383 N1399   2.027   .     S
Cu1383 O1404   1.962   .     S
Cu1383 O1401   1.969   .     S
Cu1383 Cu1564  2.697   1_455 S
Cu1384 O1406   1.958   .     S
Cu1384 O1407   1.939   .     S
Cu1384 N1400   2.027   .     S
Cu1384 O1402   1.969   .     S
Cu1384 O1403   1.962   .     S
Cu1384 Cu1473  2.697   .     S
H1389  C1464   1.078   .     S
H1390  C1553   1.078   1_455 S
O1403  C1441   1.293   .     S
O1404  C1532   1.293   1_455 S
O1405  C1547   1.307   1_455 S
O1406  C1458   1.307   .     S
C1409  C1414   1.406   .     A
C1409  C1410   1.404   .     A
C1410  C1411   1.399   .     A
C1410  H1415   1.082   .     S
C1411  H1416   1.082   .     S
C1411  C1412   1.396   .     A
C1412  H1417   1.082   .     S
C1412  C1413   1.397   .     A
C1413  H1418   1.080   .     S
C1413  C1414   1.398   .     A
C1414  H1419   1.083   .     S
C1420  C1421   1.406   .     A
C1420  C1425   1.404   .     A
C1421  H1426   1.083   .     S
C1421  C1422   1.398   .     A
C1422  H1427   1.080   .     S
C1422  C1423   1.397   .     A
C1423  C1424   1.396   .     A
C1423  H1428   1.082   .     S
C1424  C1425   1.399   .     A
C1424  H1429   1.082   .     S
C1425  H1430   1.082   .     S
S1431  O1432   1.503   .     D
S1431  O1433   1.503   .     D
S1431  O1434   1.674   .     S
O1434  H1435   0.991   .     S
S1436  O1438   1.503   .     D
S1436  O1437   1.503   .     D
S1436  O1439   1.674   .     S
O1439  H1440   0.991   .     S
C1441  C1452   1.455   .     S
C1441  O1491   1.302   .     A
C1442  C1451   1.455   .     S
C1442  O1492   1.302   .     A
C1442  O1584   1.293   .     S
C1443  H1483   1.074   .     S
C1443  C1472   1.416   .     A
C1443  C1445   1.385   .     A
C1444  C1446   1.385   .     A
C1444  H1484   1.074   .     S
C1444  C1471   1.416   .     A
C1445  H1475   1.083   .     S
C1446  H1476   1.083   .     S
C1446  C660    1.389   1_556 S
C1447  C1499   1.485   .     S
C1447  C1542   1.415   .     S
C1448  C1510   1.485   .     S
C1448  C910    1.387   1_565 S
C1449  H1485   1.081   .     S
C1449  C1451   1.399   .     A
C1449  C907    1.387   1_565 S
C1450  H1486   1.081   .     S
C1450  C1452   1.399   .     A
C1451  C1538   1.415   .     S
C1453  H1487   1.083   .     S
C1453  N1490   1.343   .     A
C1453  C1455   1.413   .     A
C1454  N1489   1.343   .     A
C1454  H1488   1.083   .     S
C1454  C1456   1.413   .     A
C1455  S1521   1.791   .     S
C1455  N1489   1.405   .     A
C1456  N1490   1.405   .     A
C1456  S1526   1.791   .     S
C1457  C1459   1.471   .     S
C1457  O1497   1.297   .     A
C1457  O1585   1.307   .     S
C1458  O1498   1.297   .     A
C1458  C1460   1.471   .     S
C1459  C1463   1.395   .     A
C1459  C1465   1.402   .     A
C1460  C1464   1.395   .     A
C1460  C1466   1.402   .     A
C1461  C1469   1.403   .     A
C1461  H1481   1.083   .     S
C1461  C1463   1.389   .     A
C1462  C1464   1.389   .     A
C1462  C1470   1.403   .     A
C1462  H1482   1.083   .     S
C1463  H1570   1.078   .     S
C1465  H1478   1.074   .     S
C1465  C1467   1.409   .     A
C1466  C1468   1.409   .     A
C1466  H1477   1.074   .     S
C1467  C1469   1.418   .     A
C1467  C1471   1.431   .     A
C1468  C1472   1.431   .     A
C1468  C1470   1.418   .     A
C1469  C635    1.389   1_556 S
C1471  C662    1.428   1_556 S
Cu1473 O1495   1.958   .     S
Cu1473 O1498   1.939   .     S
Cu1473 N1489   2.027   .     S
Cu1473 O1494   1.962   .     S
Cu1473 O1491   1.969   .     S
Cu1474 O1496   1.958   .     S
Cu1474 O1497   1.939   .     S
Cu1474 N1490   2.027   .     S
Cu1474 O1492   1.969   .     S
Cu1474 O1493   1.962   .     S
Cu1474 Cu1563  2.697   .     S
H1479  C1554   1.078   .     S
O1493  C1531   1.293   .     S
O1496  C1548   1.307   .     S
C1499  C1504   1.406   .     A
C1499  C1500   1.404   .     A
C1500  C1501   1.399   .     A
C1500  H1505   1.082   .     S
C1501  H1506   1.082   .     S
C1501  C1502   1.396   .     A
C1502  H1507   1.082   .     S
C1502  C1503   1.397   .     A
C1503  H1508   1.080   .     S
C1503  C1504   1.398   .     A
C1504  H1509   1.083   .     S
C1510  C1511   1.406   .     A
C1510  C1515   1.404   .     A
C1511  H1516   1.083   .     S
C1511  C1512   1.398   .     A
C1512  H1517   1.080   .     S
C1512  C1513   1.397   .     A
C1513  C1514   1.396   .     A
C1513  H1518   1.082   .     S
C1514  C1515   1.399   .     A
C1514  H1519   1.082   .     S
C1515  H1520   1.082   .     S
S1521  O1522   1.503   .     D
S1521  O1523   1.503   .     D
S1521  O1524   1.674   .     S
O1524  H1525   0.991   .     S
S1526  O1528   1.503   .     D
S1526  O1527   1.503   .     D
S1526  O1529   1.674   .     S
O1529  H1530   0.991   .     S
C1531  C1542   1.455   .     S
C1531  O1581   1.302   .     A
C1532  C1541   1.455   .     S
C1532  O1582   1.302   .     A
C1532  O1404   1.293   1_655 S
C1533  H1573   1.074   .     S
C1533  C1562   1.416   .     A
C1533  C1535   1.385   .     A
C1534  C1536   1.385   .     A
C1534  H1574   1.074   .     S
C1534  C1561   1.416   .     A
C1535  H1565   1.083   .     S
C1536  H1566   1.083   .     S
C1536  C750    1.389   1_556 S
C1537  C1589   1.485   .     S
C1537  C1362   1.415   1_655 S
C1538  C1600   1.485   .     S
C1538  C1000   1.387   1_565 S
C1539  H1575   1.081   .     S
C1539  C1541   1.399   .     A
C1539  C997    1.387   1_565 S
C1540  H1576   1.081   .     S
C1540  C1542   1.399   .     A
C1541  C1358   1.415   1_655 S
C1543  H1577   1.083   .     S
C1543  N1580   1.343   .     A
C1543  C1545   1.413   .     A
C1544  N1579   1.343   .     A
C1544  H1578   1.083   .     S
C1544  C1546   1.413   .     A
C1545  S1611   1.791   .     S
C1545  N1579   1.405   .     A
C1546  N1580   1.405   .     A
C1546  S1616   1.791   .     S
C1547  C1549   1.471   .     S
C1547  O1587   1.297   .     A
C1547  O1405   1.307   1_655 S
C1548  O1588   1.297   .     A
C1548  C1550   1.471   .     S
C1549  C1553   1.395   .     A
C1549  C1555   1.402   .     A
C1550  C1554   1.395   .     A
C1550  C1556   1.402   .     A
C1551  C1559   1.403   .     A
C1551  H1571   1.083   .     S
C1551  C1553   1.389   .     A
C1552  C1554   1.389   .     A
C1552  C1560   1.403   .     A
C1552  H1572   1.083   .     S
C1553  H1390   1.078   1_655 S
C1555  H1568   1.074   .     S
C1555  C1557   1.409   .     A
C1556  C1558   1.409   .     A
C1556  H1567   1.074   .     S
C1557  C1559   1.418   .     A
C1557  C1561   1.431   .     A
C1558  C1562   1.431   .     A
C1558  C1560   1.418   .     A
C1559  C725    1.389   1_556 S
C1561  C752    1.428   1_556 S
Cu1563 O1585   1.958   .     S
Cu1563 O1588   1.939   .     S
Cu1563 N1579   2.027   .     S
Cu1563 O1584   1.962   .     S
Cu1563 O1581   1.969   .     S
Cu1564 O1586   1.958   .     S
Cu1564 O1587   1.939   .     S
Cu1564 N1580   2.027   .     S
Cu1564 O1582   1.969   .     S
Cu1564 O1583   1.962   .     S
Cu1564 Cu1383  2.697   1_655 S
H1569  C1374   1.078   1_655 S
O1583  C1351   1.293   1_655 S
O1586  C1368   1.307   1_655 S
C1589  C1594   1.406   .     A
C1589  C1590   1.404   .     A
C1590  C1591   1.399   .     A
C1590  H1595   1.082   .     S
C1591  H1596   1.082   .     S
C1591  C1592   1.396   .     A
C1592  H1597   1.082   .     S
C1592  C1593   1.397   .     A
C1593  H1598   1.080   .     S
C1593  C1594   1.398   .     A
C1594  H1599   1.083   .     S
C1600  C1601   1.406   .     A
C1600  C1605   1.404   .     A
C1601  H1606   1.083   .     S
C1601  C1602   1.398   .     A
C1602  H1607   1.080   .     S
C1602  C1603   1.397   .     A
C1603  C1604   1.396   .     A
C1603  H1608   1.082   .     S
C1604  C1605   1.399   .     A
C1604  H1609   1.082   .     S
C1605  H1610   1.082   .     S
S1611  O1612   1.503   .     D
S1611  O1613   1.503   .     D
S1611  O1614   1.674   .     S
O1614  H1615   0.991   .     S
S1616  O1618   1.503   .     D
S1616  O1617   1.503   .     D
S1616  O1619   1.674   .     S
O1619  H1620   0.991   .     S
