data_str_m2_o1_o16_pcu_sym.202
_audit_creation_date              2020-01-03
_audit_creation_method            'Materials Studio'
_symmetry_space_group_name_H-M    'P1'
_symmetry_Int_Tables_number       1
_symmetry_cell_setting            triclinic
loop_
_symmetry_equiv_pos_as_xyz
  x,y,z
_cell_length_a                    28.6434
_cell_length_b                    32.4842
_cell_length_c                    26.9971
_cell_angle_alpha                 90.8804
_cell_angle_beta                  73.4443
_cell_angle_gamma                 90.3926
loop_
_atom_site_label
_atom_site_type_symbol
_atom_site_fract_x
_atom_site_fract_y
_atom_site_fract_z
_atom_site_U_iso_or_equiv
_atom_site_adp_type
_atom_site_occupancy
C1     C     0.16678   0.24595   0.24992   0.00000  Uiso   1.00
C2     C     0.14765   0.15888   0.48825   0.00000  Uiso   1.00
C3     C     0.16047   0.15169   0.43418   0.00000  Uiso   1.00
C4     C     0.18274   0.15188   0.01501   0.00000  Uiso   1.00
C5     C     0.23201   0.14599   0.48690   0.00000  Uiso   1.00
C6     C     0.24354   0.13564   0.43464   0.00000  Uiso   1.00
C7     C     0.20722   0.13514   0.40973   0.00000  Uiso   1.00
C8     C     0.17034   0.14957   0.06888   0.00000  Uiso   1.00
C9     C     0.25566   0.15721   0.06515   0.00000  Uiso   1.00
C10    C     0.12675   0.16244   0.40653   0.00000  Uiso   1.00
C11    C     0.21061   0.31226   0.24235   0.00000  Uiso   1.00
C12    C     0.14103   0.16428   0.34972   0.00000  Uiso   1.00
C13    C     0.21050   0.02151   0.24246   0.00000  Uiso   1.00
C14    C     0.16661   0.04277   0.24953   0.00000  Uiso   1.00
C15    C     0.12285   0.02110   0.25636   0.00000  Uiso   1.00
C16    C     0.12294   0.31184   0.25652   0.00000  Uiso   1.00
C17    C     0.16682   0.29058   0.24967   0.00000  Uiso   1.00
C18    C     0.30319   0.19778   0.27426   0.00000  Uiso   1.00
C19    C     0.01943   0.19778   0.27318   0.00000  Uiso   1.00
C20    C     0.03050   0.13522   0.22722   0.00000  Uiso   1.00
C21    C     0.31452   0.13550   0.22656   0.00000  Uiso   1.00
C22    C     0.16660   0.08739   0.24981   0.00000  Uiso   1.00
C23    C     0.19235   0.16380   0.15035   0.00000  Uiso   1.00
C24    C     0.26837   0.14872   0.01218   0.00000  Uiso   1.00
C25    C     0.20638   0.15735   0.09412   0.00000  Uiso   1.00
C26    C     0.08018   0.17673   0.43366   0.00000  Uiso   1.00
C27    C     0.06810   0.18392   0.48656   0.00000  Uiso   1.00
C28    C     0.10185   0.17640   0.01336   0.00000  Uiso   1.00
Cu29   Cu    0.11978   0.16666   0.25000   0.00000  Uiso   1.00
Cu30   Cu    0.21355   0.16667   0.25000   0.00000  Uiso   1.00
H31    H     0.28427   0.16141   0.08375   0.00000  Uiso   1.00
H32    H     0.24479   0.03770   0.23670   0.00000  Uiso   1.00
H33    H     0.08856   0.03698   0.26193   0.00000  Uiso   1.00
H34    H     0.08866   0.29565   0.26224   0.00000  Uiso   1.00
H35    H     0.03380   0.22236   0.29215   0.00000  Uiso   1.00
H36    H     0.05344   0.10966   0.20954   0.00000  Uiso   1.00
H37    H     0.30092   0.11056   0.20755   0.00000  Uiso   1.00
H38    H     0.28030   0.12679   0.41339   0.00000  Uiso   1.00
H39    H     0.30638   0.14520   0.49085   0.00000  Uiso   1.00
H40    H     0.05388   0.18490   0.41351   0.00000  Uiso   1.00
H41    H     0.09235   0.18596   0.05351   0.00000  Uiso   1.00
H42    H     0.03310   0.19715   0.00659   0.00000  Uiso   1.00
H43    H     0.21711   0.12227   0.37112   0.00000  Uiso   1.00
H44    H     0.24496   0.29642   0.23616   0.00000  Uiso   1.00
N45    N     0.04931   0.16666   0.24998   0.00000  Uiso   1.00
N46    N     0.28402   0.16669   0.24999   0.00000  Uiso   1.00
O47    O     0.12708   0.22678   0.25000   0.00000  Uiso   1.00
O48    O     0.20627   0.22679   0.25000   0.00000  Uiso   1.00
O49    O     0.10775   0.16665   0.32549   0.00000  Uiso   1.00
O50    O     0.18694   0.16666   0.32549   0.00000  Uiso   1.00
O51    O     0.12706   0.10654   0.24999   0.00000  Uiso   1.00
O52    O     0.20625   0.10655   0.24999   0.00000  Uiso   1.00
O53    O     0.14640   0.16667   0.17451   0.00000  Uiso   1.00
O54    O     0.22559   0.16668   0.17451   0.00000  Uiso   1.00
C55    C     0.27451   0.23270   0.30232   0.00000  Uiso   1.00
H56    H     0.28762   0.26382   0.29272   0.00000  Uiso   1.00
O57    O     0.23900   0.22743   0.33926   0.00000  Uiso   1.00
Br58   Br    0.11212   0.11867   0.10285   0.00000  Uiso   1.00
C59    C     0.50011   0.24595   0.24992   0.00000  Uiso   1.00
C60    C     0.48098   0.15888   0.48825   0.00000  Uiso   1.00
C61    C     0.49381   0.15169   0.43418   0.00000  Uiso   1.00
C62    C     0.51608   0.15188   0.01501   0.00000  Uiso   1.00
C63    C     0.56534   0.14599   0.48690   0.00000  Uiso   1.00
C64    C     0.57687   0.13564   0.43464   0.00000  Uiso   1.00
C65    C     0.54055   0.13514   0.40973   0.00000  Uiso   1.00
C66    C     0.50368   0.14957   0.06888   0.00000  Uiso   1.00
C67    C     0.58900   0.15721   0.06515   0.00000  Uiso   1.00
C68    C     0.46009   0.16244   0.40653   0.00000  Uiso   1.00
C69    C     0.54395   0.31226   0.24235   0.00000  Uiso   1.00
C70    C     0.47436   0.16428   0.34972   0.00000  Uiso   1.00
C71    C     0.54384   0.02151   0.24246   0.00000  Uiso   1.00
C72    C     0.49994   0.04277   0.24953   0.00000  Uiso   1.00
C73    C     0.45618   0.02110   0.25636   0.00000  Uiso   1.00
C74    C     0.45627   0.31184   0.25652   0.00000  Uiso   1.00
C75    C     0.50015   0.29058   0.24967   0.00000  Uiso   1.00
C76    C     0.63652   0.19778   0.27426   0.00000  Uiso   1.00
C77    C     0.35276   0.19778   0.27318   0.00000  Uiso   1.00
C78    C     0.36383   0.13522   0.22722   0.00000  Uiso   1.00
C79    C     0.64786   0.13550   0.22656   0.00000  Uiso   1.00
C80    C     0.49994   0.08739   0.24981   0.00000  Uiso   1.00
C81    C     0.52568   0.16380   0.15035   0.00000  Uiso   1.00
C82    C     0.60171   0.14872   0.01218   0.00000  Uiso   1.00
C83    C     0.53972   0.15735   0.09412   0.00000  Uiso   1.00
C84    C     0.41351   0.17673   0.43366   0.00000  Uiso   1.00
C85    C     0.40143   0.18392   0.48656   0.00000  Uiso   1.00
C86    C     0.43518   0.17640   0.01336   0.00000  Uiso   1.00
Cu87   Cu    0.45311   0.16666   0.25000   0.00000  Uiso   1.00
Cu88   Cu    0.54689   0.16667   0.25000   0.00000  Uiso   1.00
H89    H     0.61761   0.16141   0.08375   0.00000  Uiso   1.00
H90    H     0.57812   0.03770   0.23670   0.00000  Uiso   1.00
H91    H     0.42189   0.03698   0.26193   0.00000  Uiso   1.00
H92    H     0.42199   0.29565   0.26224   0.00000  Uiso   1.00
H93    H     0.36713   0.22236   0.29215   0.00000  Uiso   1.00
H94    H     0.38678   0.10966   0.20954   0.00000  Uiso   1.00
H95    H     0.63425   0.11056   0.20755   0.00000  Uiso   1.00
H96    H     0.61363   0.12679   0.41339   0.00000  Uiso   1.00
H97    H     0.63971   0.14520   0.49085   0.00000  Uiso   1.00
H98    H     0.38722   0.18490   0.41351   0.00000  Uiso   1.00
H99    H     0.42569   0.18596   0.05351   0.00000  Uiso   1.00
H100   H     0.36644   0.19715   0.00659   0.00000  Uiso   1.00
H101   H     0.55044   0.12227   0.37112   0.00000  Uiso   1.00
H102   H     0.57829   0.29642   0.23616   0.00000  Uiso   1.00
N103   N     0.38265   0.16666   0.24998   0.00000  Uiso   1.00
N104   N     0.61735   0.16669   0.24999   0.00000  Uiso   1.00
O105   O     0.46042   0.22678   0.25000   0.00000  Uiso   1.00
O106   O     0.53961   0.22679   0.25000   0.00000  Uiso   1.00
O107   O     0.44108   0.16665   0.32549   0.00000  Uiso   1.00
O108   O     0.52027   0.16666   0.32549   0.00000  Uiso   1.00
O109   O     0.46039   0.10654   0.24999   0.00000  Uiso   1.00
O110   O     0.53958   0.10655   0.24999   0.00000  Uiso   1.00
O111   O     0.47973   0.16667   0.17451   0.00000  Uiso   1.00
O112   O     0.55892   0.16668   0.17451   0.00000  Uiso   1.00
C113   C     0.60785   0.23270   0.30232   0.00000  Uiso   1.00
H114   H     0.62096   0.26382   0.29272   0.00000  Uiso   1.00
O115   O     0.57233   0.22743   0.33926   0.00000  Uiso   1.00
Br116  Br    0.44546   0.11867   0.10285   0.00000  Uiso   1.00
C117   C     0.83345   0.24595   0.24992   0.00000  Uiso   1.00
C118   C     0.81431   0.15888   0.48825   0.00000  Uiso   1.00
C119   C     0.82714   0.15169   0.43418   0.00000  Uiso   1.00
C120   C     0.84941   0.15188   0.01501   0.00000  Uiso   1.00
C121   C     0.89868   0.14599   0.48690   0.00000  Uiso   1.00
C122   C     0.91020   0.13564   0.43464   0.00000  Uiso   1.00
C123   C     0.87388   0.13514   0.40973   0.00000  Uiso   1.00
C124   C     0.83701   0.14957   0.06888   0.00000  Uiso   1.00
C125   C     0.92233   0.15721   0.06515   0.00000  Uiso   1.00
C126   C     0.79342   0.16244   0.40653   0.00000  Uiso   1.00
C127   C     0.87728   0.31226   0.24235   0.00000  Uiso   1.00
C128   C     0.80769   0.16428   0.34972   0.00000  Uiso   1.00
C129   C     0.87717   0.02151   0.24246   0.00000  Uiso   1.00
C130   C     0.83328   0.04277   0.24953   0.00000  Uiso   1.00
C131   C     0.78952   0.02110   0.25636   0.00000  Uiso   1.00
C132   C     0.78960   0.31184   0.25652   0.00000  Uiso   1.00
C133   C     0.83348   0.29058   0.24967   0.00000  Uiso   1.00
C134   C     0.96985   0.19778   0.27426   0.00000  Uiso   1.00
C135   C     0.68609   0.19778   0.27318   0.00000  Uiso   1.00
C136   C     0.69716   0.13522   0.22722   0.00000  Uiso   1.00
C137   C     0.98119   0.13550   0.22656   0.00000  Uiso   1.00
C138   C     0.83327   0.08739   0.24981   0.00000  Uiso   1.00
C139   C     0.85902   0.16380   0.15035   0.00000  Uiso   1.00
C140   C     0.93504   0.14872   0.01218   0.00000  Uiso   1.00
C141   C     0.87305   0.15735   0.09412   0.00000  Uiso   1.00
C142   C     0.74684   0.17673   0.43366   0.00000  Uiso   1.00
C143   C     0.73476   0.18392   0.48656   0.00000  Uiso   1.00
C144   C     0.76852   0.17640   0.01336   0.00000  Uiso   1.00
Cu145  Cu    0.78645   0.16666   0.25000   0.00000  Uiso   1.00
Cu146  Cu    0.88022   0.16667   0.25000   0.00000  Uiso   1.00
H147   H     0.95094   0.16141   0.08375   0.00000  Uiso   1.00
H148   H     0.91146   0.03770   0.23670   0.00000  Uiso   1.00
H149   H     0.75523   0.03698   0.26193   0.00000  Uiso   1.00
H150   H     0.75532   0.29565   0.26224   0.00000  Uiso   1.00
H151   H     0.70047   0.22236   0.29215   0.00000  Uiso   1.00
H152   H     0.72011   0.10966   0.20954   0.00000  Uiso   1.00
H153   H     0.96759   0.11056   0.20755   0.00000  Uiso   1.00
H154   H     0.94696   0.12679   0.41339   0.00000  Uiso   1.00
H155   H     0.97305   0.14520   0.49085   0.00000  Uiso   1.00
H156   H     0.72055   0.18490   0.41351   0.00000  Uiso   1.00
H157   H     0.75902   0.18596   0.05351   0.00000  Uiso   1.00
H158   H     0.69977   0.19715   0.00659   0.00000  Uiso   1.00
H159   H     0.88378   0.12227   0.37112   0.00000  Uiso   1.00
H160   H     0.91162   0.29642   0.23616   0.00000  Uiso   1.00
N161   N     0.71598   0.16666   0.24998   0.00000  Uiso   1.00
N162   N     0.95069   0.16669   0.24999   0.00000  Uiso   1.00
O163   O     0.79375   0.22678   0.25000   0.00000  Uiso   1.00
O164   O     0.87294   0.22679   0.25000   0.00000  Uiso   1.00
O165   O     0.77441   0.16665   0.32549   0.00000  Uiso   1.00
O166   O     0.85360   0.16666   0.32549   0.00000  Uiso   1.00
O167   O     0.79373   0.10654   0.24999   0.00000  Uiso   1.00
O168   O     0.87292   0.10655   0.24999   0.00000  Uiso   1.00
O169   O     0.81306   0.16667   0.17451   0.00000  Uiso   1.00
O170   O     0.89225   0.16668   0.17451   0.00000  Uiso   1.00
C171   C     0.94118   0.23270   0.30232   0.00000  Uiso   1.00
H172   H     0.95429   0.26382   0.29272   0.00000  Uiso   1.00
O173   O     0.90566   0.22743   0.33926   0.00000  Uiso   1.00
Br174  Br    0.77879   0.11867   0.10285   0.00000  Uiso   1.00
C175   C     0.16678   0.57928   0.24992   0.00000  Uiso   1.00
C176   C     0.14765   0.49222   0.48825   0.00000  Uiso   1.00
C177   C     0.16047   0.48503   0.43418   0.00000  Uiso   1.00
C178   C     0.18274   0.48521   0.01501   0.00000  Uiso   1.00
C179   C     0.23201   0.47932   0.48690   0.00000  Uiso   1.00
C180   C     0.24354   0.46897   0.43464   0.00000  Uiso   1.00
C181   C     0.20722   0.46847   0.40973   0.00000  Uiso   1.00
C182   C     0.17034   0.48291   0.06888   0.00000  Uiso   1.00
C183   C     0.25566   0.49055   0.06515   0.00000  Uiso   1.00
C184   C     0.12675   0.49577   0.40653   0.00000  Uiso   1.00
C185   C     0.21061   0.64559   0.24235   0.00000  Uiso   1.00
C186   C     0.14103   0.49762   0.34972   0.00000  Uiso   1.00
C187   C     0.21050   0.35485   0.24246   0.00000  Uiso   1.00
C188   C     0.16661   0.37610   0.24953   0.00000  Uiso   1.00
C189   C     0.12285   0.35444   0.25636   0.00000  Uiso   1.00
C190   C     0.12294   0.64517   0.25652   0.00000  Uiso   1.00
C191   C     0.16682   0.62392   0.24967   0.00000  Uiso   1.00
C192   C     0.30319   0.53111   0.27426   0.00000  Uiso   1.00
C193   C     0.01943   0.53111   0.27318   0.00000  Uiso   1.00
C194   C     0.03050   0.46856   0.22722   0.00000  Uiso   1.00
C195   C     0.31452   0.46884   0.22656   0.00000  Uiso   1.00
C196   C     0.16660   0.42072   0.24981   0.00000  Uiso   1.00
C197   C     0.19235   0.49713   0.15035   0.00000  Uiso   1.00
C198   C     0.26837   0.48206   0.01218   0.00000  Uiso   1.00
C199   C     0.20638   0.49068   0.09412   0.00000  Uiso   1.00
C200   C     0.08018   0.51007   0.43366   0.00000  Uiso   1.00
C201   C     0.06810   0.51725   0.48656   0.00000  Uiso   1.00
C202   C     0.10185   0.50973   0.01336   0.00000  Uiso   1.00
Cu203  Cu    0.11978   0.49999   0.25000   0.00000  Uiso   1.00
Cu204  Cu    0.21355   0.50001   0.25000   0.00000  Uiso   1.00
H205   H     0.28427   0.49474   0.08375   0.00000  Uiso   1.00
H206   H     0.24479   0.37103   0.23670   0.00000  Uiso   1.00
H207   H     0.08856   0.37032   0.26193   0.00000  Uiso   1.00
H208   H     0.08866   0.62898   0.26224   0.00000  Uiso   1.00
H209   H     0.03380   0.55569   0.29215   0.00000  Uiso   1.00
H210   H     0.05344   0.44299   0.20954   0.00000  Uiso   1.00
H211   H     0.30092   0.44389   0.20755   0.00000  Uiso   1.00
H212   H     0.28030   0.46012   0.41339   0.00000  Uiso   1.00
H213   H     0.30638   0.47853   0.49085   0.00000  Uiso   1.00
H214   H     0.05388   0.51823   0.41351   0.00000  Uiso   1.00
H215   H     0.09235   0.51929   0.05351   0.00000  Uiso   1.00
H216   H     0.03310   0.53049   0.00659   0.00000  Uiso   1.00
H217   H     0.21711   0.45561   0.37112   0.00000  Uiso   1.00
H218   H     0.24496   0.62975   0.23616   0.00000  Uiso   1.00
N219   N     0.04931   0.49999   0.24998   0.00000  Uiso   1.00
N220   N     0.28402   0.50002   0.24999   0.00000  Uiso   1.00
O221   O     0.12708   0.56011   0.25000   0.00000  Uiso   1.00
O222   O     0.20627   0.56012   0.25000   0.00000  Uiso   1.00
O223   O     0.10775   0.49998   0.32549   0.00000  Uiso   1.00
O224   O     0.18694   0.49999   0.32549   0.00000  Uiso   1.00
O225   O     0.12706   0.43988   0.24999   0.00000  Uiso   1.00
O226   O     0.20625   0.43989   0.24999   0.00000  Uiso   1.00
O227   O     0.14640   0.50001   0.17451   0.00000  Uiso   1.00
O228   O     0.22559   0.50002   0.17451   0.00000  Uiso   1.00
C229   C     0.27451   0.56603   0.30232   0.00000  Uiso   1.00
H230   H     0.28762   0.59716   0.29272   0.00000  Uiso   1.00
O231   O     0.23900   0.56076   0.33926   0.00000  Uiso   1.00
Br232  Br    0.11212   0.45201   0.10285   0.00000  Uiso   1.00
C233   C     0.50011   0.57928   0.24992   0.00000  Uiso   1.00
C234   C     0.48098   0.49222   0.48825   0.00000  Uiso   1.00
C235   C     0.49381   0.48503   0.43418   0.00000  Uiso   1.00
C236   C     0.51608   0.48521   0.01501   0.00000  Uiso   1.00
C237   C     0.56534   0.47932   0.48690   0.00000  Uiso   1.00
C238   C     0.57687   0.46897   0.43464   0.00000  Uiso   1.00
C239   C     0.54055   0.46847   0.40973   0.00000  Uiso   1.00
C240   C     0.50368   0.48291   0.06888   0.00000  Uiso   1.00
C241   C     0.58900   0.49055   0.06515   0.00000  Uiso   1.00
C242   C     0.46009   0.49577   0.40653   0.00000  Uiso   1.00
C243   C     0.54395   0.64559   0.24235   0.00000  Uiso   1.00
C244   C     0.47436   0.49762   0.34972   0.00000  Uiso   1.00
C245   C     0.54384   0.35485   0.24246   0.00000  Uiso   1.00
C246   C     0.49994   0.37610   0.24953   0.00000  Uiso   1.00
C247   C     0.45618   0.35444   0.25636   0.00000  Uiso   1.00
C248   C     0.45627   0.64517   0.25652   0.00000  Uiso   1.00
C249   C     0.50015   0.62392   0.24967   0.00000  Uiso   1.00
C250   C     0.63652   0.53111   0.27426   0.00000  Uiso   1.00
C251   C     0.35276   0.53111   0.27318   0.00000  Uiso   1.00
C252   C     0.36383   0.46856   0.22722   0.00000  Uiso   1.00
C253   C     0.64786   0.46884   0.22656   0.00000  Uiso   1.00
C254   C     0.49994   0.42072   0.24981   0.00000  Uiso   1.00
C255   C     0.52568   0.49713   0.15035   0.00000  Uiso   1.00
C256   C     0.60171   0.48206   0.01218   0.00000  Uiso   1.00
C257   C     0.53972   0.49068   0.09412   0.00000  Uiso   1.00
C258   C     0.41351   0.51007   0.43366   0.00000  Uiso   1.00
C259   C     0.40143   0.51725   0.48656   0.00000  Uiso   1.00
C260   C     0.43518   0.50973   0.01336   0.00000  Uiso   1.00
Cu261  Cu    0.45311   0.49999   0.25000   0.00000  Uiso   1.00
Cu262  Cu    0.54689   0.50001   0.25000   0.00000  Uiso   1.00
H263   H     0.61761   0.49474   0.08375   0.00000  Uiso   1.00
H264   H     0.57812   0.37103   0.23670   0.00000  Uiso   1.00
H265   H     0.42189   0.37032   0.26193   0.00000  Uiso   1.00
H266   H     0.42199   0.62898   0.26224   0.00000  Uiso   1.00
H267   H     0.36713   0.55569   0.29215   0.00000  Uiso   1.00
H268   H     0.38678   0.44299   0.20954   0.00000  Uiso   1.00
H269   H     0.63425   0.44389   0.20755   0.00000  Uiso   1.00
H270   H     0.61363   0.46012   0.41339   0.00000  Uiso   1.00
H271   H     0.63971   0.47853   0.49085   0.00000  Uiso   1.00
H272   H     0.38722   0.51823   0.41351   0.00000  Uiso   1.00
H273   H     0.42569   0.51929   0.05351   0.00000  Uiso   1.00
H274   H     0.36644   0.53049   0.00659   0.00000  Uiso   1.00
H275   H     0.55044   0.45561   0.37112   0.00000  Uiso   1.00
H276   H     0.57829   0.62975   0.23616   0.00000  Uiso   1.00
N277   N     0.38265   0.49999   0.24998   0.00000  Uiso   1.00
N278   N     0.61735   0.50002   0.24999   0.00000  Uiso   1.00
O279   O     0.46042   0.56011   0.25000   0.00000  Uiso   1.00
O280   O     0.53961   0.56012   0.25000   0.00000  Uiso   1.00
O281   O     0.44108   0.49998   0.32549   0.00000  Uiso   1.00
O282   O     0.52027   0.49999   0.32549   0.00000  Uiso   1.00
O283   O     0.46039   0.43988   0.24999   0.00000  Uiso   1.00
O284   O     0.53958   0.43989   0.24999   0.00000  Uiso   1.00
O285   O     0.47973   0.50001   0.17451   0.00000  Uiso   1.00
O286   O     0.55892   0.50002   0.17451   0.00000  Uiso   1.00
C287   C     0.60785   0.56603   0.30232   0.00000  Uiso   1.00
H288   H     0.62096   0.59716   0.29272   0.00000  Uiso   1.00
O289   O     0.57233   0.56076   0.33926   0.00000  Uiso   1.00
Br290  Br    0.44546   0.45201   0.10285   0.00000  Uiso   1.00
C291   C     0.83345   0.57928   0.24992   0.00000  Uiso   1.00
C292   C     0.81431   0.49222   0.48825   0.00000  Uiso   1.00
C293   C     0.82714   0.48503   0.43418   0.00000  Uiso   1.00
C294   C     0.84941   0.48521   0.01501   0.00000  Uiso   1.00
C295   C     0.89868   0.47932   0.48690   0.00000  Uiso   1.00
C296   C     0.91020   0.46897   0.43464   0.00000  Uiso   1.00
C297   C     0.87388   0.46847   0.40973   0.00000  Uiso   1.00
C298   C     0.83701   0.48291   0.06888   0.00000  Uiso   1.00
C299   C     0.92233   0.49055   0.06515   0.00000  Uiso   1.00
C300   C     0.79342   0.49577   0.40653   0.00000  Uiso   1.00
C301   C     0.87728   0.64559   0.24235   0.00000  Uiso   1.00
C302   C     0.80769   0.49762   0.34972   0.00000  Uiso   1.00
C303   C     0.87717   0.35485   0.24246   0.00000  Uiso   1.00
C304   C     0.83328   0.37610   0.24953   0.00000  Uiso   1.00
C305   C     0.78952   0.35444   0.25636   0.00000  Uiso   1.00
C306   C     0.78960   0.64517   0.25652   0.00000  Uiso   1.00
C307   C     0.83348   0.62392   0.24967   0.00000  Uiso   1.00
C308   C     0.96985   0.53111   0.27426   0.00000  Uiso   1.00
C309   C     0.68609   0.53111   0.27318   0.00000  Uiso   1.00
C310   C     0.69716   0.46856   0.22722   0.00000  Uiso   1.00
C311   C     0.98119   0.46884   0.22656   0.00000  Uiso   1.00
C312   C     0.83327   0.42072   0.24981   0.00000  Uiso   1.00
C313   C     0.85902   0.49713   0.15035   0.00000  Uiso   1.00
C314   C     0.93504   0.48206   0.01218   0.00000  Uiso   1.00
C315   C     0.87305   0.49068   0.09412   0.00000  Uiso   1.00
C316   C     0.74684   0.51007   0.43366   0.00000  Uiso   1.00
C317   C     0.73476   0.51725   0.48656   0.00000  Uiso   1.00
C318   C     0.76852   0.50973   0.01336   0.00000  Uiso   1.00
Cu319  Cu    0.78645   0.49999   0.25000   0.00000  Uiso   1.00
Cu320  Cu    0.88022   0.50001   0.25000   0.00000  Uiso   1.00
H321   H     0.95094   0.49474   0.08375   0.00000  Uiso   1.00
H322   H     0.91146   0.37103   0.23670   0.00000  Uiso   1.00
H323   H     0.75523   0.37032   0.26193   0.00000  Uiso   1.00
H324   H     0.75532   0.62898   0.26224   0.00000  Uiso   1.00
H325   H     0.70047   0.55569   0.29215   0.00000  Uiso   1.00
H326   H     0.72011   0.44299   0.20954   0.00000  Uiso   1.00
H327   H     0.96759   0.44389   0.20755   0.00000  Uiso   1.00
H328   H     0.94696   0.46012   0.41339   0.00000  Uiso   1.00
H329   H     0.97305   0.47853   0.49085   0.00000  Uiso   1.00
H330   H     0.72055   0.51823   0.41351   0.00000  Uiso   1.00
H331   H     0.75902   0.51929   0.05351   0.00000  Uiso   1.00
H332   H     0.69977   0.53049   0.00659   0.00000  Uiso   1.00
H333   H     0.88378   0.45561   0.37112   0.00000  Uiso   1.00
H334   H     0.91162   0.62975   0.23616   0.00000  Uiso   1.00
N335   N     0.71598   0.49999   0.24998   0.00000  Uiso   1.00
N336   N     0.95069   0.50002   0.24999   0.00000  Uiso   1.00
O337   O     0.79375   0.56011   0.25000   0.00000  Uiso   1.00
O338   O     0.87294   0.56012   0.25000   0.00000  Uiso   1.00
O339   O     0.77441   0.49998   0.32549   0.00000  Uiso   1.00
O340   O     0.85360   0.49999   0.32549   0.00000  Uiso   1.00
O341   O     0.79373   0.43988   0.24999   0.00000  Uiso   1.00
O342   O     0.87292   0.43989   0.24999   0.00000  Uiso   1.00
O343   O     0.81306   0.50001   0.17451   0.00000  Uiso   1.00
O344   O     0.89225   0.50002   0.17451   0.00000  Uiso   1.00
C345   C     0.94118   0.56603   0.30232   0.00000  Uiso   1.00
H346   H     0.95429   0.59716   0.29272   0.00000  Uiso   1.00
O347   O     0.90566   0.56076   0.33926   0.00000  Uiso   1.00
Br348  Br    0.77879   0.45201   0.10285   0.00000  Uiso   1.00
C349   C     0.16678   0.91261   0.24992   0.00000  Uiso   1.00
C350   C     0.14765   0.82555   0.48825   0.00000  Uiso   1.00
C351   C     0.16047   0.81836   0.43418   0.00000  Uiso   1.00
C352   C     0.18274   0.81854   0.01501   0.00000  Uiso   1.00
C353   C     0.23201   0.81266   0.48690   0.00000  Uiso   1.00
C354   C     0.24354   0.80230   0.43464   0.00000  Uiso   1.00
C355   C     0.20722   0.80181   0.40973   0.00000  Uiso   1.00
C356   C     0.17034   0.81624   0.06888   0.00000  Uiso   1.00
C357   C     0.25566   0.82388   0.06515   0.00000  Uiso   1.00
C358   C     0.12675   0.82911   0.40653   0.00000  Uiso   1.00
C359   C     0.21061   0.97893   0.24235   0.00000  Uiso   1.00
C360   C     0.14103   0.83095   0.34972   0.00000  Uiso   1.00
C361   C     0.21050   0.68818   0.24246   0.00000  Uiso   1.00
C362   C     0.16661   0.70943   0.24953   0.00000  Uiso   1.00
C363   C     0.12285   0.68777   0.25636   0.00000  Uiso   1.00
C364   C     0.12294   0.97851   0.25652   0.00000  Uiso   1.00
C365   C     0.16682   0.95725   0.24967   0.00000  Uiso   1.00
C366   C     0.30319   0.86444   0.27426   0.00000  Uiso   1.00
C367   C     0.01943   0.86445   0.27318   0.00000  Uiso   1.00
C368   C     0.03050   0.80189   0.22722   0.00000  Uiso   1.00
C369   C     0.31452   0.80217   0.22656   0.00000  Uiso   1.00
C370   C     0.16660   0.75406   0.24981   0.00000  Uiso   1.00
C371   C     0.19235   0.83046   0.15035   0.00000  Uiso   1.00
C372   C     0.26837   0.81539   0.01218   0.00000  Uiso   1.00
C373   C     0.20638   0.82402   0.09412   0.00000  Uiso   1.00
C374   C     0.08018   0.84340   0.43366   0.00000  Uiso   1.00
C375   C     0.06810   0.85058   0.48656   0.00000  Uiso   1.00
C376   C     0.10185   0.84306   0.01336   0.00000  Uiso   1.00
Cu377  Cu    0.11978   0.83333   0.25000   0.00000  Uiso   1.00
Cu378  Cu    0.21355   0.83334   0.25000   0.00000  Uiso   1.00
H379   H     0.28427   0.82808   0.08375   0.00000  Uiso   1.00
H380   H     0.24479   0.70437   0.23670   0.00000  Uiso   1.00
H381   H     0.08856   0.70365   0.26193   0.00000  Uiso   1.00
H382   H     0.08866   0.96232   0.26224   0.00000  Uiso   1.00
H383   H     0.03380   0.88903   0.29215   0.00000  Uiso   1.00
H384   H     0.05344   0.77633   0.20954   0.00000  Uiso   1.00
H385   H     0.30092   0.77722   0.20755   0.00000  Uiso   1.00
H386   H     0.28030   0.79346   0.41339   0.00000  Uiso   1.00
H387   H     0.30638   0.81187   0.49085   0.00000  Uiso   1.00
H388   H     0.05388   0.85156   0.41351   0.00000  Uiso   1.00
H389   H     0.09235   0.85263   0.05351   0.00000  Uiso   1.00
H390   H     0.03310   0.86382   0.00659   0.00000  Uiso   1.00
H391   H     0.21711   0.78894   0.37112   0.00000  Uiso   1.00
H392   H     0.24496   0.96308   0.23616   0.00000  Uiso   1.00
N393   N     0.04931   0.83332   0.24998   0.00000  Uiso   1.00
N394   N     0.28402   0.83335   0.24999   0.00000  Uiso   1.00
O395   O     0.12708   0.89345   0.25000   0.00000  Uiso   1.00
O396   O     0.20627   0.89346   0.25000   0.00000  Uiso   1.00
O397   O     0.10775   0.83332   0.32549   0.00000  Uiso   1.00
O398   O     0.18694   0.83333   0.32549   0.00000  Uiso   1.00
O399   O     0.12706   0.77321   0.24999   0.00000  Uiso   1.00
O400   O     0.20625   0.77322   0.24999   0.00000  Uiso   1.00
O401   O     0.14640   0.83334   0.17451   0.00000  Uiso   1.00
O402   O     0.22559   0.83335   0.17451   0.00000  Uiso   1.00
C403   C     0.27451   0.89937   0.30232   0.00000  Uiso   1.00
H404   H     0.28762   0.93049   0.29272   0.00000  Uiso   1.00
O405   O     0.23900   0.89410   0.33926   0.00000  Uiso   1.00
Br406  Br    0.11212   0.78534   0.10285   0.00000  Uiso   1.00
C407   C     0.50011   0.91261   0.24992   0.00000  Uiso   1.00
C408   C     0.48098   0.82555   0.48825   0.00000  Uiso   1.00
C409   C     0.49381   0.81836   0.43418   0.00000  Uiso   1.00
C410   C     0.51608   0.81854   0.01501   0.00000  Uiso   1.00
C411   C     0.56534   0.81266   0.48690   0.00000  Uiso   1.00
C412   C     0.57687   0.80230   0.43464   0.00000  Uiso   1.00
C413   C     0.54055   0.80181   0.40973   0.00000  Uiso   1.00
C414   C     0.50368   0.81624   0.06888   0.00000  Uiso   1.00
C415   C     0.58900   0.82388   0.06515   0.00000  Uiso   1.00
C416   C     0.46009   0.82911   0.40653   0.00000  Uiso   1.00
C417   C     0.54395   0.97893   0.24235   0.00000  Uiso   1.00
C418   C     0.47436   0.83095   0.34972   0.00000  Uiso   1.00
C419   C     0.54384   0.68818   0.24246   0.00000  Uiso   1.00
C420   C     0.49994   0.70943   0.24953   0.00000  Uiso   1.00
C421   C     0.45618   0.68777   0.25636   0.00000  Uiso   1.00
C422   C     0.45627   0.97851   0.25652   0.00000  Uiso   1.00
C423   C     0.50015   0.95725   0.24967   0.00000  Uiso   1.00
C424   C     0.63652   0.86444   0.27426   0.00000  Uiso   1.00
C425   C     0.35276   0.86445   0.27318   0.00000  Uiso   1.00
C426   C     0.36383   0.80189   0.22722   0.00000  Uiso   1.00
C427   C     0.64786   0.80217   0.22656   0.00000  Uiso   1.00
C428   C     0.49994   0.75406   0.24981   0.00000  Uiso   1.00
C429   C     0.52568   0.83046   0.15035   0.00000  Uiso   1.00
C430   C     0.60171   0.81539   0.01218   0.00000  Uiso   1.00
C431   C     0.53972   0.82402   0.09412   0.00000  Uiso   1.00
C432   C     0.41351   0.84340   0.43366   0.00000  Uiso   1.00
C433   C     0.40143   0.85058   0.48656   0.00000  Uiso   1.00
C434   C     0.43518   0.84306   0.01336   0.00000  Uiso   1.00
Cu435  Cu    0.45311   0.83333   0.25000   0.00000  Uiso   1.00
Cu436  Cu    0.54689   0.83334   0.25000   0.00000  Uiso   1.00
H437   H     0.61761   0.82808   0.08375   0.00000  Uiso   1.00
H438   H     0.57812   0.70437   0.23670   0.00000  Uiso   1.00
H439   H     0.42189   0.70365   0.26193   0.00000  Uiso   1.00
H440   H     0.42199   0.96232   0.26224   0.00000  Uiso   1.00
H441   H     0.36713   0.88903   0.29215   0.00000  Uiso   1.00
H442   H     0.38678   0.77633   0.20954   0.00000  Uiso   1.00
H443   H     0.63425   0.77722   0.20755   0.00000  Uiso   1.00
H444   H     0.61363   0.79346   0.41339   0.00000  Uiso   1.00
H445   H     0.63971   0.81187   0.49085   0.00000  Uiso   1.00
H446   H     0.38722   0.85156   0.41351   0.00000  Uiso   1.00
H447   H     0.42569   0.85263   0.05351   0.00000  Uiso   1.00
H448   H     0.36644   0.86382   0.00659   0.00000  Uiso   1.00
H449   H     0.55044   0.78894   0.37112   0.00000  Uiso   1.00
H450   H     0.57829   0.96308   0.23616   0.00000  Uiso   1.00
N451   N     0.38265   0.83332   0.24998   0.00000  Uiso   1.00
N452   N     0.61735   0.83335   0.24999   0.00000  Uiso   1.00
O453   O     0.46042   0.89345   0.25000   0.00000  Uiso   1.00
O454   O     0.53961   0.89346   0.25000   0.00000  Uiso   1.00
O455   O     0.44108   0.83332   0.32549   0.00000  Uiso   1.00
O456   O     0.52027   0.83333   0.32549   0.00000  Uiso   1.00
O457   O     0.46039   0.77321   0.24999   0.00000  Uiso   1.00
O458   O     0.53958   0.77322   0.24999   0.00000  Uiso   1.00
O459   O     0.47973   0.83334   0.17451   0.00000  Uiso   1.00
O460   O     0.55892   0.83335   0.17451   0.00000  Uiso   1.00
C461   C     0.60785   0.89937   0.30232   0.00000  Uiso   1.00
H462   H     0.62096   0.93049   0.29272   0.00000  Uiso   1.00
O463   O     0.57233   0.89410   0.33926   0.00000  Uiso   1.00
Br464  Br    0.44546   0.78534   0.10285   0.00000  Uiso   1.00
C465   C     0.83345   0.91261   0.24992   0.00000  Uiso   1.00
C466   C     0.81431   0.82555   0.48825   0.00000  Uiso   1.00
C467   C     0.82714   0.81836   0.43418   0.00000  Uiso   1.00
C468   C     0.84941   0.81854   0.01501   0.00000  Uiso   1.00
C469   C     0.89868   0.81266   0.48690   0.00000  Uiso   1.00
C470   C     0.91020   0.80230   0.43464   0.00000  Uiso   1.00
C471   C     0.87388   0.80181   0.40973   0.00000  Uiso   1.00
C472   C     0.83701   0.81624   0.06888   0.00000  Uiso   1.00
C473   C     0.92233   0.82388   0.06515   0.00000  Uiso   1.00
C474   C     0.79342   0.82911   0.40653   0.00000  Uiso   1.00
C475   C     0.87728   0.97893   0.24235   0.00000  Uiso   1.00
C476   C     0.80769   0.83095   0.34972   0.00000  Uiso   1.00
C477   C     0.87717   0.68818   0.24246   0.00000  Uiso   1.00
C478   C     0.83328   0.70943   0.24953   0.00000  Uiso   1.00
C479   C     0.78952   0.68777   0.25636   0.00000  Uiso   1.00
C480   C     0.78960   0.97851   0.25652   0.00000  Uiso   1.00
C481   C     0.83348   0.95725   0.24967   0.00000  Uiso   1.00
C482   C     0.96985   0.86444   0.27426   0.00000  Uiso   1.00
C483   C     0.68609   0.86445   0.27318   0.00000  Uiso   1.00
C484   C     0.69716   0.80189   0.22722   0.00000  Uiso   1.00
C485   C     0.98119   0.80217   0.22656   0.00000  Uiso   1.00
C486   C     0.83327   0.75406   0.24981   0.00000  Uiso   1.00
C487   C     0.85902   0.83046   0.15035   0.00000  Uiso   1.00
C488   C     0.93504   0.81539   0.01218   0.00000  Uiso   1.00
C489   C     0.87305   0.82402   0.09412   0.00000  Uiso   1.00
C490   C     0.74684   0.84340   0.43366   0.00000  Uiso   1.00
C491   C     0.73476   0.85058   0.48656   0.00000  Uiso   1.00
C492   C     0.76852   0.84306   0.01336   0.00000  Uiso   1.00
Cu493  Cu    0.78645   0.83333   0.25000   0.00000  Uiso   1.00
Cu494  Cu    0.88022   0.83334   0.25000   0.00000  Uiso   1.00
H495   H     0.95094   0.82808   0.08375   0.00000  Uiso   1.00
H496   H     0.91146   0.70437   0.23670   0.00000  Uiso   1.00
H497   H     0.75523   0.70365   0.26193   0.00000  Uiso   1.00
H498   H     0.75532   0.96232   0.26224   0.00000  Uiso   1.00
H499   H     0.70047   0.88903   0.29215   0.00000  Uiso   1.00
H500   H     0.72011   0.77633   0.20954   0.00000  Uiso   1.00
H501   H     0.96759   0.77722   0.20755   0.00000  Uiso   1.00
H502   H     0.94696   0.79346   0.41339   0.00000  Uiso   1.00
H503   H     0.97305   0.81187   0.49085   0.00000  Uiso   1.00
H504   H     0.72055   0.85156   0.41351   0.00000  Uiso   1.00
H505   H     0.75902   0.85263   0.05351   0.00000  Uiso   1.00
H506   H     0.69977   0.86382   0.00659   0.00000  Uiso   1.00
H507   H     0.88378   0.78894   0.37112   0.00000  Uiso   1.00
H508   H     0.91162   0.96308   0.23616   0.00000  Uiso   1.00
N509   N     0.71598   0.83332   0.24998   0.00000  Uiso   1.00
N510   N     0.95069   0.83335   0.24999   0.00000  Uiso   1.00
O511   O     0.79375   0.89345   0.25000   0.00000  Uiso   1.00
O512   O     0.87294   0.89346   0.25000   0.00000  Uiso   1.00
O513   O     0.77441   0.83332   0.32549   0.00000  Uiso   1.00
O514   O     0.85360   0.83333   0.32549   0.00000  Uiso   1.00
O515   O     0.79373   0.77321   0.24999   0.00000  Uiso   1.00
O516   O     0.87292   0.77322   0.24999   0.00000  Uiso   1.00
O517   O     0.81306   0.83334   0.17451   0.00000  Uiso   1.00
O518   O     0.89225   0.83335   0.17451   0.00000  Uiso   1.00
C519   C     0.94118   0.89937   0.30232   0.00000  Uiso   1.00
H520   H     0.95429   0.93049   0.29272   0.00000  Uiso   1.00
O521   O     0.90566   0.89410   0.33926   0.00000  Uiso   1.00
Br522  Br    0.77879   0.78534   0.10285   0.00000  Uiso   1.00
C523   C     0.16678   0.24595   0.74992   0.00000  Uiso   1.00
C524   C     0.14765   0.15888   0.98825   0.00000  Uiso   1.00
C525   C     0.16047   0.15169   0.93418   0.00000  Uiso   1.00
C526   C     0.18274   0.15188   0.51501   0.00000  Uiso   1.00
C527   C     0.23201   0.14599   0.98690   0.00000  Uiso   1.00
C528   C     0.24354   0.13564   0.93464   0.00000  Uiso   1.00
C529   C     0.20722   0.13514   0.90973   0.00000  Uiso   1.00
C530   C     0.17034   0.14957   0.56888   0.00000  Uiso   1.00
C531   C     0.25566   0.15721   0.56515   0.00000  Uiso   1.00
C532   C     0.12675   0.16244   0.90653   0.00000  Uiso   1.00
C533   C     0.21061   0.31226   0.74235   0.00000  Uiso   1.00
C534   C     0.14103   0.16428   0.84972   0.00000  Uiso   1.00
C535   C     0.21050   0.02151   0.74246   0.00000  Uiso   1.00
C536   C     0.16661   0.04277   0.74953   0.00000  Uiso   1.00
C537   C     0.12285   0.02110   0.75636   0.00000  Uiso   1.00
C538   C     0.12294   0.31184   0.75652   0.00000  Uiso   1.00
C539   C     0.16682   0.29058   0.74967   0.00000  Uiso   1.00
C540   C     0.30319   0.19778   0.77426   0.00000  Uiso   1.00
C541   C     0.01943   0.19778   0.77318   0.00000  Uiso   1.00
C542   C     0.03050   0.13522   0.72722   0.00000  Uiso   1.00
C543   C     0.31452   0.13550   0.72656   0.00000  Uiso   1.00
C544   C     0.16660   0.08739   0.74981   0.00000  Uiso   1.00
C545   C     0.19235   0.16380   0.65035   0.00000  Uiso   1.00
C546   C     0.26837   0.14872   0.51218   0.00000  Uiso   1.00
C547   C     0.20638   0.15735   0.59412   0.00000  Uiso   1.00
C548   C     0.08018   0.17673   0.93366   0.00000  Uiso   1.00
C549   C     0.06810   0.18392   0.98656   0.00000  Uiso   1.00
C550   C     0.10185   0.17640   0.51336   0.00000  Uiso   1.00
Cu551  Cu    0.11978   0.16666   0.75000   0.00000  Uiso   1.00
Cu552  Cu    0.21355   0.16667   0.75000   0.00000  Uiso   1.00
H553   H     0.28427   0.16141   0.58375   0.00000  Uiso   1.00
H554   H     0.24479   0.03770   0.73670   0.00000  Uiso   1.00
H555   H     0.08856   0.03698   0.76193   0.00000  Uiso   1.00
H556   H     0.08866   0.29565   0.76224   0.00000  Uiso   1.00
H557   H     0.03380   0.22236   0.79215   0.00000  Uiso   1.00
H558   H     0.05344   0.10966   0.70954   0.00000  Uiso   1.00
H559   H     0.30092   0.11056   0.70755   0.00000  Uiso   1.00
H560   H     0.28030   0.12679   0.91339   0.00000  Uiso   1.00
H561   H     0.30638   0.14520   0.99085   0.00000  Uiso   1.00
H562   H     0.05388   0.18490   0.91351   0.00000  Uiso   1.00
H563   H     0.09235   0.18596   0.55351   0.00000  Uiso   1.00
H564   H     0.03310   0.19715   0.50659   0.00000  Uiso   1.00
H565   H     0.21711   0.12227   0.87112   0.00000  Uiso   1.00
H566   H     0.24496   0.29642   0.73616   0.00000  Uiso   1.00
N567   N     0.04931   0.16666   0.74998   0.00000  Uiso   1.00
N568   N     0.28402   0.16669   0.74999   0.00000  Uiso   1.00
O569   O     0.12708   0.22678   0.75000   0.00000  Uiso   1.00
O570   O     0.20627   0.22679   0.75000   0.00000  Uiso   1.00
O571   O     0.10775   0.16665   0.82549   0.00000  Uiso   1.00
O572   O     0.18694   0.16666   0.82549   0.00000  Uiso   1.00
O573   O     0.12706   0.10654   0.74999   0.00000  Uiso   1.00
O574   O     0.20625   0.10655   0.74999   0.00000  Uiso   1.00
O575   O     0.14640   0.16667   0.67451   0.00000  Uiso   1.00
O576   O     0.22559   0.16668   0.67451   0.00000  Uiso   1.00
C577   C     0.27451   0.23270   0.80232   0.00000  Uiso   1.00
H578   H     0.28762   0.26382   0.79272   0.00000  Uiso   1.00
O579   O     0.23900   0.22743   0.83926   0.00000  Uiso   1.00
Br580  Br    0.11212   0.11867   0.60285   0.00000  Uiso   1.00
C581   C     0.50011   0.24595   0.74992   0.00000  Uiso   1.00
C582   C     0.48098   0.15888   0.98825   0.00000  Uiso   1.00
C583   C     0.49381   0.15169   0.93418   0.00000  Uiso   1.00
C584   C     0.51608   0.15188   0.51501   0.00000  Uiso   1.00
C585   C     0.56534   0.14599   0.98690   0.00000  Uiso   1.00
C586   C     0.57687   0.13564   0.93464   0.00000  Uiso   1.00
C587   C     0.54055   0.13514   0.90973   0.00000  Uiso   1.00
C588   C     0.50368   0.14957   0.56888   0.00000  Uiso   1.00
C589   C     0.58900   0.15721   0.56515   0.00000  Uiso   1.00
C590   C     0.46009   0.16244   0.90653   0.00000  Uiso   1.00
C591   C     0.54395   0.31226   0.74235   0.00000  Uiso   1.00
C592   C     0.47436   0.16428   0.84972   0.00000  Uiso   1.00
C593   C     0.54384   0.02151   0.74246   0.00000  Uiso   1.00
C594   C     0.49994   0.04277   0.74953   0.00000  Uiso   1.00
C595   C     0.45618   0.02110   0.75636   0.00000  Uiso   1.00
C596   C     0.45627   0.31184   0.75652   0.00000  Uiso   1.00
C597   C     0.50015   0.29058   0.74967   0.00000  Uiso   1.00
C598   C     0.63652   0.19778   0.77426   0.00000  Uiso   1.00
C599   C     0.35276   0.19778   0.77318   0.00000  Uiso   1.00
C600   C     0.36383   0.13522   0.72722   0.00000  Uiso   1.00
C601   C     0.64786   0.13550   0.72656   0.00000  Uiso   1.00
C602   C     0.49994   0.08739   0.74981   0.00000  Uiso   1.00
C603   C     0.52568   0.16380   0.65035   0.00000  Uiso   1.00
C604   C     0.60171   0.14872   0.51218   0.00000  Uiso   1.00
C605   C     0.53972   0.15735   0.59412   0.00000  Uiso   1.00
C606   C     0.41351   0.17673   0.93366   0.00000  Uiso   1.00
C607   C     0.40143   0.18392   0.98656   0.00000  Uiso   1.00
C608   C     0.43518   0.17640   0.51336   0.00000  Uiso   1.00
Cu609  Cu    0.45311   0.16666   0.75000   0.00000  Uiso   1.00
Cu610  Cu    0.54689   0.16667   0.75000   0.00000  Uiso   1.00
H611   H     0.61761   0.16141   0.58375   0.00000  Uiso   1.00
H612   H     0.57812   0.03770   0.73670   0.00000  Uiso   1.00
H613   H     0.42189   0.03698   0.76193   0.00000  Uiso   1.00
H614   H     0.42199   0.29565   0.76224   0.00000  Uiso   1.00
H615   H     0.36713   0.22236   0.79215   0.00000  Uiso   1.00
H616   H     0.38678   0.10966   0.70954   0.00000  Uiso   1.00
H617   H     0.63425   0.11056   0.70755   0.00000  Uiso   1.00
H618   H     0.61363   0.12679   0.91339   0.00000  Uiso   1.00
H619   H     0.63971   0.14520   0.99085   0.00000  Uiso   1.00
H620   H     0.38722   0.18490   0.91351   0.00000  Uiso   1.00
H621   H     0.42569   0.18596   0.55351   0.00000  Uiso   1.00
H622   H     0.36644   0.19715   0.50659   0.00000  Uiso   1.00
H623   H     0.55044   0.12227   0.87112   0.00000  Uiso   1.00
H624   H     0.57829   0.29642   0.73616   0.00000  Uiso   1.00
N625   N     0.38265   0.16666   0.74998   0.00000  Uiso   1.00
N626   N     0.61735   0.16669   0.74999   0.00000  Uiso   1.00
O627   O     0.46042   0.22678   0.75000   0.00000  Uiso   1.00
O628   O     0.53961   0.22679   0.75000   0.00000  Uiso   1.00
O629   O     0.44108   0.16665   0.82549   0.00000  Uiso   1.00
O630   O     0.52027   0.16666   0.82549   0.00000  Uiso   1.00
O631   O     0.46039   0.10654   0.74999   0.00000  Uiso   1.00
O632   O     0.53958   0.10655   0.74999   0.00000  Uiso   1.00
O633   O     0.47973   0.16667   0.67451   0.00000  Uiso   1.00
O634   O     0.55892   0.16668   0.67451   0.00000  Uiso   1.00
C635   C     0.60785   0.23270   0.80232   0.00000  Uiso   1.00
H636   H     0.62096   0.26382   0.79272   0.00000  Uiso   1.00
O637   O     0.57233   0.22743   0.83926   0.00000  Uiso   1.00
Br638  Br    0.44546   0.11867   0.60285   0.00000  Uiso   1.00
C639   C     0.83345   0.24595   0.74992   0.00000  Uiso   1.00
C640   C     0.81431   0.15888   0.98825   0.00000  Uiso   1.00
C641   C     0.82714   0.15169   0.93418   0.00000  Uiso   1.00
C642   C     0.84941   0.15188   0.51501   0.00000  Uiso   1.00
C643   C     0.89868   0.14599   0.98690   0.00000  Uiso   1.00
C644   C     0.91020   0.13564   0.93464   0.00000  Uiso   1.00
C645   C     0.87388   0.13514   0.90973   0.00000  Uiso   1.00
C646   C     0.83701   0.14957   0.56888   0.00000  Uiso   1.00
C647   C     0.92233   0.15721   0.56515   0.00000  Uiso   1.00
C648   C     0.79342   0.16244   0.90653   0.00000  Uiso   1.00
C649   C     0.87728   0.31226   0.74235   0.00000  Uiso   1.00
C650   C     0.80769   0.16428   0.84972   0.00000  Uiso   1.00
C651   C     0.87717   0.02151   0.74246   0.00000  Uiso   1.00
C652   C     0.83328   0.04277   0.74953   0.00000  Uiso   1.00
C653   C     0.78952   0.02110   0.75636   0.00000  Uiso   1.00
C654   C     0.78960   0.31184   0.75652   0.00000  Uiso   1.00
C655   C     0.83348   0.29058   0.74967   0.00000  Uiso   1.00
C656   C     0.96985   0.19778   0.77426   0.00000  Uiso   1.00
C657   C     0.68609   0.19778   0.77318   0.00000  Uiso   1.00
C658   C     0.69716   0.13522   0.72722   0.00000  Uiso   1.00
C659   C     0.98119   0.13550   0.72656   0.00000  Uiso   1.00
C660   C     0.83327   0.08739   0.74981   0.00000  Uiso   1.00
C661   C     0.85902   0.16380   0.65035   0.00000  Uiso   1.00
C662   C     0.93504   0.14872   0.51218   0.00000  Uiso   1.00
C663   C     0.87305   0.15735   0.59412   0.00000  Uiso   1.00
C664   C     0.74684   0.17673   0.93366   0.00000  Uiso   1.00
C665   C     0.73476   0.18392   0.98656   0.00000  Uiso   1.00
C666   C     0.76852   0.17640   0.51336   0.00000  Uiso   1.00
Cu667  Cu    0.78645   0.16666   0.75000   0.00000  Uiso   1.00
Cu668  Cu    0.88022   0.16667   0.75000   0.00000  Uiso   1.00
H669   H     0.95094   0.16141   0.58375   0.00000  Uiso   1.00
H670   H     0.91146   0.03770   0.73670   0.00000  Uiso   1.00
H671   H     0.75523   0.03698   0.76193   0.00000  Uiso   1.00
H672   H     0.75532   0.29565   0.76224   0.00000  Uiso   1.00
H673   H     0.70047   0.22236   0.79215   0.00000  Uiso   1.00
H674   H     0.72011   0.10966   0.70954   0.00000  Uiso   1.00
H675   H     0.96759   0.11056   0.70755   0.00000  Uiso   1.00
H676   H     0.94696   0.12679   0.91339   0.00000  Uiso   1.00
H677   H     0.97305   0.14520   0.99085   0.00000  Uiso   1.00
H678   H     0.72055   0.18490   0.91351   0.00000  Uiso   1.00
H679   H     0.75902   0.18596   0.55351   0.00000  Uiso   1.00
H680   H     0.69977   0.19715   0.50659   0.00000  Uiso   1.00
H681   H     0.88378   0.12227   0.87112   0.00000  Uiso   1.00
H682   H     0.91162   0.29642   0.73616   0.00000  Uiso   1.00
N683   N     0.71598   0.16666   0.74998   0.00000  Uiso   1.00
N684   N     0.95069   0.16669   0.74999   0.00000  Uiso   1.00
O685   O     0.79375   0.22678   0.75000   0.00000  Uiso   1.00
O686   O     0.87294   0.22679   0.75000   0.00000  Uiso   1.00
O687   O     0.77441   0.16665   0.82549   0.00000  Uiso   1.00
O688   O     0.85360   0.16666   0.82549   0.00000  Uiso   1.00
O689   O     0.79373   0.10654   0.74999   0.00000  Uiso   1.00
O690   O     0.87292   0.10655   0.74999   0.00000  Uiso   1.00
O691   O     0.81306   0.16667   0.67451   0.00000  Uiso   1.00
O692   O     0.89225   0.16668   0.67451   0.00000  Uiso   1.00
C693   C     0.94118   0.23270   0.80232   0.00000  Uiso   1.00
H694   H     0.95429   0.26382   0.79272   0.00000  Uiso   1.00
O695   O     0.90566   0.22743   0.83926   0.00000  Uiso   1.00
Br696  Br    0.77879   0.11867   0.60285   0.00000  Uiso   1.00
C697   C     0.16678   0.57928   0.74992   0.00000  Uiso   1.00
C698   C     0.14765   0.49222   0.98825   0.00000  Uiso   1.00
C699   C     0.16047   0.48503   0.93418   0.00000  Uiso   1.00
C700   C     0.18274   0.48521   0.51501   0.00000  Uiso   1.00
C701   C     0.23201   0.47932   0.98690   0.00000  Uiso   1.00
C702   C     0.24354   0.46897   0.93464   0.00000  Uiso   1.00
C703   C     0.20722   0.46847   0.90973   0.00000  Uiso   1.00
C704   C     0.17034   0.48291   0.56888   0.00000  Uiso   1.00
C705   C     0.25566   0.49055   0.56515   0.00000  Uiso   1.00
C706   C     0.12675   0.49577   0.90653   0.00000  Uiso   1.00
C707   C     0.21061   0.64559   0.74235   0.00000  Uiso   1.00
C708   C     0.14103   0.49762   0.84972   0.00000  Uiso   1.00
C709   C     0.21050   0.35485   0.74246   0.00000  Uiso   1.00
C710   C     0.16661   0.37610   0.74953   0.00000  Uiso   1.00
C711   C     0.12285   0.35444   0.75636   0.00000  Uiso   1.00
C712   C     0.12294   0.64517   0.75652   0.00000  Uiso   1.00
C713   C     0.16682   0.62392   0.74967   0.00000  Uiso   1.00
C714   C     0.30319   0.53111   0.77426   0.00000  Uiso   1.00
C715   C     0.01943   0.53111   0.77318   0.00000  Uiso   1.00
C716   C     0.03050   0.46856   0.72722   0.00000  Uiso   1.00
C717   C     0.31452   0.46884   0.72656   0.00000  Uiso   1.00
C718   C     0.16660   0.42072   0.74981   0.00000  Uiso   1.00
C719   C     0.19235   0.49713   0.65035   0.00000  Uiso   1.00
C720   C     0.26837   0.48206   0.51218   0.00000  Uiso   1.00
C721   C     0.20638   0.49068   0.59412   0.00000  Uiso   1.00
C722   C     0.08018   0.51007   0.93366   0.00000  Uiso   1.00
C723   C     0.06810   0.51725   0.98656   0.00000  Uiso   1.00
C724   C     0.10185   0.50973   0.51336   0.00000  Uiso   1.00
Cu725  Cu    0.11978   0.49999   0.75000   0.00000  Uiso   1.00
Cu726  Cu    0.21355   0.50001   0.75000   0.00000  Uiso   1.00
H727   H     0.28427   0.49474   0.58375   0.00000  Uiso   1.00
H728   H     0.24479   0.37103   0.73670   0.00000  Uiso   1.00
H729   H     0.08856   0.37032   0.76193   0.00000  Uiso   1.00
H730   H     0.08866   0.62898   0.76224   0.00000  Uiso   1.00
H731   H     0.03380   0.55569   0.79215   0.00000  Uiso   1.00
H732   H     0.05344   0.44299   0.70954   0.00000  Uiso   1.00
H733   H     0.30092   0.44389   0.70755   0.00000  Uiso   1.00
H734   H     0.28030   0.46012   0.91339   0.00000  Uiso   1.00
H735   H     0.30638   0.47853   0.99085   0.00000  Uiso   1.00
H736   H     0.05388   0.51823   0.91351   0.00000  Uiso   1.00
H737   H     0.09235   0.51929   0.55351   0.00000  Uiso   1.00
H738   H     0.03310   0.53049   0.50659   0.00000  Uiso   1.00
H739   H     0.21711   0.45561   0.87112   0.00000  Uiso   1.00
H740   H     0.24496   0.62975   0.73616   0.00000  Uiso   1.00
N741   N     0.04931   0.49999   0.74998   0.00000  Uiso   1.00
N742   N     0.28402   0.50002   0.74999   0.00000  Uiso   1.00
O743   O     0.12708   0.56011   0.75000   0.00000  Uiso   1.00
O744   O     0.20627   0.56012   0.75000   0.00000  Uiso   1.00
O745   O     0.10775   0.49998   0.82549   0.00000  Uiso   1.00
O746   O     0.18694   0.49999   0.82549   0.00000  Uiso   1.00
O747   O     0.12706   0.43988   0.74999   0.00000  Uiso   1.00
O748   O     0.20625   0.43989   0.74999   0.00000  Uiso   1.00
O749   O     0.14640   0.50001   0.67451   0.00000  Uiso   1.00
O750   O     0.22559   0.50002   0.67451   0.00000  Uiso   1.00
C751   C     0.27451   0.56603   0.80232   0.00000  Uiso   1.00
H752   H     0.28762   0.59716   0.79272   0.00000  Uiso   1.00
O753   O     0.23900   0.56076   0.83926   0.00000  Uiso   1.00
Br754  Br    0.11212   0.45201   0.60285   0.00000  Uiso   1.00
C755   C     0.50011   0.57928   0.74992   0.00000  Uiso   1.00
C756   C     0.48098   0.49222   0.98825   0.00000  Uiso   1.00
C757   C     0.49381   0.48503   0.93418   0.00000  Uiso   1.00
C758   C     0.51608   0.48521   0.51501   0.00000  Uiso   1.00
C759   C     0.56534   0.47932   0.98690   0.00000  Uiso   1.00
C760   C     0.57687   0.46897   0.93464   0.00000  Uiso   1.00
C761   C     0.54055   0.46847   0.90973   0.00000  Uiso   1.00
C762   C     0.50368   0.48291   0.56888   0.00000  Uiso   1.00
C763   C     0.58900   0.49055   0.56515   0.00000  Uiso   1.00
C764   C     0.46009   0.49577   0.90653   0.00000  Uiso   1.00
C765   C     0.54395   0.64559   0.74235   0.00000  Uiso   1.00
C766   C     0.47436   0.49762   0.84972   0.00000  Uiso   1.00
C767   C     0.54384   0.35485   0.74246   0.00000  Uiso   1.00
C768   C     0.49994   0.37610   0.74953   0.00000  Uiso   1.00
C769   C     0.45618   0.35444   0.75636   0.00000  Uiso   1.00
C770   C     0.45627   0.64517   0.75652   0.00000  Uiso   1.00
C771   C     0.50015   0.62392   0.74967   0.00000  Uiso   1.00
C772   C     0.63652   0.53111   0.77426   0.00000  Uiso   1.00
C773   C     0.35276   0.53111   0.77318   0.00000  Uiso   1.00
C774   C     0.36383   0.46856   0.72722   0.00000  Uiso   1.00
C775   C     0.64786   0.46884   0.72656   0.00000  Uiso   1.00
C776   C     0.49994   0.42072   0.74981   0.00000  Uiso   1.00
C777   C     0.52568   0.49713   0.65035   0.00000  Uiso   1.00
C778   C     0.60171   0.48206   0.51218   0.00000  Uiso   1.00
C779   C     0.53972   0.49068   0.59412   0.00000  Uiso   1.00
C780   C     0.41351   0.51007   0.93366   0.00000  Uiso   1.00
C781   C     0.40143   0.51725   0.98656   0.00000  Uiso   1.00
C782   C     0.43518   0.50973   0.51336   0.00000  Uiso   1.00
Cu783  Cu    0.45311   0.49999   0.75000   0.00000  Uiso   1.00
Cu784  Cu    0.54689   0.50001   0.75000   0.00000  Uiso   1.00
H785   H     0.61761   0.49474   0.58375   0.00000  Uiso   1.00
H786   H     0.57812   0.37103   0.73670   0.00000  Uiso   1.00
H787   H     0.42189   0.37032   0.76193   0.00000  Uiso   1.00
H788   H     0.42199   0.62898   0.76224   0.00000  Uiso   1.00
H789   H     0.36713   0.55569   0.79215   0.00000  Uiso   1.00
H790   H     0.38678   0.44299   0.70954   0.00000  Uiso   1.00
H791   H     0.63425   0.44389   0.70755   0.00000  Uiso   1.00
H792   H     0.61363   0.46012   0.91339   0.00000  Uiso   1.00
H793   H     0.63971   0.47853   0.99085   0.00000  Uiso   1.00
H794   H     0.38722   0.51823   0.91351   0.00000  Uiso   1.00
H795   H     0.42569   0.51929   0.55351   0.00000  Uiso   1.00
H796   H     0.36644   0.53049   0.50659   0.00000  Uiso   1.00
H797   H     0.55044   0.45561   0.87112   0.00000  Uiso   1.00
H798   H     0.57829   0.62975   0.73616   0.00000  Uiso   1.00
N799   N     0.38265   0.49999   0.74998   0.00000  Uiso   1.00
N800   N     0.61735   0.50002   0.74999   0.00000  Uiso   1.00
O801   O     0.46042   0.56011   0.75000   0.00000  Uiso   1.00
O802   O     0.53961   0.56012   0.75000   0.00000  Uiso   1.00
O803   O     0.44108   0.49998   0.82549   0.00000  Uiso   1.00
O804   O     0.52027   0.49999   0.82549   0.00000  Uiso   1.00
O805   O     0.46039   0.43988   0.74999   0.00000  Uiso   1.00
O806   O     0.53958   0.43989   0.74999   0.00000  Uiso   1.00
O807   O     0.47973   0.50001   0.67451   0.00000  Uiso   1.00
O808   O     0.55892   0.50002   0.67451   0.00000  Uiso   1.00
C809   C     0.60785   0.56603   0.80232   0.00000  Uiso   1.00
H810   H     0.62096   0.59716   0.79272   0.00000  Uiso   1.00
O811   O     0.57233   0.56076   0.83926   0.00000  Uiso   1.00
Br812  Br    0.44546   0.45201   0.60285   0.00000  Uiso   1.00
C813   C     0.83345   0.57928   0.74992   0.00000  Uiso   1.00
C814   C     0.81431   0.49222   0.98825   0.00000  Uiso   1.00
C815   C     0.82714   0.48503   0.93418   0.00000  Uiso   1.00
C816   C     0.84941   0.48521   0.51501   0.00000  Uiso   1.00
C817   C     0.89868   0.47932   0.98690   0.00000  Uiso   1.00
C818   C     0.91020   0.46897   0.93464   0.00000  Uiso   1.00
C819   C     0.87388   0.46847   0.90973   0.00000  Uiso   1.00
C820   C     0.83701   0.48291   0.56888   0.00000  Uiso   1.00
C821   C     0.92233   0.49055   0.56515   0.00000  Uiso   1.00
C822   C     0.79342   0.49577   0.90653   0.00000  Uiso   1.00
C823   C     0.87728   0.64559   0.74235   0.00000  Uiso   1.00
C824   C     0.80769   0.49762   0.84972   0.00000  Uiso   1.00
C825   C     0.87717   0.35485   0.74246   0.00000  Uiso   1.00
C826   C     0.83328   0.37610   0.74953   0.00000  Uiso   1.00
C827   C     0.78952   0.35444   0.75636   0.00000  Uiso   1.00
C828   C     0.78960   0.64517   0.75652   0.00000  Uiso   1.00
C829   C     0.83348   0.62392   0.74967   0.00000  Uiso   1.00
C830   C     0.96985   0.53111   0.77426   0.00000  Uiso   1.00
C831   C     0.68609   0.53111   0.77318   0.00000  Uiso   1.00
C832   C     0.69716   0.46856   0.72722   0.00000  Uiso   1.00
C833   C     0.98119   0.46884   0.72656   0.00000  Uiso   1.00
C834   C     0.83327   0.42072   0.74981   0.00000  Uiso   1.00
C835   C     0.85902   0.49713   0.65035   0.00000  Uiso   1.00
C836   C     0.93504   0.48206   0.51218   0.00000  Uiso   1.00
C837   C     0.87305   0.49068   0.59412   0.00000  Uiso   1.00
C838   C     0.74684   0.51007   0.93366   0.00000  Uiso   1.00
C839   C     0.73476   0.51725   0.98656   0.00000  Uiso   1.00
C840   C     0.76852   0.50973   0.51336   0.00000  Uiso   1.00
Cu841  Cu    0.78645   0.49999   0.75000   0.00000  Uiso   1.00
Cu842  Cu    0.88022   0.50001   0.75000   0.00000  Uiso   1.00
H843   H     0.95094   0.49474   0.58375   0.00000  Uiso   1.00
H844   H     0.91146   0.37103   0.73670   0.00000  Uiso   1.00
H845   H     0.75523   0.37032   0.76193   0.00000  Uiso   1.00
H846   H     0.75532   0.62898   0.76224   0.00000  Uiso   1.00
H847   H     0.70047   0.55569   0.79215   0.00000  Uiso   1.00
H848   H     0.72011   0.44299   0.70954   0.00000  Uiso   1.00
H849   H     0.96759   0.44389   0.70755   0.00000  Uiso   1.00
H850   H     0.94696   0.46012   0.91339   0.00000  Uiso   1.00
H851   H     0.97305   0.47853   0.99085   0.00000  Uiso   1.00
H852   H     0.72055   0.51823   0.91351   0.00000  Uiso   1.00
H853   H     0.75902   0.51929   0.55351   0.00000  Uiso   1.00
H854   H     0.69977   0.53049   0.50659   0.00000  Uiso   1.00
H855   H     0.88378   0.45561   0.87112   0.00000  Uiso   1.00
H856   H     0.91162   0.62975   0.73616   0.00000  Uiso   1.00
N857   N     0.71598   0.49999   0.74998   0.00000  Uiso   1.00
N858   N     0.95069   0.50002   0.74999   0.00000  Uiso   1.00
O859   O     0.79375   0.56011   0.75000   0.00000  Uiso   1.00
O860   O     0.87294   0.56012   0.75000   0.00000  Uiso   1.00
O861   O     0.77441   0.49998   0.82549   0.00000  Uiso   1.00
O862   O     0.85360   0.49999   0.82549   0.00000  Uiso   1.00
O863   O     0.79373   0.43988   0.74999   0.00000  Uiso   1.00
O864   O     0.87292   0.43989   0.74999   0.00000  Uiso   1.00
O865   O     0.81306   0.50001   0.67451   0.00000  Uiso   1.00
O866   O     0.89225   0.50002   0.67451   0.00000  Uiso   1.00
C867   C     0.94118   0.56603   0.80232   0.00000  Uiso   1.00
H868   H     0.95429   0.59716   0.79272   0.00000  Uiso   1.00
O869   O     0.90566   0.56076   0.83926   0.00000  Uiso   1.00
Br870  Br    0.77879   0.45201   0.60285   0.00000  Uiso   1.00
C871   C     0.16678   0.91261   0.74992   0.00000  Uiso   1.00
C872   C     0.14765   0.82555   0.98825   0.00000  Uiso   1.00
C873   C     0.16047   0.81836   0.93418   0.00000  Uiso   1.00
C874   C     0.18274   0.81854   0.51501   0.00000  Uiso   1.00
C875   C     0.23201   0.81266   0.98690   0.00000  Uiso   1.00
C876   C     0.24354   0.80230   0.93464   0.00000  Uiso   1.00
C877   C     0.20722   0.80181   0.90973   0.00000  Uiso   1.00
C878   C     0.17034   0.81624   0.56888   0.00000  Uiso   1.00
C879   C     0.25566   0.82388   0.56515   0.00000  Uiso   1.00
C880   C     0.12675   0.82911   0.90653   0.00000  Uiso   1.00
C881   C     0.21061   0.97893   0.74235   0.00000  Uiso   1.00
C882   C     0.14103   0.83095   0.84972   0.00000  Uiso   1.00
C883   C     0.21050   0.68818   0.74246   0.00000  Uiso   1.00
C884   C     0.16661   0.70943   0.74953   0.00000  Uiso   1.00
C885   C     0.12285   0.68777   0.75636   0.00000  Uiso   1.00
C886   C     0.12294   0.97851   0.75652   0.00000  Uiso   1.00
C887   C     0.16682   0.95725   0.74967   0.00000  Uiso   1.00
C888   C     0.30319   0.86444   0.77426   0.00000  Uiso   1.00
C889   C     0.01943   0.86445   0.77318   0.00000  Uiso   1.00
C890   C     0.03050   0.80189   0.72722   0.00000  Uiso   1.00
C891   C     0.31452   0.80217   0.72656   0.00000  Uiso   1.00
C892   C     0.16660   0.75406   0.74981   0.00000  Uiso   1.00
C893   C     0.19235   0.83046   0.65035   0.00000  Uiso   1.00
C894   C     0.26837   0.81539   0.51218   0.00000  Uiso   1.00
C895   C     0.20638   0.82402   0.59412   0.00000  Uiso   1.00
C896   C     0.08018   0.84340   0.93366   0.00000  Uiso   1.00
C897   C     0.06810   0.85058   0.98656   0.00000  Uiso   1.00
C898   C     0.10185   0.84306   0.51336   0.00000  Uiso   1.00
Cu899  Cu    0.11978   0.83333   0.75000   0.00000  Uiso   1.00
Cu900  Cu    0.21355   0.83334   0.75000   0.00000  Uiso   1.00
H901   H     0.28427   0.82808   0.58375   0.00000  Uiso   1.00
H902   H     0.24479   0.70437   0.73670   0.00000  Uiso   1.00
H903   H     0.08856   0.70365   0.76193   0.00000  Uiso   1.00
H904   H     0.08866   0.96232   0.76224   0.00000  Uiso   1.00
H905   H     0.03380   0.88903   0.79215   0.00000  Uiso   1.00
H906   H     0.05344   0.77633   0.70954   0.00000  Uiso   1.00
H907   H     0.30092   0.77722   0.70755   0.00000  Uiso   1.00
H908   H     0.28030   0.79346   0.91339   0.00000  Uiso   1.00
H909   H     0.30638   0.81187   0.99085   0.00000  Uiso   1.00
H910   H     0.05388   0.85156   0.91351   0.00000  Uiso   1.00
H911   H     0.09235   0.85263   0.55351   0.00000  Uiso   1.00
H912   H     0.03310   0.86382   0.50659   0.00000  Uiso   1.00
H913   H     0.21711   0.78894   0.87112   0.00000  Uiso   1.00
H914   H     0.24496   0.96308   0.73616   0.00000  Uiso   1.00
N915   N     0.04931   0.83332   0.74998   0.00000  Uiso   1.00
N916   N     0.28402   0.83335   0.74999   0.00000  Uiso   1.00
O917   O     0.12708   0.89345   0.75000   0.00000  Uiso   1.00
O918   O     0.20627   0.89346   0.75000   0.00000  Uiso   1.00
O919   O     0.10775   0.83332   0.82549   0.00000  Uiso   1.00
O920   O     0.18694   0.83333   0.82549   0.00000  Uiso   1.00
O921   O     0.12706   0.77321   0.74999   0.00000  Uiso   1.00
O922   O     0.20625   0.77322   0.74999   0.00000  Uiso   1.00
O923   O     0.14640   0.83334   0.67451   0.00000  Uiso   1.00
O924   O     0.22559   0.83335   0.67451   0.00000  Uiso   1.00
C925   C     0.27451   0.89937   0.80232   0.00000  Uiso   1.00
H926   H     0.28762   0.93049   0.79272   0.00000  Uiso   1.00
O927   O     0.23900   0.89410   0.83926   0.00000  Uiso   1.00
Br928  Br    0.11212   0.78534   0.60285   0.00000  Uiso   1.00
C929   C     0.50011   0.91261   0.74992   0.00000  Uiso   1.00
C930   C     0.48098   0.82555   0.98825   0.00000  Uiso   1.00
C931   C     0.49381   0.81836   0.93418   0.00000  Uiso   1.00
C932   C     0.51608   0.81854   0.51501   0.00000  Uiso   1.00
C933   C     0.56534   0.81266   0.98690   0.00000  Uiso   1.00
C934   C     0.57687   0.80230   0.93464   0.00000  Uiso   1.00
C935   C     0.54055   0.80181   0.90973   0.00000  Uiso   1.00
C936   C     0.50368   0.81624   0.56888   0.00000  Uiso   1.00
C937   C     0.58900   0.82388   0.56515   0.00000  Uiso   1.00
C938   C     0.46009   0.82911   0.90653   0.00000  Uiso   1.00
C939   C     0.54395   0.97893   0.74235   0.00000  Uiso   1.00
C940   C     0.47436   0.83095   0.84972   0.00000  Uiso   1.00
C941   C     0.54384   0.68818   0.74246   0.00000  Uiso   1.00
C942   C     0.49994   0.70943   0.74953   0.00000  Uiso   1.00
C943   C     0.45618   0.68777   0.75636   0.00000  Uiso   1.00
C944   C     0.45627   0.97851   0.75652   0.00000  Uiso   1.00
C945   C     0.50015   0.95725   0.74967   0.00000  Uiso   1.00
C946   C     0.63652   0.86444   0.77426   0.00000  Uiso   1.00
C947   C     0.35276   0.86445   0.77318   0.00000  Uiso   1.00
C948   C     0.36383   0.80189   0.72722   0.00000  Uiso   1.00
C949   C     0.64786   0.80217   0.72656   0.00000  Uiso   1.00
C950   C     0.49994   0.75406   0.74981   0.00000  Uiso   1.00
C951   C     0.52568   0.83046   0.65035   0.00000  Uiso   1.00
C952   C     0.60171   0.81539   0.51218   0.00000  Uiso   1.00
C953   C     0.53972   0.82402   0.59412   0.00000  Uiso   1.00
C954   C     0.41351   0.84340   0.93366   0.00000  Uiso   1.00
C955   C     0.40143   0.85058   0.98656   0.00000  Uiso   1.00
C956   C     0.43518   0.84306   0.51336   0.00000  Uiso   1.00
Cu957  Cu    0.45311   0.83333   0.75000   0.00000  Uiso   1.00
Cu958  Cu    0.54689   0.83334   0.75000   0.00000  Uiso   1.00
H959   H     0.61761   0.82808   0.58375   0.00000  Uiso   1.00
H960   H     0.57812   0.70437   0.73670   0.00000  Uiso   1.00
H961   H     0.42189   0.70365   0.76193   0.00000  Uiso   1.00
H962   H     0.42199   0.96232   0.76224   0.00000  Uiso   1.00
H963   H     0.36713   0.88903   0.79215   0.00000  Uiso   1.00
H964   H     0.38678   0.77633   0.70954   0.00000  Uiso   1.00
H965   H     0.63425   0.77722   0.70755   0.00000  Uiso   1.00
H966   H     0.61363   0.79346   0.91339   0.00000  Uiso   1.00
H967   H     0.63971   0.81187   0.99085   0.00000  Uiso   1.00
H968   H     0.38722   0.85156   0.91351   0.00000  Uiso   1.00
H969   H     0.42569   0.85263   0.55351   0.00000  Uiso   1.00
H970   H     0.36644   0.86382   0.50659   0.00000  Uiso   1.00
H971   H     0.55044   0.78894   0.87112   0.00000  Uiso   1.00
H972   H     0.57829   0.96308   0.73616   0.00000  Uiso   1.00
N973   N     0.38265   0.83332   0.74998   0.00000  Uiso   1.00
N974   N     0.61735   0.83335   0.74999   0.00000  Uiso   1.00
O975   O     0.46042   0.89345   0.75000   0.00000  Uiso   1.00
O976   O     0.53961   0.89346   0.75000   0.00000  Uiso   1.00
O977   O     0.44108   0.83332   0.82549   0.00000  Uiso   1.00
O978   O     0.52027   0.83333   0.82549   0.00000  Uiso   1.00
O979   O     0.46039   0.77321   0.74999   0.00000  Uiso   1.00
O980   O     0.53958   0.77322   0.74999   0.00000  Uiso   1.00
O981   O     0.47973   0.83334   0.67451   0.00000  Uiso   1.00
O982   O     0.55892   0.83335   0.67451   0.00000  Uiso   1.00
C983   C     0.60785   0.89937   0.80232   0.00000  Uiso   1.00
H984   H     0.62096   0.93049   0.79272   0.00000  Uiso   1.00
O985   O     0.57233   0.89410   0.83926   0.00000  Uiso   1.00
Br986  Br    0.44546   0.78534   0.60285   0.00000  Uiso   1.00
C987   C     0.83345   0.91261   0.74992   0.00000  Uiso   1.00
C988   C     0.81431   0.82555   0.98825   0.00000  Uiso   1.00
C989   C     0.82714   0.81836   0.93418   0.00000  Uiso   1.00
C990   C     0.84941   0.81854   0.51501   0.00000  Uiso   1.00
C991   C     0.89868   0.81266   0.98690   0.00000  Uiso   1.00
C992   C     0.91020   0.80230   0.93464   0.00000  Uiso   1.00
C993   C     0.87388   0.80181   0.90973   0.00000  Uiso   1.00
C994   C     0.83701   0.81624   0.56888   0.00000  Uiso   1.00
C995   C     0.92233   0.82388   0.56515   0.00000  Uiso   1.00
C996   C     0.79342   0.82911   0.90653   0.00000  Uiso   1.00
C997   C     0.87728   0.97893   0.74235   0.00000  Uiso   1.00
C998   C     0.80769   0.83095   0.84972   0.00000  Uiso   1.00
C999   C     0.87717   0.68818   0.74246   0.00000  Uiso   1.00
C1000  C     0.83328   0.70943   0.74953   0.00000  Uiso   1.00
C1001  C     0.78952   0.68777   0.75636   0.00000  Uiso   1.00
C1002  C     0.78960   0.97851   0.75652   0.00000  Uiso   1.00
C1003  C     0.83348   0.95725   0.74967   0.00000  Uiso   1.00
C1004  C     0.96985   0.86444   0.77426   0.00000  Uiso   1.00
C1005  C     0.68609   0.86445   0.77318   0.00000  Uiso   1.00
C1006  C     0.69716   0.80189   0.72722   0.00000  Uiso   1.00
C1007  C     0.98119   0.80217   0.72656   0.00000  Uiso   1.00
C1008  C     0.83327   0.75406   0.74981   0.00000  Uiso   1.00
C1009  C     0.85902   0.83046   0.65035   0.00000  Uiso   1.00
C1010  C     0.93504   0.81539   0.51218   0.00000  Uiso   1.00
C1011  C     0.87305   0.82402   0.59412   0.00000  Uiso   1.00
C1012  C     0.74684   0.84340   0.93366   0.00000  Uiso   1.00
C1013  C     0.73476   0.85058   0.98656   0.00000  Uiso   1.00
C1014  C     0.76852   0.84306   0.51336   0.00000  Uiso   1.00
Cu1015 Cu    0.78645   0.83333   0.75000   0.00000  Uiso   1.00
Cu1016 Cu    0.88022   0.83334   0.75000   0.00000  Uiso   1.00
H1017  H     0.95094   0.82808   0.58375   0.00000  Uiso   1.00
H1018  H     0.91146   0.70437   0.73670   0.00000  Uiso   1.00
H1019  H     0.75523   0.70365   0.76193   0.00000  Uiso   1.00
H1020  H     0.75532   0.96232   0.76224   0.00000  Uiso   1.00
H1021  H     0.70047   0.88903   0.79215   0.00000  Uiso   1.00
H1022  H     0.72011   0.77633   0.70954   0.00000  Uiso   1.00
H1023  H     0.96759   0.77722   0.70755   0.00000  Uiso   1.00
H1024  H     0.94696   0.79346   0.91339   0.00000  Uiso   1.00
H1025  H     0.97305   0.81187   0.99085   0.00000  Uiso   1.00
H1026  H     0.72055   0.85156   0.91351   0.00000  Uiso   1.00
H1027  H     0.75902   0.85263   0.55351   0.00000  Uiso   1.00
H1028  H     0.69977   0.86382   0.50659   0.00000  Uiso   1.00
H1029  H     0.88378   0.78894   0.87112   0.00000  Uiso   1.00
H1030  H     0.91162   0.96308   0.73616   0.00000  Uiso   1.00
N1031  N     0.71598   0.83332   0.74998   0.00000  Uiso   1.00
N1032  N     0.95069   0.83335   0.74999   0.00000  Uiso   1.00
O1033  O     0.79375   0.89345   0.75000   0.00000  Uiso   1.00
O1034  O     0.87294   0.89346   0.75000   0.00000  Uiso   1.00
O1035  O     0.77441   0.83332   0.82549   0.00000  Uiso   1.00
O1036  O     0.85360   0.83333   0.82549   0.00000  Uiso   1.00
O1037  O     0.79373   0.77321   0.74999   0.00000  Uiso   1.00
O1038  O     0.87292   0.77322   0.74999   0.00000  Uiso   1.00
O1039  O     0.81306   0.83334   0.67451   0.00000  Uiso   1.00
O1040  O     0.89225   0.83335   0.67451   0.00000  Uiso   1.00
C1041  C     0.94118   0.89937   0.80232   0.00000  Uiso   1.00
H1042  H     0.95429   0.93049   0.79272   0.00000  Uiso   1.00
O1043  O     0.90566   0.89410   0.83926   0.00000  Uiso   1.00
Br1044 Br    0.77879   0.78534   0.60285   0.00000  Uiso   1.00
loop_
_geom_bond_atom_site_label_1
_geom_bond_atom_site_label_2
_geom_bond_distance
_geom_bond_site_symmetry_2
_ccdc_geom_bond_type
C1     O48     1.295   .     A
C1     C17     1.450   .     S
C1     O47     1.292   .     A
C2     C3      1.416   .     A
C2     C526    1.416   .     S
C2     C550    1.413   .     S
C3     C10     1.427   .     A
C3     C7      1.419   .     A
C4     C8      1.398   .     A
C4     C524    1.416   1_554 S
C4     C527    1.412   1_554 S
C5     C6      1.391   .     A
C5     C526    1.412   .     S
C5     C546    1.400   .     S
C6     C7      1.390   .     A
C6     H38     1.084   .     S
C7     H43     1.078   .     S
C8     C25     1.409   .     A
C8     Br58    1.940   .     S
C9     C25     1.405   .     A
C9     C24     1.395   .     A
C9     H31     1.083   .     S
C10    C12     1.472   .     S
C10    C26     1.405   .     A
C11    H44     1.082   .     S
C11    C17     1.400   .     A
C11    C187    1.383   .     S
C12    O50     1.293   .     A
C12    O49     1.304   .     A
C13    H32     1.083   .     S
C13    C14     1.402   .     A
C13    C359    1.383   1_545 S
C14    C22     1.450   .     S
C14    C15     1.400   .     A
C15    H33     1.083   .     S
C15    C364    1.384   1_545 S
C16    H34     1.083   .     S
C16    C17     1.402   .     A
C16    C189    1.384   .     S
C18    C55     1.472   .     S
C18    N46     1.388   .     A
C18    C77     1.412   .     S
C19    N45     1.354   .     A
C19    H35     1.083   .     S
C19    C134    1.412   1_455 S
C20    N45     1.369   .     A
C20    H36     1.080   .     S
C20    C137    1.418   1_455 S
C21    H37     1.081   .     S
C21    N46     1.366   .     A
C21    C78     1.418   .     S
C22    O51     1.295   .     A
C22    O52     1.293   .     A
C23    O53     1.295   .     A
C23    O54     1.301   .     A
C23    C25     1.468   .     S
C24    C527    1.400   1_554 S
C24    H561    1.083   1_554 S
C26    H40     1.083   .     S
C26    C27     1.387   .     A
C27    C550    1.387   .     S
C27    H564    1.082   .     S
C28    H41     1.081   .     S
C28    C549    1.387   1_554 S
C28    C524    1.413   1_554 S
Cu29   O49     1.968   .     S
Cu29   Cu30    2.686   .     S
Cu29   O47     1.963   .     S
Cu29   O51     1.965   .     S
Cu29   N45     2.019   .     S
Cu29   O53     1.962   .     S
Cu30   O50     1.962   .     S
Cu30   O54     1.968   .     S
Cu30   O48     1.965   .     S
Cu30   N46     2.018   .     S
Cu30   O52     1.963   .     S
H39    C546    1.083   .     S
H42    C549    1.082   1_554 S
C55    H56     1.085   .     S
C55    O57     1.218   .     D
C59    O106    1.295   .     A
C59    C75     1.450   .     S
C59    O105    1.292   .     A
C60    C61     1.416   .     A
C60    C584    1.416   .     S
C60    C608    1.413   .     S
C61    C68     1.427   .     A
C61    C65     1.419   .     A
C62    C66     1.398   .     A
C62    C582    1.416   1_554 S
C62    C585    1.412   1_554 S
C63    C64     1.391   .     A
C63    C584    1.412   .     S
C63    C604    1.400   .     S
C64    C65     1.390   .     A
C64    H96     1.084   .     S
C65    H101    1.078   .     S
C66    C83     1.409   .     A
C66    Br116   1.940   .     S
C67    C83     1.405   .     A
C67    C82     1.395   .     A
C67    H89     1.083   .     S
C68    C70     1.472   .     S
C68    C84     1.405   .     A
C69    H102    1.082   .     S
C69    C75     1.400   .     A
C69    C245    1.383   .     S
C70    O108    1.293   .     A
C70    O107    1.304   .     A
C71    H90     1.083   .     S
C71    C72     1.402   .     A
C71    C417    1.383   1_545 S
C72    C80     1.450   .     S
C72    C73     1.400   .     A
C73    H91     1.083   .     S
C73    C422    1.384   1_545 S
C74    H92     1.083   .     S
C74    C75     1.402   .     A
C74    C247    1.384   .     S
C76    C113    1.472   .     S
C76    N104    1.388   .     A
C76    C135    1.412   .     S
C77    N103    1.354   .     A
C77    H93     1.083   .     S
C78    N103    1.369   .     A
C78    H94     1.080   .     S
C79    H95     1.081   .     S
C79    N104    1.366   .     A
C79    C136    1.418   .     S
C80    O109    1.295   .     A
C80    O110    1.293   .     A
C81    O111    1.295   .     A
C81    O112    1.301   .     A
C81    C83     1.468   .     S
C82    C585    1.400   1_554 S
C82    H619    1.083   1_554 S
C84    H98     1.083   .     S
C84    C85     1.387   .     A
C85    C608    1.387   .     S
C85    H622    1.082   .     S
C86    H99     1.081   .     S
C86    C607    1.387   1_554 S
C86    C582    1.413   1_554 S
Cu87   O107    1.968   .     S
Cu87   Cu88    2.686   .     S
Cu87   O105    1.963   .     S
Cu87   O109    1.965   .     S
Cu87   N103    2.019   .     S
Cu87   O111    1.962   .     S
Cu88   O108    1.962   .     S
Cu88   O112    1.968   .     S
Cu88   O106    1.965   .     S
Cu88   N104    2.018   .     S
Cu88   O110    1.963   .     S
H97    C604    1.083   .     S
H100   C607    1.082   1_554 S
C113   H114    1.085   .     S
C113   O115    1.218   .     D
C117   O164    1.295   .     A
C117   C133    1.450   .     S
C117   O163    1.292   .     A
C118   C119    1.416   .     A
C118   C642    1.416   .     S
C118   C666    1.413   .     S
C119   C126    1.427   .     A
C119   C123    1.419   .     A
C120   C124    1.398   .     A
C120   C640    1.416   1_554 S
C120   C643    1.412   1_554 S
C121   C122    1.391   .     A
C121   C642    1.412   .     S
C121   C662    1.400   .     S
C122   C123    1.390   .     A
C122   H154    1.084   .     S
C123   H159    1.078   .     S
C124   C141    1.409   .     A
C124   Br174   1.940   .     S
C125   C141    1.405   .     A
C125   C140    1.395   .     A
C125   H147    1.083   .     S
C126   C128    1.472   .     S
C126   C142    1.405   .     A
C127   H160    1.082   .     S
C127   C133    1.400   .     A
C127   C303    1.383   .     S
C128   O166    1.293   .     A
C128   O165    1.304   .     A
C129   H148    1.083   .     S
C129   C130    1.402   .     A
C129   C475    1.383   1_545 S
C130   C138    1.450   .     S
C130   C131    1.400   .     A
C131   H149    1.083   .     S
C131   C480    1.384   1_545 S
C132   H150    1.083   .     S
C132   C133    1.402   .     A
C132   C305    1.384   .     S
C134   C171    1.472   .     S
C134   N162    1.388   .     A
C134   C19     1.412   1_655 S
C135   N161    1.354   .     A
C135   H151    1.083   .     S
C136   N161    1.369   .     A
C136   H152    1.080   .     S
C137   H153    1.081   .     S
C137   N162    1.366   .     A
C137   C20     1.418   1_655 S
C138   O167    1.295   .     A
C138   O168    1.293   .     A
C139   O169    1.295   .     A
C139   O170    1.301   .     A
C139   C141    1.468   .     S
C140   C643    1.400   1_554 S
C140   H677    1.083   1_554 S
C142   H156    1.083   .     S
C142   C143    1.387   .     A
C143   C666    1.387   .     S
C143   H680    1.082   .     S
C144   H157    1.081   .     S
C144   C665    1.387   1_554 S
C144   C640    1.413   1_554 S
Cu145  O165    1.968   .     S
Cu145  Cu146   2.686   .     S
Cu145  O163    1.963   .     S
Cu145  O167    1.965   .     S
Cu145  N161    2.019   .     S
Cu145  O169    1.962   .     S
Cu146  O166    1.962   .     S
Cu146  O170    1.968   .     S
Cu146  O164    1.965   .     S
Cu146  N162    2.018   .     S
Cu146  O168    1.963   .     S
H155   C662    1.083   .     S
H158   C665    1.082   1_554 S
C171   H172    1.085   .     S
C171   O173    1.218   .     D
C175   O222    1.295   .     A
C175   C191    1.450   .     S
C175   O221    1.292   .     A
C176   C177    1.416   .     A
C176   C700    1.416   .     S
C176   C724    1.413   .     S
C177   C184    1.427   .     A
C177   C181    1.419   .     A
C178   C182    1.398   .     A
C178   C698    1.416   1_554 S
C178   C701    1.412   1_554 S
C179   C180    1.391   .     A
C179   C700    1.412   .     S
C179   C720    1.400   .     S
C180   C181    1.390   .     A
C180   H212    1.084   .     S
C181   H217    1.078   .     S
C182   C199    1.409   .     A
C182   Br232   1.940   .     S
C183   C199    1.405   .     A
C183   C198    1.395   .     A
C183   H205    1.083   .     S
C184   C186    1.472   .     S
C184   C200    1.405   .     A
C185   H218    1.082   .     S
C185   C191    1.400   .     A
C185   C361    1.383   .     S
C186   O224    1.293   .     A
C186   O223    1.304   .     A
C187   H206    1.083   .     S
C187   C188    1.402   .     A
C188   C196    1.450   .     S
C188   C189    1.400   .     A
C189   H207    1.083   .     S
C190   H208    1.083   .     S
C190   C191    1.402   .     A
C190   C363    1.384   .     S
C192   C229    1.472   .     S
C192   N220    1.388   .     A
C192   C251    1.412   .     S
C193   N219    1.354   .     A
C193   H209    1.083   .     S
C193   C308    1.412   1_455 S
C194   N219    1.369   .     A
C194   H210    1.080   .     S
C194   C311    1.418   1_455 S
C195   H211    1.081   .     S
C195   N220    1.366   .     A
C195   C252    1.418   .     S
C196   O225    1.295   .     A
C196   O226    1.293   .     A
C197   O227    1.295   .     A
C197   O228    1.301   .     A
C197   C199    1.468   .     S
C198   C701    1.400   1_554 S
C198   H735    1.083   1_554 S
C200   H214    1.083   .     S
C200   C201    1.387   .     A
C201   C724    1.387   .     S
C201   H738    1.082   .     S
C202   H215    1.081   .     S
C202   C723    1.387   1_554 S
C202   C698    1.413   1_554 S
Cu203  O223    1.968   .     S
Cu203  Cu204   2.686   .     S
Cu203  O221    1.963   .     S
Cu203  O225    1.965   .     S
Cu203  N219    2.019   .     S
Cu203  O227    1.962   .     S
Cu204  O224    1.962   .     S
Cu204  O228    1.968   .     S
Cu204  O222    1.965   .     S
Cu204  N220    2.018   .     S
Cu204  O226    1.963   .     S
H213   C720    1.083   .     S
H216   C723    1.082   1_554 S
C229   H230    1.085   .     S
C229   O231    1.218   .     D
C233   O280    1.295   .     A
C233   C249    1.450   .     S
C233   O279    1.292   .     A
C234   C235    1.416   .     A
C234   C758    1.416   .     S
C234   C782    1.413   .     S
C235   C242    1.427   .     A
C235   C239    1.419   .     A
C236   C240    1.398   .     A
C236   C756    1.416   1_554 S
C236   C759    1.412   1_554 S
C237   C238    1.391   .     A
C237   C758    1.412   .     S
C237   C778    1.400   .     S
C238   C239    1.390   .     A
C238   H270    1.084   .     S
C239   H275    1.078   .     S
C240   C257    1.409   .     A
C240   Br290   1.940   .     S
C241   C257    1.405   .     A
C241   C256    1.395   .     A
C241   H263    1.083   .     S
C242   C244    1.472   .     S
C242   C258    1.405   .     A
C243   H276    1.082   .     S
C243   C249    1.400   .     A
C243   C419    1.383   .     S
C244   O282    1.293   .     A
C244   O281    1.304   .     A
C245   H264    1.083   .     S
C245   C246    1.402   .     A
C246   C254    1.450   .     S
C246   C247    1.400   .     A
C247   H265    1.083   .     S
C248   H266    1.083   .     S
C248   C249    1.402   .     A
C248   C421    1.384   .     S
C250   C287    1.472   .     S
C250   N278    1.388   .     A
C250   C309    1.412   .     S
C251   N277    1.354   .     A
C251   H267    1.083   .     S
C252   N277    1.369   .     A
C252   H268    1.080   .     S
C253   H269    1.081   .     S
C253   N278    1.366   .     A
C253   C310    1.418   .     S
C254   O283    1.295   .     A
C254   O284    1.293   .     A
C255   O285    1.295   .     A
C255   O286    1.301   .     A
C255   C257    1.468   .     S
C256   C759    1.400   1_554 S
C256   H793    1.083   1_554 S
C258   H272    1.083   .     S
C258   C259    1.387   .     A
C259   C782    1.387   .     S
C259   H796    1.082   .     S
C260   H273    1.081   .     S
C260   C781    1.387   1_554 S
C260   C756    1.413   1_554 S
Cu261  O281    1.968   .     S
Cu261  Cu262   2.686   .     S
Cu261  O279    1.963   .     S
Cu261  O283    1.965   .     S
Cu261  N277    2.019   .     S
Cu261  O285    1.962   .     S
Cu262  O282    1.962   .     S
Cu262  O286    1.968   .     S
Cu262  O280    1.965   .     S
Cu262  N278    2.018   .     S
Cu262  O284    1.963   .     S
H271   C778    1.083   .     S
H274   C781    1.082   1_554 S
C287   H288    1.085   .     S
C287   O289    1.218   .     D
C291   O338    1.295   .     A
C291   C307    1.450   .     S
C291   O337    1.292   .     A
C292   C293    1.416   .     A
C292   C816    1.416   .     S
C292   C840    1.413   .     S
C293   C300    1.427   .     A
C293   C297    1.419   .     A
C294   C298    1.398   .     A
C294   C814    1.416   1_554 S
C294   C817    1.412   1_554 S
C295   C296    1.391   .     A
C295   C816    1.412   .     S
C295   C836    1.400   .     S
C296   C297    1.390   .     A
C296   H328    1.084   .     S
C297   H333    1.078   .     S
C298   C315    1.409   .     A
C298   Br348   1.940   .     S
C299   C315    1.405   .     A
C299   C314    1.395   .     A
C299   H321    1.083   .     S
C300   C302    1.472   .     S
C300   C316    1.405   .     A
C301   H334    1.082   .     S
C301   C307    1.400   .     A
C301   C477    1.383   .     S
C302   O340    1.293   .     A
C302   O339    1.304   .     A
C303   H322    1.083   .     S
C303   C304    1.402   .     A
C304   C312    1.450   .     S
C304   C305    1.400   .     A
C305   H323    1.083   .     S
C306   H324    1.083   .     S
C306   C307    1.402   .     A
C306   C479    1.384   .     S
C308   C345    1.472   .     S
C308   N336    1.388   .     A
C308   C193    1.412   1_655 S
C309   N335    1.354   .     A
C309   H325    1.083   .     S
C310   N335    1.369   .     A
C310   H326    1.080   .     S
C311   H327    1.081   .     S
C311   N336    1.366   .     A
C311   C194    1.418   1_655 S
C312   O341    1.295   .     A
C312   O342    1.293   .     A
C313   O343    1.295   .     A
C313   O344    1.301   .     A
C313   C315    1.468   .     S
C314   C817    1.400   1_554 S
C314   H851    1.083   1_554 S
C316   H330    1.083   .     S
C316   C317    1.387   .     A
C317   C840    1.387   .     S
C317   H854    1.082   .     S
C318   H331    1.081   .     S
C318   C839    1.387   1_554 S
C318   C814    1.413   1_554 S
Cu319  O339    1.968   .     S
Cu319  Cu320   2.686   .     S
Cu319  O337    1.963   .     S
Cu319  O341    1.965   .     S
Cu319  N335    2.019   .     S
Cu319  O343    1.962   .     S
Cu320  O340    1.962   .     S
Cu320  O344    1.968   .     S
Cu320  O338    1.965   .     S
Cu320  N336    2.018   .     S
Cu320  O342    1.963   .     S
H329   C836    1.083   .     S
H332   C839    1.082   1_554 S
C345   H346    1.085   .     S
C345   O347    1.218   .     D
C349   O396    1.295   .     A
C349   C365    1.450   .     S
C349   O395    1.292   .     A
C350   C351    1.416   .     A
C350   C874    1.416   .     S
C350   C898    1.413   .     S
C351   C358    1.427   .     A
C351   C355    1.419   .     A
C352   C356    1.398   .     A
C352   C872    1.416   1_554 S
C352   C875    1.412   1_554 S
C353   C354    1.391   .     A
C353   C874    1.412   .     S
C353   C894    1.400   .     S
C354   C355    1.390   .     A
C354   H386    1.084   .     S
C355   H391    1.078   .     S
C356   C373    1.409   .     A
C356   Br406   1.940   .     S
C357   C373    1.405   .     A
C357   C372    1.395   .     A
C357   H379    1.083   .     S
C358   C360    1.472   .     S
C358   C374    1.405   .     A
C359   H392    1.082   .     S
C359   C365    1.400   .     A
C359   C13     1.383   1_565 S
C360   O398    1.293   .     A
C360   O397    1.304   .     A
C361   H380    1.083   .     S
C361   C362    1.402   .     A
C362   C370    1.450   .     S
C362   C363    1.400   .     A
C363   H381    1.083   .     S
C364   H382    1.083   .     S
C364   C365    1.402   .     A
C364   C15     1.384   1_565 S
C366   C403    1.472   .     S
C366   N394    1.388   .     A
C366   C425    1.412   .     S
C367   N393    1.354   .     A
C367   H383    1.083   .     S
C367   C482    1.412   1_455 S
C368   N393    1.369   .     A
C368   H384    1.080   .     S
C368   C485    1.418   1_455 S
C369   H385    1.081   .     S
C369   N394    1.366   .     A
C369   C426    1.418   .     S
C370   O399    1.295   .     A
C370   O400    1.293   .     A
C371   O401    1.295   .     A
C371   O402    1.301   .     A
C371   C373    1.468   .     S
C372   C875    1.400   1_554 S
C372   H909    1.083   1_554 S
C374   H388    1.083   .     S
C374   C375    1.387   .     A
C375   C898    1.387   .     S
C375   H912    1.082   .     S
C376   H389    1.081   .     S
C376   C897    1.387   1_554 S
C376   C872    1.413   1_554 S
Cu377  O397    1.968   .     S
Cu377  Cu378   2.686   .     S
Cu377  O395    1.963   .     S
Cu377  O399    1.965   .     S
Cu377  N393    2.019   .     S
Cu377  O401    1.962   .     S
Cu378  O398    1.962   .     S
Cu378  O402    1.968   .     S
Cu378  O396    1.965   .     S
Cu378  N394    2.018   .     S
Cu378  O400    1.963   .     S
H387   C894    1.083   .     S
H390   C897    1.082   1_554 S
C403   H404    1.085   .     S
C403   O405    1.218   .     D
C407   O454    1.295   .     A
C407   C423    1.450   .     S
C407   O453    1.292   .     A
C408   C409    1.416   .     A
C408   C932    1.416   .     S
C408   C956    1.413   .     S
C409   C416    1.427   .     A
C409   C413    1.419   .     A
C410   C414    1.398   .     A
C410   C930    1.416   1_554 S
C410   C933    1.412   1_554 S
C411   C412    1.391   .     A
C411   C932    1.412   .     S
C411   C952    1.400   .     S
C412   C413    1.390   .     A
C412   H444    1.084   .     S
C413   H449    1.078   .     S
C414   C431    1.409   .     A
C414   Br464   1.940   .     S
C415   C431    1.405   .     A
C415   C430    1.395   .     A
C415   H437    1.083   .     S
C416   C418    1.472   .     S
C416   C432    1.405   .     A
C417   H450    1.082   .     S
C417   C423    1.400   .     A
C417   C71     1.383   1_565 S
C418   O456    1.293   .     A
C418   O455    1.304   .     A
C419   H438    1.083   .     S
C419   C420    1.402   .     A
C420   C428    1.450   .     S
C420   C421    1.400   .     A
C421   H439    1.083   .     S
C422   H440    1.083   .     S
C422   C423    1.402   .     A
C422   C73     1.384   1_565 S
C424   C461    1.472   .     S
C424   N452    1.388   .     A
C424   C483    1.412   .     S
C425   N451    1.354   .     A
C425   H441    1.083   .     S
C426   N451    1.369   .     A
C426   H442    1.080   .     S
C427   H443    1.081   .     S
C427   N452    1.366   .     A
C427   C484    1.418   .     S
C428   O457    1.295   .     A
C428   O458    1.293   .     A
C429   O459    1.295   .     A
C429   O460    1.301   .     A
C429   C431    1.468   .     S
C430   C933    1.400   1_554 S
C430   H967    1.083   1_554 S
C432   H446    1.083   .     S
C432   C433    1.387   .     A
C433   C956    1.387   .     S
C433   H970    1.082   .     S
C434   H447    1.081   .     S
C434   C955    1.387   1_554 S
C434   C930    1.413   1_554 S
Cu435  O455    1.968   .     S
Cu435  Cu436   2.686   .     S
Cu435  O453    1.963   .     S
Cu435  O457    1.965   .     S
Cu435  N451    2.019   .     S
Cu435  O459    1.962   .     S
Cu436  O456    1.962   .     S
Cu436  O460    1.968   .     S
Cu436  O454    1.965   .     S
Cu436  N452    2.018   .     S
Cu436  O458    1.963   .     S
H445   C952    1.083   .     S
H448   C955    1.082   1_554 S
C461   H462    1.085   .     S
C461   O463    1.218   .     D
C465   O512    1.295   .     A
C465   C481    1.450   .     S
C465   O511    1.292   .     A
C466   C467    1.416   .     A
C466   C990    1.416   .     S
C466   C1014   1.413   .     S
C467   C474    1.427   .     A
C467   C471    1.419   .     A
C468   C472    1.398   .     A
C468   C988    1.416   1_554 S
C468   C991    1.412   1_554 S
C469   C470    1.391   .     A
C469   C990    1.412   .     S
C469   C1010   1.400   .     S
C470   C471    1.390   .     A
C470   H502    1.084   .     S
C471   H507    1.078   .     S
C472   C489    1.409   .     A
C472   Br522   1.940   .     S
C473   C489    1.405   .     A
C473   C488    1.395   .     A
C473   H495    1.083   .     S
C474   C476    1.472   .     S
C474   C490    1.405   .     A
C475   H508    1.082   .     S
C475   C481    1.400   .     A
C475   C129    1.383   1_565 S
C476   O514    1.293   .     A
C476   O513    1.304   .     A
C477   H496    1.083   .     S
C477   C478    1.402   .     A
C478   C486    1.450   .     S
C478   C479    1.400   .     A
C479   H497    1.083   .     S
C480   H498    1.083   .     S
C480   C481    1.402   .     A
C480   C131    1.384   1_565 S
C482   C519    1.472   .     S
C482   N510    1.388   .     A
C482   C367    1.412   1_655 S
C483   N509    1.354   .     A
C483   H499    1.083   .     S
C484   N509    1.369   .     A
C484   H500    1.080   .     S
C485   H501    1.081   .     S
C485   N510    1.366   .     A
C485   C368    1.418   1_655 S
C486   O515    1.295   .     A
C486   O516    1.293   .     A
C487   O517    1.295   .     A
C487   O518    1.301   .     A
C487   C489    1.468   .     S
C488   C991    1.400   1_554 S
C488   H1025   1.083   1_554 S
C490   H504    1.083   .     S
C490   C491    1.387   .     A
C491   C1014   1.387   .     S
C491   H1028   1.082   .     S
C492   H505    1.081   .     S
C492   C1013   1.387   1_554 S
C492   C988    1.413   1_554 S
Cu493  O513    1.968   .     S
Cu493  Cu494   2.686   .     S
Cu493  O511    1.963   .     S
Cu493  O515    1.965   .     S
Cu493  N509    2.019   .     S
Cu493  O517    1.962   .     S
Cu494  O514    1.962   .     S
Cu494  O518    1.968   .     S
Cu494  O512    1.965   .     S
Cu494  N510    2.018   .     S
Cu494  O516    1.963   .     S
H503   C1010   1.083   .     S
H506   C1013   1.082   1_554 S
C519   H520    1.085   .     S
C519   O521    1.218   .     D
C523   O570    1.295   .     A
C523   C539    1.450   .     S
C523   O569    1.292   .     A
C524   C525    1.416   .     A
C524   C4      1.416   1_556 S
C524   C28     1.413   1_556 S
C525   C532    1.427   .     A
C525   C529    1.419   .     A
C526   C530    1.398   .     A
C527   C528    1.391   .     A
C527   C4      1.412   1_556 S
C527   C24     1.400   1_556 S
C528   C529    1.390   .     A
C528   H560    1.084   .     S
C529   H565    1.078   .     S
C530   C547    1.409   .     A
C530   Br580   1.940   .     S
C531   C547    1.405   .     A
C531   C546    1.395   .     A
C531   H553    1.083   .     S
C532   C534    1.472   .     S
C532   C548    1.405   .     A
C533   H566    1.082   .     S
C533   C539    1.400   .     A
C533   C709    1.383   .     S
C534   O572    1.293   .     A
C534   O571    1.304   .     A
C535   H554    1.083   .     S
C535   C536    1.402   .     A
C535   C881    1.383   1_545 S
C536   C544    1.450   .     S
C536   C537    1.400   .     A
C537   H555    1.083   .     S
C537   C886    1.384   1_545 S
C538   H556    1.083   .     S
C538   C539    1.402   .     A
C538   C711    1.384   .     S
C540   C577    1.472   .     S
C540   N568    1.388   .     A
C540   C599    1.412   .     S
C541   N567    1.354   .     A
C541   H557    1.083   .     S
C541   C656    1.412   1_455 S
C542   N567    1.369   .     A
C542   H558    1.080   .     S
C542   C659    1.418   1_455 S
C543   H559    1.081   .     S
C543   N568    1.366   .     A
C543   C600    1.418   .     S
C544   O573    1.295   .     A
C544   O574    1.293   .     A
C545   O575    1.295   .     A
C545   O576    1.301   .     A
C545   C547    1.468   .     S
C548   H562    1.083   .     S
C548   C549    1.387   .     A
C549   C28     1.387   1_556 S
C549   H42     1.082   1_556 S
C550   H563    1.081   .     S
Cu551  O571    1.968   .     S
Cu551  Cu552   2.686   .     S
Cu551  O569    1.963   .     S
Cu551  O573    1.965   .     S
Cu551  N567    2.019   .     S
Cu551  O575    1.962   .     S
Cu552  O572    1.962   .     S
Cu552  O576    1.968   .     S
Cu552  O570    1.965   .     S
Cu552  N568    2.018   .     S
Cu552  O574    1.963   .     S
H561   C24     1.083   1_556 S
C577   H578    1.085   .     S
C577   O579    1.218   .     D
C581   O628    1.295   .     A
C581   C597    1.450   .     S
C581   O627    1.292   .     A
C582   C583    1.416   .     A
C582   C62     1.416   1_556 S
C582   C86     1.413   1_556 S
C583   C590    1.427   .     A
C583   C587    1.419   .     A
C584   C588    1.398   .     A
C585   C586    1.391   .     A
C585   C62     1.412   1_556 S
C585   C82     1.400   1_556 S
C586   C587    1.390   .     A
C586   H618    1.084   .     S
C587   H623    1.078   .     S
C588   C605    1.409   .     A
C588   Br638   1.940   .     S
C589   C605    1.405   .     A
C589   C604    1.395   .     A
C589   H611    1.083   .     S
C590   C592    1.472   .     S
C590   C606    1.405   .     A
C591   H624    1.082   .     S
C591   C597    1.400   .     A
C591   C767    1.383   .     S
C592   O630    1.293   .     A
C592   O629    1.304   .     A
C593   H612    1.083   .     S
C593   C594    1.402   .     A
C593   C939    1.383   1_545 S
C594   C602    1.450   .     S
C594   C595    1.400   .     A
C595   H613    1.083   .     S
C595   C944    1.384   1_545 S
C596   H614    1.083   .     S
C596   C597    1.402   .     A
C596   C769    1.384   .     S
C598   C635    1.472   .     S
C598   N626    1.388   .     A
C598   C657    1.412   .     S
C599   N625    1.354   .     A
C599   H615    1.083   .     S
C600   N625    1.369   .     A
C600   H616    1.080   .     S
C601   H617    1.081   .     S
C601   N626    1.366   .     A
C601   C658    1.418   .     S
C602   O631    1.295   .     A
C602   O632    1.293   .     A
C603   O633    1.295   .     A
C603   O634    1.301   .     A
C603   C605    1.468   .     S
C606   H620    1.083   .     S
C606   C607    1.387   .     A
C607   C86     1.387   1_556 S
C607   H100    1.082   1_556 S
C608   H621    1.081   .     S
Cu609  O629    1.968   .     S
Cu609  Cu610   2.686   .     S
Cu609  O627    1.963   .     S
Cu609  O631    1.965   .     S
Cu609  N625    2.019   .     S
Cu609  O633    1.962   .     S
Cu610  O630    1.962   .     S
Cu610  O634    1.968   .     S
Cu610  O628    1.965   .     S
Cu610  N626    2.018   .     S
Cu610  O632    1.963   .     S
H619   C82     1.083   1_556 S
C635   H636    1.085   .     S
C635   O637    1.218   .     D
C639   O686    1.295   .     A
C639   C655    1.450   .     S
C639   O685    1.292   .     A
C640   C641    1.416   .     A
C640   C120    1.416   1_556 S
C640   C144    1.413   1_556 S
C641   C648    1.427   .     A
C641   C645    1.419   .     A
C642   C646    1.398   .     A
C643   C644    1.391   .     A
C643   C120    1.412   1_556 S
C643   C140    1.400   1_556 S
C644   C645    1.390   .     A
C644   H676    1.084   .     S
C645   H681    1.078   .     S
C646   C663    1.409   .     A
C646   Br696   1.940   .     S
C647   C663    1.405   .     A
C647   C662    1.395   .     A
C647   H669    1.083   .     S
C648   C650    1.472   .     S
C648   C664    1.405   .     A
C649   H682    1.082   .     S
C649   C655    1.400   .     A
C649   C825    1.383   .     S
C650   O688    1.293   .     A
C650   O687    1.304   .     A
C651   H670    1.083   .     S
C651   C652    1.402   .     A
C651   C997    1.383   1_545 S
C652   C660    1.450   .     S
C652   C653    1.400   .     A
C653   H671    1.083   .     S
C653   C1002   1.384   1_545 S
C654   H672    1.083   .     S
C654   C655    1.402   .     A
C654   C827    1.384   .     S
C656   C693    1.472   .     S
C656   N684    1.388   .     A
C656   C541    1.412   1_655 S
C657   N683    1.354   .     A
C657   H673    1.083   .     S
C658   N683    1.369   .     A
C658   H674    1.080   .     S
C659   H675    1.081   .     S
C659   N684    1.366   .     A
C659   C542    1.418   1_655 S
C660   O689    1.295   .     A
C660   O690    1.293   .     A
C661   O691    1.295   .     A
C661   O692    1.301   .     A
C661   C663    1.468   .     S
C664   H678    1.083   .     S
C664   C665    1.387   .     A
C665   C144    1.387   1_556 S
C665   H158    1.082   1_556 S
C666   H679    1.081   .     S
Cu667  O687    1.968   .     S
Cu667  Cu668   2.686   .     S
Cu667  O685    1.963   .     S
Cu667  O689    1.965   .     S
Cu667  N683    2.019   .     S
Cu667  O691    1.962   .     S
Cu668  O688    1.962   .     S
Cu668  O692    1.968   .     S
Cu668  O686    1.965   .     S
Cu668  N684    2.018   .     S
Cu668  O690    1.963   .     S
H677   C140    1.083   1_556 S
C693   H694    1.085   .     S
C693   O695    1.218   .     D
C697   O744    1.295   .     A
C697   C713    1.450   .     S
C697   O743    1.292   .     A
C698   C699    1.416   .     A
C698   C178    1.416   1_556 S
C698   C202    1.413   1_556 S
C699   C706    1.427   .     A
C699   C703    1.419   .     A
C700   C704    1.398   .     A
C701   C702    1.391   .     A
C701   C178    1.412   1_556 S
C701   C198    1.400   1_556 S
C702   C703    1.390   .     A
C702   H734    1.084   .     S
C703   H739    1.078   .     S
C704   C721    1.409   .     A
C704   Br754   1.940   .     S
C705   C721    1.405   .     A
C705   C720    1.395   .     A
C705   H727    1.083   .     S
C706   C708    1.472   .     S
C706   C722    1.405   .     A
C707   H740    1.082   .     S
C707   C713    1.400   .     A
C707   C883    1.383   .     S
C708   O746    1.293   .     A
C708   O745    1.304   .     A
C709   H728    1.083   .     S
C709   C710    1.402   .     A
C710   C718    1.450   .     S
C710   C711    1.400   .     A
C711   H729    1.083   .     S
C712   H730    1.083   .     S
C712   C713    1.402   .     A
C712   C885    1.384   .     S
C714   C751    1.472   .     S
C714   N742    1.388   .     A
C714   C773    1.412   .     S
C715   N741    1.354   .     A
C715   H731    1.083   .     S
C715   C830    1.412   1_455 S
C716   N741    1.369   .     A
C716   H732    1.080   .     S
C716   C833    1.418   1_455 S
C717   H733    1.081   .     S
C717   N742    1.366   .     A
C717   C774    1.418   .     S
C718   O747    1.295   .     A
C718   O748    1.293   .     A
C719   O749    1.295   .     A
C719   O750    1.301   .     A
C719   C721    1.468   .     S
C722   H736    1.083   .     S
C722   C723    1.387   .     A
C723   C202    1.387   1_556 S
C723   H216    1.082   1_556 S
C724   H737    1.081   .     S
Cu725  O745    1.968   .     S
Cu725  Cu726   2.686   .     S
Cu725  O743    1.963   .     S
Cu725  O747    1.965   .     S
Cu725  N741    2.019   .     S
Cu725  O749    1.962   .     S
Cu726  O746    1.962   .     S
Cu726  O750    1.968   .     S
Cu726  O744    1.965   .     S
Cu726  N742    2.018   .     S
Cu726  O748    1.963   .     S
H735   C198    1.083   1_556 S
C751   H752    1.085   .     S
C751   O753    1.218   .     D
C755   O802    1.295   .     A
C755   C771    1.450   .     S
C755   O801    1.292   .     A
C756   C757    1.416   .     A
C756   C236    1.416   1_556 S
C756   C260    1.413   1_556 S
C757   C764    1.427   .     A
C757   C761    1.419   .     A
C758   C762    1.398   .     A
C759   C760    1.391   .     A
C759   C236    1.412   1_556 S
C759   C256    1.400   1_556 S
C760   C761    1.390   .     A
C760   H792    1.084   .     S
C761   H797    1.078   .     S
C762   C779    1.409   .     A
C762   Br812   1.940   .     S
C763   C779    1.405   .     A
C763   C778    1.395   .     A
C763   H785    1.083   .     S
C764   C766    1.472   .     S
C764   C780    1.405   .     A
C765   H798    1.082   .     S
C765   C771    1.400   .     A
C765   C941    1.383   .     S
C766   O804    1.293   .     A
C766   O803    1.304   .     A
C767   H786    1.083   .     S
C767   C768    1.402   .     A
C768   C776    1.450   .     S
C768   C769    1.400   .     A
C769   H787    1.083   .     S
C770   H788    1.083   .     S
C770   C771    1.402   .     A
C770   C943    1.384   .     S
C772   C809    1.472   .     S
C772   N800    1.388   .     A
C772   C831    1.412   .     S
C773   N799    1.354   .     A
C773   H789    1.083   .     S
C774   N799    1.369   .     A
C774   H790    1.080   .     S
C775   H791    1.081   .     S
C775   N800    1.366   .     A
C775   C832    1.418   .     S
C776   O805    1.295   .     A
C776   O806    1.293   .     A
C777   O807    1.295   .     A
C777   O808    1.301   .     A
C777   C779    1.468   .     S
C780   H794    1.083   .     S
C780   C781    1.387   .     A
C781   C260    1.387   1_556 S
C781   H274    1.082   1_556 S
C782   H795    1.081   .     S
Cu783  O803    1.968   .     S
Cu783  Cu784   2.686   .     S
Cu783  O801    1.963   .     S
Cu783  O805    1.965   .     S
Cu783  N799    2.019   .     S
Cu783  O807    1.962   .     S
Cu784  O804    1.962   .     S
Cu784  O808    1.968   .     S
Cu784  O802    1.965   .     S
Cu784  N800    2.018   .     S
Cu784  O806    1.963   .     S
H793   C256    1.083   1_556 S
C809   H810    1.085   .     S
C809   O811    1.218   .     D
C813   O860    1.295   .     A
C813   C829    1.450   .     S
C813   O859    1.292   .     A
C814   C815    1.416   .     A
C814   C294    1.416   1_556 S
C814   C318    1.413   1_556 S
C815   C822    1.427   .     A
C815   C819    1.419   .     A
C816   C820    1.398   .     A
C817   C818    1.391   .     A
C817   C294    1.412   1_556 S
C817   C314    1.400   1_556 S
C818   C819    1.390   .     A
C818   H850    1.084   .     S
C819   H855    1.078   .     S
C820   C837    1.409   .     A
C820   Br870   1.940   .     S
C821   C837    1.405   .     A
C821   C836    1.395   .     A
C821   H843    1.083   .     S
C822   C824    1.472   .     S
C822   C838    1.405   .     A
C823   H856    1.082   .     S
C823   C829    1.400   .     A
C823   C999    1.383   .     S
C824   O862    1.293   .     A
C824   O861    1.304   .     A
C825   H844    1.083   .     S
C825   C826    1.402   .     A
C826   C834    1.450   .     S
C826   C827    1.400   .     A
C827   H845    1.083   .     S
C828   H846    1.083   .     S
C828   C829    1.402   .     A
C828   C1001   1.384   .     S
C830   C867    1.472   .     S
C830   N858    1.388   .     A
C830   C715    1.412   1_655 S
C831   N857    1.354   .     A
C831   H847    1.083   .     S
C832   N857    1.369   .     A
C832   H848    1.080   .     S
C833   H849    1.081   .     S
C833   N858    1.366   .     A
C833   C716    1.418   1_655 S
C834   O863    1.295   .     A
C834   O864    1.293   .     A
C835   O865    1.295   .     A
C835   O866    1.301   .     A
C835   C837    1.468   .     S
C838   H852    1.083   .     S
C838   C839    1.387   .     A
C839   C318    1.387   1_556 S
C839   H332    1.082   1_556 S
C840   H853    1.081   .     S
Cu841  O861    1.968   .     S
Cu841  Cu842   2.686   .     S
Cu841  O859    1.963   .     S
Cu841  O863    1.965   .     S
Cu841  N857    2.019   .     S
Cu841  O865    1.962   .     S
Cu842  O862    1.962   .     S
Cu842  O866    1.968   .     S
Cu842  O860    1.965   .     S
Cu842  N858    2.018   .     S
Cu842  O864    1.963   .     S
H851   C314    1.083   1_556 S
C867   H868    1.085   .     S
C867   O869    1.218   .     D
C871   O918    1.295   .     A
C871   C887    1.450   .     S
C871   O917    1.292   .     A
C872   C873    1.416   .     A
C872   C352    1.416   1_556 S
C872   C376    1.413   1_556 S
C873   C880    1.427   .     A
C873   C877    1.419   .     A
C874   C878    1.398   .     A
C875   C876    1.391   .     A
C875   C352    1.412   1_556 S
C875   C372    1.400   1_556 S
C876   C877    1.390   .     A
C876   H908    1.084   .     S
C877   H913    1.078   .     S
C878   C895    1.409   .     A
C878   Br928   1.940   .     S
C879   C895    1.405   .     A
C879   C894    1.395   .     A
C879   H901    1.083   .     S
C880   C882    1.472   .     S
C880   C896    1.405   .     A
C881   H914    1.082   .     S
C881   C887    1.400   .     A
C881   C535    1.383   1_565 S
C882   O920    1.293   .     A
C882   O919    1.304   .     A
C883   H902    1.083   .     S
C883   C884    1.402   .     A
C884   C892    1.450   .     S
C884   C885    1.400   .     A
C885   H903    1.083   .     S
C886   H904    1.083   .     S
C886   C887    1.402   .     A
C886   C537    1.384   1_565 S
C888   C925    1.472   .     S
C888   N916    1.388   .     A
C888   C947    1.412   .     S
C889   N915    1.354   .     A
C889   H905    1.083   .     S
C889   C1004   1.412   1_455 S
C890   N915    1.369   .     A
C890   H906    1.080   .     S
C890   C1007   1.418   1_455 S
C891   H907    1.081   .     S
C891   N916    1.366   .     A
C891   C948    1.418   .     S
C892   O921    1.295   .     A
C892   O922    1.293   .     A
C893   O923    1.295   .     A
C893   O924    1.301   .     A
C893   C895    1.468   .     S
C896   H910    1.083   .     S
C896   C897    1.387   .     A
C897   C376    1.387   1_556 S
C897   H390    1.082   1_556 S
C898   H911    1.081   .     S
Cu899  O919    1.968   .     S
Cu899  Cu900   2.686   .     S
Cu899  O917    1.963   .     S
Cu899  O921    1.965   .     S
Cu899  N915    2.019   .     S
Cu899  O923    1.962   .     S
Cu900  O920    1.962   .     S
Cu900  O924    1.968   .     S
Cu900  O918    1.965   .     S
Cu900  N916    2.018   .     S
Cu900  O922    1.963   .     S
H909   C372    1.083   1_556 S
C925   H926    1.085   .     S
C925   O927    1.218   .     D
C929   O976    1.295   .     A
C929   C945    1.450   .     S
C929   O975    1.292   .     A
C930   C931    1.416   .     A
C930   C410    1.416   1_556 S
C930   C434    1.413   1_556 S
C931   C938    1.427   .     A
C931   C935    1.419   .     A
C932   C936    1.398   .     A
C933   C934    1.391   .     A
C933   C410    1.412   1_556 S
C933   C430    1.400   1_556 S
C934   C935    1.390   .     A
C934   H966    1.084   .     S
C935   H971    1.078   .     S
C936   C953    1.409   .     A
C936   Br986   1.940   .     S
C937   C953    1.405   .     A
C937   C952    1.395   .     A
C937   H959    1.083   .     S
C938   C940    1.472   .     S
C938   C954    1.405   .     A
C939   H972    1.082   .     S
C939   C945    1.400   .     A
C939   C593    1.383   1_565 S
C940   O978    1.293   .     A
C940   O977    1.304   .     A
C941   H960    1.083   .     S
C941   C942    1.402   .     A
C942   C950    1.450   .     S
C942   C943    1.400   .     A
C943   H961    1.083   .     S
C944   H962    1.083   .     S
C944   C945    1.402   .     A
C944   C595    1.384   1_565 S
C946   C983    1.472   .     S
C946   N974    1.388   .     A
C946   C1005   1.412   .     S
C947   N973    1.354   .     A
C947   H963    1.083   .     S
C948   N973    1.369   .     A
C948   H964    1.080   .     S
C949   H965    1.081   .     S
C949   N974    1.366   .     A
C949   C1006   1.418   .     S
C950   O979    1.295   .     A
C950   O980    1.293   .     A
C951   O981    1.295   .     A
C951   O982    1.301   .     A
C951   C953    1.468   .     S
C954   H968    1.083   .     S
C954   C955    1.387   .     A
C955   C434    1.387   1_556 S
C955   H448    1.082   1_556 S
C956   H969    1.081   .     S
Cu957  O977    1.968   .     S
Cu957  Cu958   2.686   .     S
Cu957  O975    1.963   .     S
Cu957  O979    1.965   .     S
Cu957  N973    2.019   .     S
Cu957  O981    1.962   .     S
Cu958  O978    1.962   .     S
Cu958  O982    1.968   .     S
Cu958  O976    1.965   .     S
Cu958  N974    2.018   .     S
Cu958  O980    1.963   .     S
H967   C430    1.083   1_556 S
C983   H984    1.085   .     S
C983   O985    1.218   .     D
C987   O1034   1.295   .     A
C987   C1003   1.450   .     S
C987   O1033   1.292   .     A
C988   C989    1.416   .     A
C988   C468    1.416   1_556 S
C988   C492    1.413   1_556 S
C989   C996    1.427   .     A
C989   C993    1.419   .     A
C990   C994    1.398   .     A
C991   C992    1.391   .     A
C991   C468    1.412   1_556 S
C991   C488    1.400   1_556 S
C992   C993    1.390   .     A
C992   H1024   1.084   .     S
C993   H1029   1.078   .     S
C994   C1011   1.409   .     A
C994   Br1044  1.940   .     S
C995   C1011   1.405   .     A
C995   C1010   1.395   .     A
C995   H1017   1.083   .     S
C996   C998    1.472   .     S
C996   C1012   1.405   .     A
C997   H1030   1.082   .     S
C997   C1003   1.400   .     A
C997   C651    1.383   1_565 S
C998   O1036   1.293   .     A
C998   O1035   1.304   .     A
C999   H1018   1.083   .     S
C999   C1000   1.402   .     A
C1000  C1008   1.450   .     S
C1000  C1001   1.400   .     A
C1001  H1019   1.083   .     S
C1002  H1020   1.083   .     S
C1002  C1003   1.402   .     A
C1002  C653    1.384   1_565 S
C1004  C1041   1.472   .     S
C1004  N1032   1.388   .     A
C1004  C889    1.412   1_655 S
C1005  N1031   1.354   .     A
C1005  H1021   1.083   .     S
C1006  N1031   1.369   .     A
C1006  H1022   1.080   .     S
C1007  H1023   1.081   .     S
C1007  N1032   1.366   .     A
C1007  C890    1.418   1_655 S
C1008  O1037   1.295   .     A
C1008  O1038   1.293   .     A
C1009  O1039   1.295   .     A
C1009  O1040   1.301   .     A
C1009  C1011   1.468   .     S
C1012  H1026   1.083   .     S
C1012  C1013   1.387   .     A
C1013  C492    1.387   1_556 S
C1013  H506    1.082   1_556 S
C1014  H1027   1.081   .     S
Cu1015 O1035   1.968   .     S
Cu1015 Cu1016  2.686   .     S
Cu1015 O1033   1.963   .     S
Cu1015 O1037   1.965   .     S
Cu1015 N1031   2.019   .     S
Cu1015 O1039   1.962   .     S
Cu1016 O1036   1.962   .     S
Cu1016 O1040   1.968   .     S
Cu1016 O1034   1.965   .     S
Cu1016 N1032   2.018   .     S
Cu1016 O1038   1.963   .     S
H1025  C488    1.083   1_556 S
C1041  H1042   1.085   .     S
C1041  O1043   1.218   .     D
