data_str_m2_o1_o10_pcu_sym.38
_audit_creation_date              2020-01-03
_audit_creation_method            'Materials Studio'
_symmetry_space_group_name_H-M    'P1'
_symmetry_Int_Tables_number       1
_symmetry_cell_setting            triclinic
loop_
_symmetry_equiv_pos_as_xyz
  x,y,z
_cell_length_a                    26.1450
_cell_length_b                    32.3096
_cell_length_c                    28.8778
_cell_angle_alpha                 88.4680
_cell_angle_beta                  97.4250
_cell_angle_gamma                 92.7172
loop_
_atom_site_label
_atom_site_type_symbol
_atom_site_fract_x
_atom_site_fract_y
_atom_site_fract_z
_atom_site_U_iso_or_equiv
_atom_site_adp_type
_atom_site_occupancy
C1     C     0.16655   0.08749   0.16704   0.00000  Uiso   1.00
C2     C     0.19461   0.02148   0.20393   0.00000  Uiso   1.00
C3     C     0.16716   0.29052   0.16600   0.00000  Uiso   1.00
C4     C     0.16618   0.04282   0.16733   0.00000  Uiso   1.00
C5     C     0.13959   0.13706   0.02349   0.00000  Uiso   1.00
C6     C     0.19374   0.19628   0.30985   0.00000  Uiso   1.00
C7     C     0.13890   0.13634   0.30767   0.00000  Uiso   1.00
C8     C     0.19443   0.19700   0.02566   0.00000  Uiso   1.00
C9     C     0.16679   0.24585   0.16630   0.00000  Uiso   1.00
C10    C     0.06809   0.16673   0.15472   0.00000  Uiso   1.00
C11    C     0.26524   0.16660   0.17861   0.00000  Uiso   1.00
C12    C     0.01282   0.16655   0.14818   0.00000  Uiso   1.00
C13    C     0.32052   0.16678   0.18515   0.00000  Uiso   1.00
C14    C     0.13848   0.02137   0.12991   0.00000  Uiso   1.00
C15    C     0.19486   0.31197   0.20342   0.00000  Uiso   1.00
C16    C     0.13872   0.31185   0.12940   0.00000  Uiso   1.00
Cu17   Cu    0.16667   0.16667   0.21355   0.00000  Uiso   1.00
Cu18   Cu    0.16667   0.16666   0.11978   0.00000  Uiso   1.00
H19    H     0.32647   0.16617   0.11263   0.00000  Uiso   1.00
H20    H     0.27169   0.26538   0.11372   0.00000  Uiso   1.00
H21    H     0.00687   0.16716   0.22070   0.00000  Uiso   1.00
H22    H     0.11623   0.03773   0.10148   0.00000  Uiso   1.00
H23    H     0.21710   0.29560   0.23185   0.00000  Uiso   1.00
H24    H     0.11610   0.29538   0.10101   0.00000  Uiso   1.00
H25    H     0.21723   0.03795   0.23232   0.00000  Uiso   1.00
H26    H     0.11898   0.11334   0.04172   0.00000  Uiso   1.00
H27    H     0.21436   0.21999   0.29162   0.00000  Uiso   1.00
H28    H     0.06164   0.06795   0.21961   0.00000  Uiso   1.00
N29    N     0.16668   0.16668   0.28403   0.00000  Uiso   1.00
N30    N     0.16665   0.16666   0.04931   0.00000  Uiso   1.00
O31    O     0.16666   0.10655   0.20625   0.00000  Uiso   1.00
O32    O     0.06711   0.07472   0.31430   0.00000  Uiso   1.00
O33    O     0.07265   0.09646   0.22957   0.00000  Uiso   1.00
O34    O     0.26622   0.25861   0.01904   0.00000  Uiso   1.00
O35    O     0.18869   0.27494   0.05150   0.00000  Uiso   1.00
O36    O     0.26068   0.23687   0.10377   0.00000  Uiso   1.00
O37    O     0.16667   0.22678   0.12709   0.00000  Uiso   1.00
O38    O     0.16666   0.10654   0.12706   0.00000  Uiso   1.00
O39    O     0.16667   0.22679   0.20628   0.00000  Uiso   1.00
O40    O     0.09161   0.16667   0.19712   0.00000  Uiso   1.00
O41    O     0.24172   0.16666   0.13621   0.00000  Uiso   1.00
O42    O     0.09161   0.16666   0.11793   0.00000  Uiso   1.00
O43    O     0.24172   0.16667   0.21540   0.00000  Uiso   1.00
O44    O     0.14465   0.05839   0.28183   0.00000  Uiso   1.00
S45    S     0.10557   0.09082   0.28293   0.00000  Uiso   1.00
S46    S     0.22776   0.24251   0.05040   0.00000  Uiso   1.00
C47    C     0.49988   0.08749   0.16704   0.00000  Uiso   1.00
C48    C     0.52794   0.02148   0.20393   0.00000  Uiso   1.00
C49    C     0.50049   0.29052   0.16600   0.00000  Uiso   1.00
C50    C     0.49951   0.04282   0.16733   0.00000  Uiso   1.00
C51    C     0.47292   0.13706   0.02349   0.00000  Uiso   1.00
C52    C     0.52708   0.19628   0.30985   0.00000  Uiso   1.00
C53    C     0.47223   0.13634   0.30767   0.00000  Uiso   1.00
C54    C     0.52777   0.19700   0.02566   0.00000  Uiso   1.00
C55    C     0.50012   0.24585   0.16630   0.00000  Uiso   1.00
C56    C     0.40142   0.16673   0.15472   0.00000  Uiso   1.00
C57    C     0.59858   0.16660   0.17861   0.00000  Uiso   1.00
C58    C     0.34615   0.16655   0.14818   0.00000  Uiso   1.00
C59    C     0.65385   0.16678   0.18515   0.00000  Uiso   1.00
C60    C     0.47181   0.02137   0.12991   0.00000  Uiso   1.00
C61    C     0.52819   0.31197   0.20342   0.00000  Uiso   1.00
C62    C     0.47206   0.31185   0.12940   0.00000  Uiso   1.00
Cu63   Cu    0.50000   0.16667   0.21355   0.00000  Uiso   1.00
Cu64   Cu    0.50000   0.16666   0.11978   0.00000  Uiso   1.00
H65    H     0.65980   0.16617   0.11263   0.00000  Uiso   1.00
H66    H     0.60502   0.26538   0.11372   0.00000  Uiso   1.00
H67    H     0.34020   0.16716   0.22070   0.00000  Uiso   1.00
H68    H     0.44957   0.03773   0.10148   0.00000  Uiso   1.00
H69    H     0.55043   0.29560   0.23185   0.00000  Uiso   1.00
H70    H     0.44943   0.29538   0.10101   0.00000  Uiso   1.00
H71    H     0.55057   0.03795   0.23232   0.00000  Uiso   1.00
H72    H     0.45231   0.11334   0.04172   0.00000  Uiso   1.00
H73    H     0.54769   0.21999   0.29162   0.00000  Uiso   1.00
H74    H     0.39497   0.06795   0.21961   0.00000  Uiso   1.00
N75    N     0.50001   0.16668   0.28403   0.00000  Uiso   1.00
N76    N     0.49999   0.16666   0.04931   0.00000  Uiso   1.00
O77    O     0.50000   0.10655   0.20625   0.00000  Uiso   1.00
O78    O     0.40045   0.07472   0.31430   0.00000  Uiso   1.00
O79    O     0.40599   0.09646   0.22957   0.00000  Uiso   1.00
O80    O     0.59955   0.25861   0.01904   0.00000  Uiso   1.00
O81    O     0.52202   0.27494   0.05150   0.00000  Uiso   1.00
O82    O     0.59401   0.23687   0.10377   0.00000  Uiso   1.00
O83    O     0.50000   0.22678   0.12709   0.00000  Uiso   1.00
O84    O     0.50000   0.10654   0.12706   0.00000  Uiso   1.00
O85    O     0.50000   0.22679   0.20628   0.00000  Uiso   1.00
O86    O     0.42495   0.16667   0.19712   0.00000  Uiso   1.00
O87    O     0.57505   0.16666   0.13621   0.00000  Uiso   1.00
O88    O     0.42494   0.16666   0.11793   0.00000  Uiso   1.00
O89    O     0.57506   0.16667   0.21540   0.00000  Uiso   1.00
O90    O     0.47798   0.05839   0.28183   0.00000  Uiso   1.00
S91    S     0.43891   0.09082   0.28293   0.00000  Uiso   1.00
S92    S     0.56109   0.24251   0.05040   0.00000  Uiso   1.00
C93    C     0.83321   0.08749   0.16704   0.00000  Uiso   1.00
C94    C     0.86128   0.02148   0.20393   0.00000  Uiso   1.00
C95    C     0.83382   0.29052   0.16600   0.00000  Uiso   1.00
C96    C     0.83284   0.04282   0.16733   0.00000  Uiso   1.00
C97    C     0.80626   0.13706   0.02349   0.00000  Uiso   1.00
C98    C     0.86041   0.19628   0.30985   0.00000  Uiso   1.00
C99    C     0.80557   0.13634   0.30767   0.00000  Uiso   1.00
C100   C     0.86110   0.19700   0.02566   0.00000  Uiso   1.00
C101   C     0.83345   0.24585   0.16630   0.00000  Uiso   1.00
C102   C     0.73476   0.16673   0.15472   0.00000  Uiso   1.00
C103   C     0.93191   0.16660   0.17861   0.00000  Uiso   1.00
C104   C     0.67949   0.16655   0.14818   0.00000  Uiso   1.00
C105   C     0.98718   0.16678   0.18515   0.00000  Uiso   1.00
C106   C     0.80514   0.02137   0.12991   0.00000  Uiso   1.00
C107   C     0.86152   0.31197   0.20342   0.00000  Uiso   1.00
C108   C     0.80539   0.31185   0.12940   0.00000  Uiso   1.00
Cu109  Cu    0.83333   0.16667   0.21355   0.00000  Uiso   1.00
Cu110  Cu    0.83333   0.16666   0.11978   0.00000  Uiso   1.00
H111   H     0.99313   0.16617   0.11263   0.00000  Uiso   1.00
H112   H     0.93835   0.26538   0.11372   0.00000  Uiso   1.00
H113   H     0.67353   0.16716   0.22070   0.00000  Uiso   1.00
H114   H     0.78290   0.03773   0.10148   0.00000  Uiso   1.00
H115   H     0.88377   0.29560   0.23185   0.00000  Uiso   1.00
H116   H     0.78277   0.29538   0.10101   0.00000  Uiso   1.00
H117   H     0.88390   0.03795   0.23232   0.00000  Uiso   1.00
H118   H     0.78564   0.11334   0.04172   0.00000  Uiso   1.00
H119   H     0.88102   0.21999   0.29162   0.00000  Uiso   1.00
H120   H     0.72831   0.06795   0.21961   0.00000  Uiso   1.00
N121   N     0.83335   0.16668   0.28403   0.00000  Uiso   1.00
N122   N     0.83332   0.16666   0.04931   0.00000  Uiso   1.00
O123   O     0.83333   0.10655   0.20625   0.00000  Uiso   1.00
O124   O     0.73378   0.07472   0.31430   0.00000  Uiso   1.00
O125   O     0.73932   0.09646   0.22957   0.00000  Uiso   1.00
O126   O     0.93289   0.25861   0.01904   0.00000  Uiso   1.00
O127   O     0.85535   0.27494   0.05150   0.00000  Uiso   1.00
O128   O     0.92735   0.23687   0.10377   0.00000  Uiso   1.00
O129   O     0.83334   0.22678   0.12709   0.00000  Uiso   1.00
O130   O     0.83333   0.10654   0.12706   0.00000  Uiso   1.00
O131   O     0.83334   0.22679   0.20628   0.00000  Uiso   1.00
O132   O     0.75828   0.16667   0.19712   0.00000  Uiso   1.00
O133   O     0.90839   0.16666   0.13621   0.00000  Uiso   1.00
O134   O     0.75828   0.16666   0.11793   0.00000  Uiso   1.00
O135   O     0.90839   0.16667   0.21540   0.00000  Uiso   1.00
O136   O     0.81131   0.05839   0.28183   0.00000  Uiso   1.00
S137   S     0.77224   0.09082   0.28293   0.00000  Uiso   1.00
S138   S     0.89443   0.24251   0.05040   0.00000  Uiso   1.00
C139   C     0.16655   0.42082   0.16704   0.00000  Uiso   1.00
C140   C     0.19461   0.35481   0.20393   0.00000  Uiso   1.00
C141   C     0.16716   0.62385   0.16600   0.00000  Uiso   1.00
C142   C     0.16618   0.37615   0.16733   0.00000  Uiso   1.00
C143   C     0.13959   0.47039   0.02349   0.00000  Uiso   1.00
C144   C     0.19374   0.52961   0.30985   0.00000  Uiso   1.00
C145   C     0.13890   0.46967   0.30767   0.00000  Uiso   1.00
C146   C     0.19443   0.53033   0.02566   0.00000  Uiso   1.00
C147   C     0.16679   0.57918   0.16630   0.00000  Uiso   1.00
C148   C     0.06809   0.50007   0.15472   0.00000  Uiso   1.00
C149   C     0.26524   0.49993   0.17861   0.00000  Uiso   1.00
C150   C     0.01282   0.49989   0.14818   0.00000  Uiso   1.00
C151   C     0.32052   0.50011   0.18515   0.00000  Uiso   1.00
C152   C     0.13848   0.35470   0.12991   0.00000  Uiso   1.00
C153   C     0.19486   0.64530   0.20342   0.00000  Uiso   1.00
C154   C     0.13872   0.64519   0.12940   0.00000  Uiso   1.00
Cu155  Cu    0.16667   0.50001   0.21355   0.00000  Uiso   1.00
Cu156  Cu    0.16667   0.49999   0.11978   0.00000  Uiso   1.00
H157   H     0.32647   0.49951   0.11263   0.00000  Uiso   1.00
H158   H     0.27169   0.59871   0.11372   0.00000  Uiso   1.00
H159   H     0.00687   0.50050   0.22070   0.00000  Uiso   1.00
H160   H     0.11623   0.37107   0.10148   0.00000  Uiso   1.00
H161   H     0.21710   0.62893   0.23185   0.00000  Uiso   1.00
H162   H     0.11610   0.62872   0.10101   0.00000  Uiso   1.00
H163   H     0.21723   0.37128   0.23232   0.00000  Uiso   1.00
H164   H     0.11898   0.44668   0.04172   0.00000  Uiso   1.00
H165   H     0.21436   0.55332   0.29162   0.00000  Uiso   1.00
H166   H     0.06164   0.40129   0.21961   0.00000  Uiso   1.00
N167   N     0.16668   0.50001   0.28403   0.00000  Uiso   1.00
N168   N     0.16665   0.49999   0.04931   0.00000  Uiso   1.00
O169   O     0.16666   0.43989   0.20625   0.00000  Uiso   1.00
O170   O     0.06711   0.40806   0.31430   0.00000  Uiso   1.00
O171   O     0.07265   0.42979   0.22957   0.00000  Uiso   1.00
O172   O     0.26622   0.59194   0.01904   0.00000  Uiso   1.00
O173   O     0.18869   0.60828   0.05150   0.00000  Uiso   1.00
O174   O     0.26068   0.57021   0.10377   0.00000  Uiso   1.00
O175   O     0.16667   0.56011   0.12709   0.00000  Uiso   1.00
O176   O     0.16666   0.43988   0.12706   0.00000  Uiso   1.00
O177   O     0.16667   0.56012   0.20628   0.00000  Uiso   1.00
O178   O     0.09161   0.50000   0.19712   0.00000  Uiso   1.00
O179   O     0.24172   0.50000   0.13621   0.00000  Uiso   1.00
O180   O     0.09161   0.49999   0.11793   0.00000  Uiso   1.00
O181   O     0.24172   0.50001   0.21540   0.00000  Uiso   1.00
O182   O     0.14465   0.39172   0.28183   0.00000  Uiso   1.00
S183   S     0.10557   0.42415   0.28293   0.00000  Uiso   1.00
S184   S     0.22776   0.57585   0.05040   0.00000  Uiso   1.00
C185   C     0.49988   0.42082   0.16704   0.00000  Uiso   1.00
C186   C     0.52794   0.35481   0.20393   0.00000  Uiso   1.00
C187   C     0.50049   0.62385   0.16600   0.00000  Uiso   1.00
C188   C     0.49951   0.37615   0.16733   0.00000  Uiso   1.00
C189   C     0.47292   0.47039   0.02349   0.00000  Uiso   1.00
C190   C     0.52708   0.52961   0.30985   0.00000  Uiso   1.00
C191   C     0.47223   0.46967   0.30767   0.00000  Uiso   1.00
C192   C     0.52777   0.53033   0.02566   0.00000  Uiso   1.00
C193   C     0.50012   0.57918   0.16630   0.00000  Uiso   1.00
C194   C     0.40142   0.50007   0.15472   0.00000  Uiso   1.00
C195   C     0.59858   0.49993   0.17861   0.00000  Uiso   1.00
C196   C     0.34615   0.49989   0.14818   0.00000  Uiso   1.00
C197   C     0.65385   0.50011   0.18515   0.00000  Uiso   1.00
C198   C     0.47181   0.35470   0.12991   0.00000  Uiso   1.00
C199   C     0.52819   0.64530   0.20342   0.00000  Uiso   1.00
C200   C     0.47206   0.64519   0.12940   0.00000  Uiso   1.00
Cu201  Cu    0.50000   0.50001   0.21355   0.00000  Uiso   1.00
Cu202  Cu    0.50000   0.49999   0.11978   0.00000  Uiso   1.00
H203   H     0.65980   0.49951   0.11263   0.00000  Uiso   1.00
H204   H     0.60502   0.59871   0.11372   0.00000  Uiso   1.00
H205   H     0.34020   0.50050   0.22070   0.00000  Uiso   1.00
H206   H     0.44957   0.37107   0.10148   0.00000  Uiso   1.00
H207   H     0.55043   0.62893   0.23185   0.00000  Uiso   1.00
H208   H     0.44943   0.62872   0.10101   0.00000  Uiso   1.00
H209   H     0.55057   0.37128   0.23232   0.00000  Uiso   1.00
H210   H     0.45231   0.44668   0.04172   0.00000  Uiso   1.00
H211   H     0.54769   0.55332   0.29162   0.00000  Uiso   1.00
H212   H     0.39497   0.40129   0.21961   0.00000  Uiso   1.00
N213   N     0.50001   0.50001   0.28403   0.00000  Uiso   1.00
N214   N     0.49999   0.49999   0.04931   0.00000  Uiso   1.00
O215   O     0.50000   0.43989   0.20625   0.00000  Uiso   1.00
O216   O     0.40045   0.40806   0.31430   0.00000  Uiso   1.00
O217   O     0.40599   0.42979   0.22957   0.00000  Uiso   1.00
O218   O     0.59955   0.59194   0.01904   0.00000  Uiso   1.00
O219   O     0.52202   0.60828   0.05150   0.00000  Uiso   1.00
O220   O     0.59401   0.57021   0.10377   0.00000  Uiso   1.00
O221   O     0.50000   0.56011   0.12709   0.00000  Uiso   1.00
O222   O     0.50000   0.43988   0.12706   0.00000  Uiso   1.00
O223   O     0.50000   0.56012   0.20628   0.00000  Uiso   1.00
O224   O     0.42495   0.50000   0.19712   0.00000  Uiso   1.00
O225   O     0.57505   0.50000   0.13621   0.00000  Uiso   1.00
O226   O     0.42494   0.49999   0.11793   0.00000  Uiso   1.00
O227   O     0.57506   0.50001   0.21540   0.00000  Uiso   1.00
O228   O     0.47798   0.39172   0.28183   0.00000  Uiso   1.00
S229   S     0.43891   0.42415   0.28293   0.00000  Uiso   1.00
S230   S     0.56109   0.57585   0.05040   0.00000  Uiso   1.00
C231   C     0.83321   0.42082   0.16704   0.00000  Uiso   1.00
C232   C     0.86128   0.35481   0.20393   0.00000  Uiso   1.00
C233   C     0.83382   0.62385   0.16600   0.00000  Uiso   1.00
C234   C     0.83284   0.37615   0.16733   0.00000  Uiso   1.00
C235   C     0.80626   0.47039   0.02349   0.00000  Uiso   1.00
C236   C     0.86041   0.52961   0.30985   0.00000  Uiso   1.00
C237   C     0.80557   0.46967   0.30767   0.00000  Uiso   1.00
C238   C     0.86110   0.53033   0.02566   0.00000  Uiso   1.00
C239   C     0.83345   0.57918   0.16630   0.00000  Uiso   1.00
C240   C     0.73476   0.50007   0.15472   0.00000  Uiso   1.00
C241   C     0.93191   0.49993   0.17861   0.00000  Uiso   1.00
C242   C     0.67949   0.49989   0.14818   0.00000  Uiso   1.00
C243   C     0.98718   0.50011   0.18515   0.00000  Uiso   1.00
C244   C     0.80514   0.35470   0.12991   0.00000  Uiso   1.00
C245   C     0.86152   0.64530   0.20342   0.00000  Uiso   1.00
C246   C     0.80539   0.64519   0.12940   0.00000  Uiso   1.00
Cu247  Cu    0.83333   0.50001   0.21355   0.00000  Uiso   1.00
Cu248  Cu    0.83333   0.49999   0.11978   0.00000  Uiso   1.00
H249   H     0.99313   0.49951   0.11263   0.00000  Uiso   1.00
H250   H     0.93835   0.59871   0.11372   0.00000  Uiso   1.00
H251   H     0.67353   0.50050   0.22070   0.00000  Uiso   1.00
H252   H     0.78290   0.37107   0.10148   0.00000  Uiso   1.00
H253   H     0.88377   0.62893   0.23185   0.00000  Uiso   1.00
H254   H     0.78277   0.62872   0.10101   0.00000  Uiso   1.00
H255   H     0.88390   0.37128   0.23232   0.00000  Uiso   1.00
H256   H     0.78564   0.44668   0.04172   0.00000  Uiso   1.00
H257   H     0.88102   0.55332   0.29162   0.00000  Uiso   1.00
H258   H     0.72831   0.40129   0.21961   0.00000  Uiso   1.00
N259   N     0.83335   0.50001   0.28403   0.00000  Uiso   1.00
N260   N     0.83332   0.49999   0.04931   0.00000  Uiso   1.00
O261   O     0.83333   0.43989   0.20625   0.00000  Uiso   1.00
O262   O     0.73378   0.40806   0.31430   0.00000  Uiso   1.00
O263   O     0.73932   0.42979   0.22957   0.00000  Uiso   1.00
O264   O     0.93289   0.59194   0.01904   0.00000  Uiso   1.00
O265   O     0.85535   0.60828   0.05150   0.00000  Uiso   1.00
O266   O     0.92735   0.57021   0.10377   0.00000  Uiso   1.00
O267   O     0.83334   0.56011   0.12709   0.00000  Uiso   1.00
O268   O     0.83333   0.43988   0.12706   0.00000  Uiso   1.00
O269   O     0.83334   0.56012   0.20628   0.00000  Uiso   1.00
O270   O     0.75828   0.50000   0.19712   0.00000  Uiso   1.00
O271   O     0.90839   0.50000   0.13621   0.00000  Uiso   1.00
O272   O     0.75828   0.49999   0.11793   0.00000  Uiso   1.00
O273   O     0.90839   0.50001   0.21540   0.00000  Uiso   1.00
O274   O     0.81131   0.39172   0.28183   0.00000  Uiso   1.00
S275   S     0.77224   0.42415   0.28293   0.00000  Uiso   1.00
S276   S     0.89443   0.57585   0.05040   0.00000  Uiso   1.00
C277   C     0.16655   0.75416   0.16704   0.00000  Uiso   1.00
C278   C     0.19461   0.68815   0.20393   0.00000  Uiso   1.00
C279   C     0.16716   0.95718   0.16600   0.00000  Uiso   1.00
C280   C     0.16618   0.70948   0.16733   0.00000  Uiso   1.00
C281   C     0.13959   0.80373   0.02349   0.00000  Uiso   1.00
C282   C     0.19374   0.86294   0.30985   0.00000  Uiso   1.00
C283   C     0.13890   0.80300   0.30767   0.00000  Uiso   1.00
C284   C     0.19443   0.86366   0.02566   0.00000  Uiso   1.00
C285   C     0.16679   0.91251   0.16630   0.00000  Uiso   1.00
C286   C     0.06809   0.83340   0.15472   0.00000  Uiso   1.00
C287   C     0.26524   0.83327   0.17861   0.00000  Uiso   1.00
C288   C     0.01282   0.83322   0.14818   0.00000  Uiso   1.00
C289   C     0.32052   0.83345   0.18515   0.00000  Uiso   1.00
C290   C     0.13848   0.68803   0.12991   0.00000  Uiso   1.00
C291   C     0.19486   0.97863   0.20342   0.00000  Uiso   1.00
C292   C     0.13872   0.97852   0.12940   0.00000  Uiso   1.00
Cu293  Cu    0.16667   0.83334   0.21355   0.00000  Uiso   1.00
Cu294  Cu    0.16667   0.83333   0.11978   0.00000  Uiso   1.00
H295   H     0.32647   0.83284   0.11263   0.00000  Uiso   1.00
H296   H     0.27169   0.93205   0.11372   0.00000  Uiso   1.00
H297   H     0.00687   0.83383   0.22070   0.00000  Uiso   1.00
H298   H     0.11623   0.70440   0.10148   0.00000  Uiso   1.00
H299   H     0.21710   0.96227   0.23185   0.00000  Uiso   1.00
H300   H     0.11610   0.96205   0.10101   0.00000  Uiso   1.00
H301   H     0.21723   0.70462   0.23232   0.00000  Uiso   1.00
H302   H     0.11898   0.78001   0.04172   0.00000  Uiso   1.00
H303   H     0.21436   0.88666   0.29162   0.00000  Uiso   1.00
H304   H     0.06164   0.73462   0.21961   0.00000  Uiso   1.00
N305   N     0.16668   0.83334   0.28403   0.00000  Uiso   1.00
N306   N     0.16665   0.83332   0.04931   0.00000  Uiso   1.00
O307   O     0.16666   0.77322   0.20625   0.00000  Uiso   1.00
O308   O     0.06711   0.74139   0.31430   0.00000  Uiso   1.00
O309   O     0.07265   0.76313   0.22957   0.00000  Uiso   1.00
O310   O     0.26622   0.92528   0.01904   0.00000  Uiso   1.00
O311   O     0.18869   0.94161   0.05150   0.00000  Uiso   1.00
O312   O     0.26068   0.90354   0.10377   0.00000  Uiso   1.00
O313   O     0.16667   0.89345   0.12709   0.00000  Uiso   1.00
O314   O     0.16666   0.77321   0.12706   0.00000  Uiso   1.00
O315   O     0.16667   0.89346   0.20628   0.00000  Uiso   1.00
O316   O     0.09161   0.83334   0.19712   0.00000  Uiso   1.00
O317   O     0.24172   0.83333   0.13621   0.00000  Uiso   1.00
O318   O     0.09161   0.83333   0.11793   0.00000  Uiso   1.00
O319   O     0.24172   0.83334   0.21540   0.00000  Uiso   1.00
O320   O     0.14465   0.72506   0.28183   0.00000  Uiso   1.00
S321   S     0.10557   0.75749   0.28293   0.00000  Uiso   1.00
S322   S     0.22776   0.90918   0.05040   0.00000  Uiso   1.00
C323   C     0.49988   0.75416   0.16704   0.00000  Uiso   1.00
C324   C     0.52794   0.68815   0.20393   0.00000  Uiso   1.00
C325   C     0.50049   0.95718   0.16600   0.00000  Uiso   1.00
C326   C     0.49951   0.70948   0.16733   0.00000  Uiso   1.00
C327   C     0.47292   0.80373   0.02349   0.00000  Uiso   1.00
C328   C     0.52708   0.86294   0.30985   0.00000  Uiso   1.00
C329   C     0.47223   0.80300   0.30767   0.00000  Uiso   1.00
C330   C     0.52777   0.86366   0.02566   0.00000  Uiso   1.00
C331   C     0.50012   0.91251   0.16630   0.00000  Uiso   1.00
C332   C     0.40142   0.83340   0.15472   0.00000  Uiso   1.00
C333   C     0.59858   0.83327   0.17861   0.00000  Uiso   1.00
C334   C     0.34615   0.83322   0.14818   0.00000  Uiso   1.00
C335   C     0.65385   0.83345   0.18515   0.00000  Uiso   1.00
C336   C     0.47181   0.68803   0.12991   0.00000  Uiso   1.00
C337   C     0.52819   0.97863   0.20342   0.00000  Uiso   1.00
C338   C     0.47206   0.97852   0.12940   0.00000  Uiso   1.00
Cu339  Cu    0.50000   0.83334   0.21355   0.00000  Uiso   1.00
Cu340  Cu    0.50000   0.83333   0.11978   0.00000  Uiso   1.00
H341   H     0.65980   0.83284   0.11263   0.00000  Uiso   1.00
H342   H     0.60502   0.93205   0.11372   0.00000  Uiso   1.00
H343   H     0.34020   0.83383   0.22070   0.00000  Uiso   1.00
H344   H     0.44957   0.70440   0.10148   0.00000  Uiso   1.00
H345   H     0.55043   0.96227   0.23185   0.00000  Uiso   1.00
H346   H     0.44943   0.96205   0.10101   0.00000  Uiso   1.00
H347   H     0.55057   0.70462   0.23232   0.00000  Uiso   1.00
H348   H     0.45231   0.78001   0.04172   0.00000  Uiso   1.00
H349   H     0.54769   0.88666   0.29162   0.00000  Uiso   1.00
H350   H     0.39497   0.73462   0.21961   0.00000  Uiso   1.00
N351   N     0.50001   0.83334   0.28403   0.00000  Uiso   1.00
N352   N     0.49999   0.83332   0.04931   0.00000  Uiso   1.00
O353   O     0.50000   0.77322   0.20625   0.00000  Uiso   1.00
O354   O     0.40045   0.74139   0.31430   0.00000  Uiso   1.00
O355   O     0.40599   0.76313   0.22957   0.00000  Uiso   1.00
O356   O     0.59955   0.92528   0.01904   0.00000  Uiso   1.00
O357   O     0.52202   0.94161   0.05150   0.00000  Uiso   1.00
O358   O     0.59401   0.90354   0.10377   0.00000  Uiso   1.00
O359   O     0.50000   0.89345   0.12709   0.00000  Uiso   1.00
O360   O     0.50000   0.77321   0.12706   0.00000  Uiso   1.00
O361   O     0.50000   0.89346   0.20628   0.00000  Uiso   1.00
O362   O     0.42495   0.83334   0.19712   0.00000  Uiso   1.00
O363   O     0.57505   0.83333   0.13621   0.00000  Uiso   1.00
O364   O     0.42494   0.83333   0.11793   0.00000  Uiso   1.00
O365   O     0.57506   0.83334   0.21540   0.00000  Uiso   1.00
O366   O     0.47798   0.72506   0.28183   0.00000  Uiso   1.00
S367   S     0.43891   0.75749   0.28293   0.00000  Uiso   1.00
S368   S     0.56109   0.90918   0.05040   0.00000  Uiso   1.00
C369   C     0.83321   0.75416   0.16704   0.00000  Uiso   1.00
C370   C     0.86128   0.68815   0.20393   0.00000  Uiso   1.00
C371   C     0.83382   0.95718   0.16600   0.00000  Uiso   1.00
C372   C     0.83284   0.70948   0.16733   0.00000  Uiso   1.00
C373   C     0.80626   0.80373   0.02349   0.00000  Uiso   1.00
C374   C     0.86041   0.86294   0.30985   0.00000  Uiso   1.00
C375   C     0.80557   0.80300   0.30767   0.00000  Uiso   1.00
C376   C     0.86110   0.86366   0.02566   0.00000  Uiso   1.00
C377   C     0.83345   0.91251   0.16630   0.00000  Uiso   1.00
C378   C     0.73476   0.83340   0.15472   0.00000  Uiso   1.00
C379   C     0.93191   0.83327   0.17861   0.00000  Uiso   1.00
C380   C     0.67949   0.83322   0.14818   0.00000  Uiso   1.00
C381   C     0.98718   0.83345   0.18515   0.00000  Uiso   1.00
C382   C     0.80514   0.68803   0.12991   0.00000  Uiso   1.00
C383   C     0.86152   0.97863   0.20342   0.00000  Uiso   1.00
C384   C     0.80539   0.97852   0.12940   0.00000  Uiso   1.00
Cu385  Cu    0.83333   0.83334   0.21355   0.00000  Uiso   1.00
Cu386  Cu    0.83333   0.83333   0.11978   0.00000  Uiso   1.00
H387   H     0.99313   0.83284   0.11263   0.00000  Uiso   1.00
H388   H     0.93835   0.93205   0.11372   0.00000  Uiso   1.00
H389   H     0.67353   0.83383   0.22070   0.00000  Uiso   1.00
H390   H     0.78290   0.70440   0.10148   0.00000  Uiso   1.00
H391   H     0.88377   0.96227   0.23185   0.00000  Uiso   1.00
H392   H     0.78277   0.96205   0.10101   0.00000  Uiso   1.00
H393   H     0.88390   0.70462   0.23232   0.00000  Uiso   1.00
H394   H     0.78564   0.78001   0.04172   0.00000  Uiso   1.00
H395   H     0.88102   0.88666   0.29162   0.00000  Uiso   1.00
H396   H     0.72831   0.73462   0.21961   0.00000  Uiso   1.00
N397   N     0.83335   0.83334   0.28403   0.00000  Uiso   1.00
N398   N     0.83332   0.83332   0.04931   0.00000  Uiso   1.00
O399   O     0.83333   0.77322   0.20625   0.00000  Uiso   1.00
O400   O     0.73378   0.74139   0.31430   0.00000  Uiso   1.00
O401   O     0.73932   0.76313   0.22957   0.00000  Uiso   1.00
O402   O     0.93289   0.92528   0.01904   0.00000  Uiso   1.00
O403   O     0.85535   0.94161   0.05150   0.00000  Uiso   1.00
O404   O     0.92735   0.90354   0.10377   0.00000  Uiso   1.00
O405   O     0.83334   0.89345   0.12709   0.00000  Uiso   1.00
O406   O     0.83333   0.77321   0.12706   0.00000  Uiso   1.00
O407   O     0.83334   0.89346   0.20628   0.00000  Uiso   1.00
O408   O     0.75828   0.83334   0.19712   0.00000  Uiso   1.00
O409   O     0.90839   0.83333   0.13621   0.00000  Uiso   1.00
O410   O     0.75828   0.83333   0.11793   0.00000  Uiso   1.00
O411   O     0.90839   0.83334   0.21540   0.00000  Uiso   1.00
O412   O     0.81131   0.72506   0.28183   0.00000  Uiso   1.00
S413   S     0.77224   0.75749   0.28293   0.00000  Uiso   1.00
S414   S     0.89443   0.90918   0.05040   0.00000  Uiso   1.00
C415   C     0.16655   0.08749   0.50037   0.00000  Uiso   1.00
C416   C     0.19461   0.02148   0.53727   0.00000  Uiso   1.00
C417   C     0.16716   0.29052   0.49933   0.00000  Uiso   1.00
C418   C     0.16618   0.04282   0.50067   0.00000  Uiso   1.00
C419   C     0.13959   0.13706   0.35682   0.00000  Uiso   1.00
C420   C     0.19374   0.19628   0.64318   0.00000  Uiso   1.00
C421   C     0.13890   0.13634   0.64101   0.00000  Uiso   1.00
C422   C     0.19443   0.19700   0.35899   0.00000  Uiso   1.00
C423   C     0.16679   0.24585   0.49963   0.00000  Uiso   1.00
C424   C     0.06809   0.16673   0.48806   0.00000  Uiso   1.00
C425   C     0.26524   0.16660   0.51194   0.00000  Uiso   1.00
C426   C     0.01282   0.16655   0.48151   0.00000  Uiso   1.00
C427   C     0.32052   0.16678   0.51849   0.00000  Uiso   1.00
C428   C     0.13848   0.02137   0.46325   0.00000  Uiso   1.00
C429   C     0.19486   0.31197   0.53675   0.00000  Uiso   1.00
C430   C     0.13872   0.31185   0.46273   0.00000  Uiso   1.00
Cu431  Cu    0.16667   0.16667   0.54689   0.00000  Uiso   1.00
Cu432  Cu    0.16667   0.16666   0.45311   0.00000  Uiso   1.00
H433   H     0.32647   0.16617   0.44597   0.00000  Uiso   1.00
H434   H     0.27169   0.26538   0.44706   0.00000  Uiso   1.00
H435   H     0.00687   0.16716   0.55403   0.00000  Uiso   1.00
H436   H     0.11623   0.03773   0.43481   0.00000  Uiso   1.00
H437   H     0.21710   0.29560   0.56519   0.00000  Uiso   1.00
H438   H     0.11610   0.29538   0.43435   0.00000  Uiso   1.00
H439   H     0.21723   0.03795   0.56565   0.00000  Uiso   1.00
H440   H     0.11898   0.11334   0.37505   0.00000  Uiso   1.00
H441   H     0.21436   0.21999   0.62495   0.00000  Uiso   1.00
H442   H     0.06164   0.06795   0.55295   0.00000  Uiso   1.00
N443   N     0.16668   0.16668   0.61736   0.00000  Uiso   1.00
N444   N     0.16665   0.16666   0.38264   0.00000  Uiso   1.00
O445   O     0.16666   0.10655   0.53958   0.00000  Uiso   1.00
O446   O     0.06711   0.07472   0.64763   0.00000  Uiso   1.00
O447   O     0.07265   0.09646   0.56290   0.00000  Uiso   1.00
O448   O     0.26622   0.25861   0.35237   0.00000  Uiso   1.00
O449   O     0.18869   0.27494   0.38483   0.00000  Uiso   1.00
O450   O     0.26068   0.23687   0.43710   0.00000  Uiso   1.00
O451   O     0.16667   0.22678   0.46042   0.00000  Uiso   1.00
O452   O     0.16666   0.10654   0.46039   0.00000  Uiso   1.00
O453   O     0.16667   0.22679   0.53961   0.00000  Uiso   1.00
O454   O     0.09161   0.16667   0.53046   0.00000  Uiso   1.00
O455   O     0.24172   0.16666   0.46954   0.00000  Uiso   1.00
O456   O     0.09161   0.16666   0.45127   0.00000  Uiso   1.00
O457   O     0.24172   0.16667   0.54873   0.00000  Uiso   1.00
O458   O     0.14465   0.05839   0.61517   0.00000  Uiso   1.00
S459   S     0.10557   0.09082   0.61626   0.00000  Uiso   1.00
S460   S     0.22776   0.24251   0.38374   0.00000  Uiso   1.00
C461   C     0.49988   0.08749   0.50037   0.00000  Uiso   1.00
C462   C     0.52794   0.02148   0.53727   0.00000  Uiso   1.00
C463   C     0.50049   0.29052   0.49933   0.00000  Uiso   1.00
C464   C     0.49951   0.04282   0.50067   0.00000  Uiso   1.00
C465   C     0.47292   0.13706   0.35682   0.00000  Uiso   1.00
C466   C     0.52708   0.19628   0.64318   0.00000  Uiso   1.00
C467   C     0.47223   0.13634   0.64101   0.00000  Uiso   1.00
C468   C     0.52777   0.19700   0.35899   0.00000  Uiso   1.00
C469   C     0.50012   0.24585   0.49963   0.00000  Uiso   1.00
C470   C     0.40142   0.16673   0.48806   0.00000  Uiso   1.00
C471   C     0.59858   0.16660   0.51194   0.00000  Uiso   1.00
C472   C     0.34615   0.16655   0.48151   0.00000  Uiso   1.00
C473   C     0.65385   0.16678   0.51849   0.00000  Uiso   1.00
C474   C     0.47181   0.02137   0.46325   0.00000  Uiso   1.00
C475   C     0.52819   0.31197   0.53675   0.00000  Uiso   1.00
C476   C     0.47206   0.31185   0.46273   0.00000  Uiso   1.00
Cu477  Cu    0.50000   0.16667   0.54689   0.00000  Uiso   1.00
Cu478  Cu    0.50000   0.16666   0.45311   0.00000  Uiso   1.00
H479   H     0.65980   0.16617   0.44597   0.00000  Uiso   1.00
H480   H     0.60502   0.26538   0.44706   0.00000  Uiso   1.00
H481   H     0.34020   0.16716   0.55403   0.00000  Uiso   1.00
H482   H     0.44957   0.03773   0.43481   0.00000  Uiso   1.00
H483   H     0.55043   0.29560   0.56519   0.00000  Uiso   1.00
H484   H     0.44943   0.29538   0.43435   0.00000  Uiso   1.00
H485   H     0.55057   0.03795   0.56565   0.00000  Uiso   1.00
H486   H     0.45231   0.11334   0.37505   0.00000  Uiso   1.00
H487   H     0.54769   0.21999   0.62495   0.00000  Uiso   1.00
H488   H     0.39497   0.06795   0.55295   0.00000  Uiso   1.00
N489   N     0.50001   0.16668   0.61736   0.00000  Uiso   1.00
N490   N     0.49999   0.16666   0.38264   0.00000  Uiso   1.00
O491   O     0.50000   0.10655   0.53958   0.00000  Uiso   1.00
O492   O     0.40045   0.07472   0.64763   0.00000  Uiso   1.00
O493   O     0.40599   0.09646   0.56290   0.00000  Uiso   1.00
O494   O     0.59955   0.25861   0.35237   0.00000  Uiso   1.00
O495   O     0.52202   0.27494   0.38483   0.00000  Uiso   1.00
O496   O     0.59401   0.23687   0.43710   0.00000  Uiso   1.00
O497   O     0.50000   0.22678   0.46042   0.00000  Uiso   1.00
O498   O     0.50000   0.10654   0.46039   0.00000  Uiso   1.00
O499   O     0.50000   0.22679   0.53961   0.00000  Uiso   1.00
O500   O     0.42495   0.16667   0.53046   0.00000  Uiso   1.00
O501   O     0.57505   0.16666   0.46954   0.00000  Uiso   1.00
O502   O     0.42494   0.16666   0.45127   0.00000  Uiso   1.00
O503   O     0.57506   0.16667   0.54873   0.00000  Uiso   1.00
O504   O     0.47798   0.05839   0.61517   0.00000  Uiso   1.00
S505   S     0.43891   0.09082   0.61626   0.00000  Uiso   1.00
S506   S     0.56109   0.24251   0.38374   0.00000  Uiso   1.00
C507   C     0.83321   0.08749   0.50037   0.00000  Uiso   1.00
C508   C     0.86128   0.02148   0.53727   0.00000  Uiso   1.00
C509   C     0.83382   0.29052   0.49933   0.00000  Uiso   1.00
C510   C     0.83284   0.04282   0.50067   0.00000  Uiso   1.00
C511   C     0.80626   0.13706   0.35682   0.00000  Uiso   1.00
C512   C     0.86041   0.19628   0.64318   0.00000  Uiso   1.00
C513   C     0.80557   0.13634   0.64101   0.00000  Uiso   1.00
C514   C     0.86110   0.19700   0.35899   0.00000  Uiso   1.00
C515   C     0.83345   0.24585   0.49963   0.00000  Uiso   1.00
C516   C     0.73476   0.16673   0.48806   0.00000  Uiso   1.00
C517   C     0.93191   0.16660   0.51194   0.00000  Uiso   1.00
C518   C     0.67949   0.16655   0.48151   0.00000  Uiso   1.00
C519   C     0.98718   0.16678   0.51849   0.00000  Uiso   1.00
C520   C     0.80514   0.02137   0.46325   0.00000  Uiso   1.00
C521   C     0.86152   0.31197   0.53675   0.00000  Uiso   1.00
C522   C     0.80539   0.31185   0.46273   0.00000  Uiso   1.00
Cu523  Cu    0.83333   0.16667   0.54689   0.00000  Uiso   1.00
Cu524  Cu    0.83333   0.16666   0.45311   0.00000  Uiso   1.00
H525   H     0.99313   0.16617   0.44597   0.00000  Uiso   1.00
H526   H     0.93835   0.26538   0.44706   0.00000  Uiso   1.00
H527   H     0.67353   0.16716   0.55403   0.00000  Uiso   1.00
H528   H     0.78290   0.03773   0.43481   0.00000  Uiso   1.00
H529   H     0.88377   0.29560   0.56519   0.00000  Uiso   1.00
H530   H     0.78277   0.29538   0.43435   0.00000  Uiso   1.00
H531   H     0.88390   0.03795   0.56565   0.00000  Uiso   1.00
H532   H     0.78564   0.11334   0.37505   0.00000  Uiso   1.00
H533   H     0.88102   0.21999   0.62495   0.00000  Uiso   1.00
H534   H     0.72831   0.06795   0.55295   0.00000  Uiso   1.00
N535   N     0.83335   0.16668   0.61736   0.00000  Uiso   1.00
N536   N     0.83332   0.16666   0.38264   0.00000  Uiso   1.00
O537   O     0.83333   0.10655   0.53958   0.00000  Uiso   1.00
O538   O     0.73378   0.07472   0.64763   0.00000  Uiso   1.00
O539   O     0.73932   0.09646   0.56290   0.00000  Uiso   1.00
O540   O     0.93289   0.25861   0.35237   0.00000  Uiso   1.00
O541   O     0.85535   0.27494   0.38483   0.00000  Uiso   1.00
O542   O     0.92735   0.23687   0.43710   0.00000  Uiso   1.00
O543   O     0.83334   0.22678   0.46042   0.00000  Uiso   1.00
O544   O     0.83333   0.10654   0.46039   0.00000  Uiso   1.00
O545   O     0.83334   0.22679   0.53961   0.00000  Uiso   1.00
O546   O     0.75828   0.16667   0.53046   0.00000  Uiso   1.00
O547   O     0.90839   0.16666   0.46954   0.00000  Uiso   1.00
O548   O     0.75828   0.16666   0.45127   0.00000  Uiso   1.00
O549   O     0.90839   0.16667   0.54873   0.00000  Uiso   1.00
O550   O     0.81131   0.05839   0.61517   0.00000  Uiso   1.00
S551   S     0.77224   0.09082   0.61626   0.00000  Uiso   1.00
S552   S     0.89443   0.24251   0.38374   0.00000  Uiso   1.00
C553   C     0.16655   0.42082   0.50037   0.00000  Uiso   1.00
C554   C     0.19461   0.35481   0.53727   0.00000  Uiso   1.00
C555   C     0.16716   0.62385   0.49933   0.00000  Uiso   1.00
C556   C     0.16618   0.37615   0.50067   0.00000  Uiso   1.00
C557   C     0.13959   0.47039   0.35682   0.00000  Uiso   1.00
C558   C     0.19374   0.52961   0.64318   0.00000  Uiso   1.00
C559   C     0.13890   0.46967   0.64101   0.00000  Uiso   1.00
C560   C     0.19443   0.53033   0.35899   0.00000  Uiso   1.00
C561   C     0.16679   0.57918   0.49963   0.00000  Uiso   1.00
C562   C     0.06809   0.50007   0.48806   0.00000  Uiso   1.00
C563   C     0.26524   0.49993   0.51194   0.00000  Uiso   1.00
C564   C     0.01282   0.49989   0.48151   0.00000  Uiso   1.00
C565   C     0.32052   0.50011   0.51849   0.00000  Uiso   1.00
C566   C     0.13848   0.35470   0.46325   0.00000  Uiso   1.00
C567   C     0.19486   0.64530   0.53675   0.00000  Uiso   1.00
C568   C     0.13872   0.64519   0.46273   0.00000  Uiso   1.00
Cu569  Cu    0.16667   0.50001   0.54689   0.00000  Uiso   1.00
Cu570  Cu    0.16667   0.49999   0.45311   0.00000  Uiso   1.00
H571   H     0.32647   0.49951   0.44597   0.00000  Uiso   1.00
H572   H     0.27169   0.59871   0.44706   0.00000  Uiso   1.00
H573   H     0.00687   0.50050   0.55403   0.00000  Uiso   1.00
H574   H     0.11623   0.37107   0.43481   0.00000  Uiso   1.00
H575   H     0.21710   0.62893   0.56519   0.00000  Uiso   1.00
H576   H     0.11610   0.62872   0.43435   0.00000  Uiso   1.00
H577   H     0.21723   0.37128   0.56565   0.00000  Uiso   1.00
H578   H     0.11898   0.44668   0.37505   0.00000  Uiso   1.00
H579   H     0.21436   0.55332   0.62495   0.00000  Uiso   1.00
H580   H     0.06164   0.40129   0.55295   0.00000  Uiso   1.00
N581   N     0.16668   0.50001   0.61736   0.00000  Uiso   1.00
N582   N     0.16665   0.49999   0.38264   0.00000  Uiso   1.00
O583   O     0.16666   0.43989   0.53958   0.00000  Uiso   1.00
O584   O     0.06711   0.40806   0.64763   0.00000  Uiso   1.00
O585   O     0.07265   0.42979   0.56290   0.00000  Uiso   1.00
O586   O     0.26622   0.59194   0.35237   0.00000  Uiso   1.00
O587   O     0.18869   0.60828   0.38483   0.00000  Uiso   1.00
O588   O     0.26068   0.57021   0.43710   0.00000  Uiso   1.00
O589   O     0.16667   0.56011   0.46042   0.00000  Uiso   1.00
O590   O     0.16666   0.43988   0.46039   0.00000  Uiso   1.00
O591   O     0.16667   0.56012   0.53961   0.00000  Uiso   1.00
O592   O     0.09161   0.50000   0.53046   0.00000  Uiso   1.00
O593   O     0.24172   0.50000   0.46954   0.00000  Uiso   1.00
O594   O     0.09161   0.49999   0.45127   0.00000  Uiso   1.00
O595   O     0.24172   0.50001   0.54873   0.00000  Uiso   1.00
O596   O     0.14465   0.39172   0.61517   0.00000  Uiso   1.00
S597   S     0.10557   0.42415   0.61626   0.00000  Uiso   1.00
S598   S     0.22776   0.57585   0.38374   0.00000  Uiso   1.00
C599   C     0.49988   0.42082   0.50037   0.00000  Uiso   1.00
C600   C     0.52794   0.35481   0.53727   0.00000  Uiso   1.00
C601   C     0.50049   0.62385   0.49933   0.00000  Uiso   1.00
C602   C     0.49951   0.37615   0.50067   0.00000  Uiso   1.00
C603   C     0.47292   0.47039   0.35682   0.00000  Uiso   1.00
C604   C     0.52708   0.52961   0.64318   0.00000  Uiso   1.00
C605   C     0.47223   0.46967   0.64101   0.00000  Uiso   1.00
C606   C     0.52777   0.53033   0.35899   0.00000  Uiso   1.00
C607   C     0.50012   0.57918   0.49963   0.00000  Uiso   1.00
C608   C     0.40142   0.50007   0.48806   0.00000  Uiso   1.00
C609   C     0.59858   0.49993   0.51194   0.00000  Uiso   1.00
C610   C     0.34615   0.49989   0.48151   0.00000  Uiso   1.00
C611   C     0.65385   0.50011   0.51849   0.00000  Uiso   1.00
C612   C     0.47181   0.35470   0.46325   0.00000  Uiso   1.00
C613   C     0.52819   0.64530   0.53675   0.00000  Uiso   1.00
C614   C     0.47206   0.64519   0.46273   0.00000  Uiso   1.00
Cu615  Cu    0.50000   0.50001   0.54689   0.00000  Uiso   1.00
Cu616  Cu    0.50000   0.49999   0.45311   0.00000  Uiso   1.00
H617   H     0.65980   0.49951   0.44597   0.00000  Uiso   1.00
H618   H     0.60502   0.59871   0.44706   0.00000  Uiso   1.00
H619   H     0.34020   0.50050   0.55403   0.00000  Uiso   1.00
H620   H     0.44957   0.37107   0.43481   0.00000  Uiso   1.00
H621   H     0.55043   0.62893   0.56519   0.00000  Uiso   1.00
H622   H     0.44943   0.62872   0.43435   0.00000  Uiso   1.00
H623   H     0.55057   0.37128   0.56565   0.00000  Uiso   1.00
H624   H     0.45231   0.44668   0.37505   0.00000  Uiso   1.00
H625   H     0.54769   0.55332   0.62495   0.00000  Uiso   1.00
H626   H     0.39497   0.40129   0.55295   0.00000  Uiso   1.00
N627   N     0.50001   0.50001   0.61736   0.00000  Uiso   1.00
N628   N     0.49999   0.49999   0.38264   0.00000  Uiso   1.00
O629   O     0.50000   0.43989   0.53958   0.00000  Uiso   1.00
O630   O     0.40045   0.40806   0.64763   0.00000  Uiso   1.00
O631   O     0.40599   0.42979   0.56290   0.00000  Uiso   1.00
O632   O     0.59955   0.59194   0.35237   0.00000  Uiso   1.00
O633   O     0.52202   0.60828   0.38483   0.00000  Uiso   1.00
O634   O     0.59401   0.57021   0.43710   0.00000  Uiso   1.00
O635   O     0.50000   0.56011   0.46042   0.00000  Uiso   1.00
O636   O     0.50000   0.43988   0.46039   0.00000  Uiso   1.00
O637   O     0.50000   0.56012   0.53961   0.00000  Uiso   1.00
O638   O     0.42495   0.50000   0.53046   0.00000  Uiso   1.00
O639   O     0.57505   0.50000   0.46954   0.00000  Uiso   1.00
O640   O     0.42494   0.49999   0.45127   0.00000  Uiso   1.00
O641   O     0.57506   0.50001   0.54873   0.00000  Uiso   1.00
O642   O     0.47798   0.39172   0.61517   0.00000  Uiso   1.00
S643   S     0.43891   0.42415   0.61626   0.00000  Uiso   1.00
S644   S     0.56109   0.57585   0.38374   0.00000  Uiso   1.00
C645   C     0.83321   0.42082   0.50037   0.00000  Uiso   1.00
C646   C     0.86128   0.35481   0.53727   0.00000  Uiso   1.00
C647   C     0.83382   0.62385   0.49933   0.00000  Uiso   1.00
C648   C     0.83284   0.37615   0.50067   0.00000  Uiso   1.00
C649   C     0.80626   0.47039   0.35682   0.00000  Uiso   1.00
C650   C     0.86041   0.52961   0.64318   0.00000  Uiso   1.00
C651   C     0.80557   0.46967   0.64101   0.00000  Uiso   1.00
C652   C     0.86110   0.53033   0.35899   0.00000  Uiso   1.00
C653   C     0.83345   0.57918   0.49963   0.00000  Uiso   1.00
C654   C     0.73476   0.50007   0.48806   0.00000  Uiso   1.00
C655   C     0.93191   0.49993   0.51194   0.00000  Uiso   1.00
C656   C     0.67949   0.49989   0.48151   0.00000  Uiso   1.00
C657   C     0.98718   0.50011   0.51849   0.00000  Uiso   1.00
C658   C     0.80514   0.35470   0.46325   0.00000  Uiso   1.00
C659   C     0.86152   0.64530   0.53675   0.00000  Uiso   1.00
C660   C     0.80539   0.64519   0.46273   0.00000  Uiso   1.00
Cu661  Cu    0.83333   0.50001   0.54689   0.00000  Uiso   1.00
Cu662  Cu    0.83333   0.49999   0.45311   0.00000  Uiso   1.00
H663   H     0.99313   0.49951   0.44597   0.00000  Uiso   1.00
H664   H     0.93835   0.59871   0.44706   0.00000  Uiso   1.00
H665   H     0.67353   0.50050   0.55403   0.00000  Uiso   1.00
H666   H     0.78290   0.37107   0.43481   0.00000  Uiso   1.00
H667   H     0.88377   0.62893   0.56519   0.00000  Uiso   1.00
H668   H     0.78277   0.62872   0.43435   0.00000  Uiso   1.00
H669   H     0.88390   0.37128   0.56565   0.00000  Uiso   1.00
H670   H     0.78564   0.44668   0.37505   0.00000  Uiso   1.00
H671   H     0.88102   0.55332   0.62495   0.00000  Uiso   1.00
H672   H     0.72831   0.40129   0.55295   0.00000  Uiso   1.00
N673   N     0.83335   0.50001   0.61736   0.00000  Uiso   1.00
N674   N     0.83332   0.49999   0.38264   0.00000  Uiso   1.00
O675   O     0.83333   0.43989   0.53958   0.00000  Uiso   1.00
O676   O     0.73378   0.40806   0.64763   0.00000  Uiso   1.00
O677   O     0.73932   0.42979   0.56290   0.00000  Uiso   1.00
O678   O     0.93289   0.59194   0.35237   0.00000  Uiso   1.00
O679   O     0.85535   0.60828   0.38483   0.00000  Uiso   1.00
O680   O     0.92735   0.57021   0.43710   0.00000  Uiso   1.00
O681   O     0.83334   0.56011   0.46042   0.00000  Uiso   1.00
O682   O     0.83333   0.43988   0.46039   0.00000  Uiso   1.00
O683   O     0.83334   0.56012   0.53961   0.00000  Uiso   1.00
O684   O     0.75828   0.50000   0.53046   0.00000  Uiso   1.00
O685   O     0.90839   0.50000   0.46954   0.00000  Uiso   1.00
O686   O     0.75828   0.49999   0.45127   0.00000  Uiso   1.00
O687   O     0.90839   0.50001   0.54873   0.00000  Uiso   1.00
O688   O     0.81131   0.39172   0.61517   0.00000  Uiso   1.00
S689   S     0.77224   0.42415   0.61626   0.00000  Uiso   1.00
S690   S     0.89443   0.57585   0.38374   0.00000  Uiso   1.00
C691   C     0.16655   0.75416   0.50037   0.00000  Uiso   1.00
C692   C     0.19461   0.68815   0.53727   0.00000  Uiso   1.00
C693   C     0.16716   0.95718   0.49933   0.00000  Uiso   1.00
C694   C     0.16618   0.70948   0.50067   0.00000  Uiso   1.00
C695   C     0.13959   0.80373   0.35682   0.00000  Uiso   1.00
C696   C     0.19374   0.86294   0.64318   0.00000  Uiso   1.00
C697   C     0.13890   0.80300   0.64101   0.00000  Uiso   1.00
C698   C     0.19443   0.86366   0.35899   0.00000  Uiso   1.00
C699   C     0.16679   0.91251   0.49963   0.00000  Uiso   1.00
C700   C     0.06809   0.83340   0.48806   0.00000  Uiso   1.00
C701   C     0.26524   0.83327   0.51194   0.00000  Uiso   1.00
C702   C     0.01282   0.83322   0.48151   0.00000  Uiso   1.00
C703   C     0.32052   0.83345   0.51849   0.00000  Uiso   1.00
C704   C     0.13848   0.68803   0.46325   0.00000  Uiso   1.00
C705   C     0.19486   0.97863   0.53675   0.00000  Uiso   1.00
C706   C     0.13872   0.97852   0.46273   0.00000  Uiso   1.00
Cu707  Cu    0.16667   0.83334   0.54689   0.00000  Uiso   1.00
Cu708  Cu    0.16667   0.83333   0.45311   0.00000  Uiso   1.00
H709   H     0.32647   0.83284   0.44597   0.00000  Uiso   1.00
H710   H     0.27169   0.93205   0.44706   0.00000  Uiso   1.00
H711   H     0.00687   0.83383   0.55403   0.00000  Uiso   1.00
H712   H     0.11623   0.70440   0.43481   0.00000  Uiso   1.00
H713   H     0.21710   0.96227   0.56519   0.00000  Uiso   1.00
H714   H     0.11610   0.96205   0.43435   0.00000  Uiso   1.00
H715   H     0.21723   0.70462   0.56565   0.00000  Uiso   1.00
H716   H     0.11898   0.78001   0.37505   0.00000  Uiso   1.00
H717   H     0.21436   0.88666   0.62495   0.00000  Uiso   1.00
H718   H     0.06164   0.73462   0.55295   0.00000  Uiso   1.00
N719   N     0.16668   0.83334   0.61736   0.00000  Uiso   1.00
N720   N     0.16665   0.83332   0.38264   0.00000  Uiso   1.00
O721   O     0.16666   0.77322   0.53958   0.00000  Uiso   1.00
O722   O     0.06711   0.74139   0.64763   0.00000  Uiso   1.00
O723   O     0.07265   0.76313   0.56290   0.00000  Uiso   1.00
O724   O     0.26622   0.92528   0.35237   0.00000  Uiso   1.00
O725   O     0.18869   0.94161   0.38483   0.00000  Uiso   1.00
O726   O     0.26068   0.90354   0.43710   0.00000  Uiso   1.00
O727   O     0.16667   0.89345   0.46042   0.00000  Uiso   1.00
O728   O     0.16666   0.77321   0.46039   0.00000  Uiso   1.00
O729   O     0.16667   0.89346   0.53961   0.00000  Uiso   1.00
O730   O     0.09161   0.83334   0.53046   0.00000  Uiso   1.00
O731   O     0.24172   0.83333   0.46954   0.00000  Uiso   1.00
O732   O     0.09161   0.83333   0.45127   0.00000  Uiso   1.00
O733   O     0.24172   0.83334   0.54873   0.00000  Uiso   1.00
O734   O     0.14465   0.72506   0.61517   0.00000  Uiso   1.00
S735   S     0.10557   0.75749   0.61626   0.00000  Uiso   1.00
S736   S     0.22776   0.90918   0.38374   0.00000  Uiso   1.00
C737   C     0.49988   0.75416   0.50037   0.00000  Uiso   1.00
C738   C     0.52794   0.68815   0.53727   0.00000  Uiso   1.00
C739   C     0.50049   0.95718   0.49933   0.00000  Uiso   1.00
C740   C     0.49951   0.70948   0.50067   0.00000  Uiso   1.00
C741   C     0.47292   0.80373   0.35682   0.00000  Uiso   1.00
C742   C     0.52708   0.86294   0.64318   0.00000  Uiso   1.00
C743   C     0.47223   0.80300   0.64101   0.00000  Uiso   1.00
C744   C     0.52777   0.86366   0.35899   0.00000  Uiso   1.00
C745   C     0.50012   0.91251   0.49963   0.00000  Uiso   1.00
C746   C     0.40142   0.83340   0.48806   0.00000  Uiso   1.00
C747   C     0.59858   0.83327   0.51194   0.00000  Uiso   1.00
C748   C     0.34615   0.83322   0.48151   0.00000  Uiso   1.00
C749   C     0.65385   0.83345   0.51849   0.00000  Uiso   1.00
C750   C     0.47181   0.68803   0.46325   0.00000  Uiso   1.00
C751   C     0.52819   0.97863   0.53675   0.00000  Uiso   1.00
C752   C     0.47206   0.97852   0.46273   0.00000  Uiso   1.00
Cu753  Cu    0.50000   0.83334   0.54689   0.00000  Uiso   1.00
Cu754  Cu    0.50000   0.83333   0.45311   0.00000  Uiso   1.00
H755   H     0.65980   0.83284   0.44597   0.00000  Uiso   1.00
H756   H     0.60502   0.93205   0.44706   0.00000  Uiso   1.00
H757   H     0.34020   0.83383   0.55403   0.00000  Uiso   1.00
H758   H     0.44957   0.70440   0.43481   0.00000  Uiso   1.00
H759   H     0.55043   0.96227   0.56519   0.00000  Uiso   1.00
H760   H     0.44943   0.96205   0.43435   0.00000  Uiso   1.00
H761   H     0.55057   0.70462   0.56565   0.00000  Uiso   1.00
H762   H     0.45231   0.78001   0.37505   0.00000  Uiso   1.00
H763   H     0.54769   0.88666   0.62495   0.00000  Uiso   1.00
H764   H     0.39497   0.73462   0.55295   0.00000  Uiso   1.00
N765   N     0.50001   0.83334   0.61736   0.00000  Uiso   1.00
N766   N     0.49999   0.83332   0.38264   0.00000  Uiso   1.00
O767   O     0.50000   0.77322   0.53958   0.00000  Uiso   1.00
O768   O     0.40045   0.74139   0.64763   0.00000  Uiso   1.00
O769   O     0.40599   0.76313   0.56290   0.00000  Uiso   1.00
O770   O     0.59955   0.92528   0.35237   0.00000  Uiso   1.00
O771   O     0.52202   0.94161   0.38483   0.00000  Uiso   1.00
O772   O     0.59401   0.90354   0.43710   0.00000  Uiso   1.00
O773   O     0.50000   0.89345   0.46042   0.00000  Uiso   1.00
O774   O     0.50000   0.77321   0.46039   0.00000  Uiso   1.00
O775   O     0.50000   0.89346   0.53961   0.00000  Uiso   1.00
O776   O     0.42495   0.83334   0.53046   0.00000  Uiso   1.00
O777   O     0.57505   0.83333   0.46954   0.00000  Uiso   1.00
O778   O     0.42494   0.83333   0.45127   0.00000  Uiso   1.00
O779   O     0.57506   0.83334   0.54873   0.00000  Uiso   1.00
O780   O     0.47798   0.72506   0.61517   0.00000  Uiso   1.00
S781   S     0.43891   0.75749   0.61626   0.00000  Uiso   1.00
S782   S     0.56109   0.90918   0.38374   0.00000  Uiso   1.00
C783   C     0.83321   0.75416   0.50037   0.00000  Uiso   1.00
C784   C     0.86128   0.68815   0.53727   0.00000  Uiso   1.00
C785   C     0.83382   0.95718   0.49933   0.00000  Uiso   1.00
C786   C     0.83284   0.70948   0.50067   0.00000  Uiso   1.00
C787   C     0.80626   0.80373   0.35682   0.00000  Uiso   1.00
C788   C     0.86041   0.86294   0.64318   0.00000  Uiso   1.00
C789   C     0.80557   0.80300   0.64101   0.00000  Uiso   1.00
C790   C     0.86110   0.86366   0.35899   0.00000  Uiso   1.00
C791   C     0.83345   0.91251   0.49963   0.00000  Uiso   1.00
C792   C     0.73476   0.83340   0.48806   0.00000  Uiso   1.00
C793   C     0.93191   0.83327   0.51194   0.00000  Uiso   1.00
C794   C     0.67949   0.83322   0.48151   0.00000  Uiso   1.00
C795   C     0.98718   0.83345   0.51849   0.00000  Uiso   1.00
C796   C     0.80514   0.68803   0.46325   0.00000  Uiso   1.00
C797   C     0.86152   0.97863   0.53675   0.00000  Uiso   1.00
C798   C     0.80539   0.97852   0.46273   0.00000  Uiso   1.00
Cu799  Cu    0.83333   0.83334   0.54689   0.00000  Uiso   1.00
Cu800  Cu    0.83333   0.83333   0.45311   0.00000  Uiso   1.00
H801   H     0.99313   0.83284   0.44597   0.00000  Uiso   1.00
H802   H     0.93835   0.93205   0.44706   0.00000  Uiso   1.00
H803   H     0.67353   0.83383   0.55403   0.00000  Uiso   1.00
H804   H     0.78290   0.70440   0.43481   0.00000  Uiso   1.00
H805   H     0.88377   0.96227   0.56519   0.00000  Uiso   1.00
H806   H     0.78277   0.96205   0.43435   0.00000  Uiso   1.00
H807   H     0.88390   0.70462   0.56565   0.00000  Uiso   1.00
H808   H     0.78564   0.78001   0.37505   0.00000  Uiso   1.00
H809   H     0.88102   0.88666   0.62495   0.00000  Uiso   1.00
H810   H     0.72831   0.73462   0.55295   0.00000  Uiso   1.00
N811   N     0.83335   0.83334   0.61736   0.00000  Uiso   1.00
N812   N     0.83332   0.83332   0.38264   0.00000  Uiso   1.00
O813   O     0.83333   0.77322   0.53958   0.00000  Uiso   1.00
O814   O     0.73378   0.74139   0.64763   0.00000  Uiso   1.00
O815   O     0.73932   0.76313   0.56290   0.00000  Uiso   1.00
O816   O     0.93289   0.92528   0.35237   0.00000  Uiso   1.00
O817   O     0.85535   0.94161   0.38483   0.00000  Uiso   1.00
O818   O     0.92735   0.90354   0.43710   0.00000  Uiso   1.00
O819   O     0.83334   0.89345   0.46042   0.00000  Uiso   1.00
O820   O     0.83333   0.77321   0.46039   0.00000  Uiso   1.00
O821   O     0.83334   0.89346   0.53961   0.00000  Uiso   1.00
O822   O     0.75828   0.83334   0.53046   0.00000  Uiso   1.00
O823   O     0.90839   0.83333   0.46954   0.00000  Uiso   1.00
O824   O     0.75828   0.83333   0.45127   0.00000  Uiso   1.00
O825   O     0.90839   0.83334   0.54873   0.00000  Uiso   1.00
O826   O     0.81131   0.72506   0.61517   0.00000  Uiso   1.00
S827   S     0.77224   0.75749   0.61626   0.00000  Uiso   1.00
S828   S     0.89443   0.90918   0.38374   0.00000  Uiso   1.00
C829   C     0.16655   0.08749   0.83370   0.00000  Uiso   1.00
C830   C     0.19461   0.02148   0.87060   0.00000  Uiso   1.00
C831   C     0.16716   0.29052   0.83267   0.00000  Uiso   1.00
C832   C     0.16618   0.04282   0.83400   0.00000  Uiso   1.00
C833   C     0.13959   0.13706   0.69015   0.00000  Uiso   1.00
C834   C     0.19374   0.19628   0.97651   0.00000  Uiso   1.00
C835   C     0.13890   0.13634   0.97434   0.00000  Uiso   1.00
C836   C     0.19443   0.19700   0.69233   0.00000  Uiso   1.00
C837   C     0.16679   0.24585   0.83296   0.00000  Uiso   1.00
C838   C     0.06809   0.16673   0.82139   0.00000  Uiso   1.00
C839   C     0.26524   0.16660   0.84528   0.00000  Uiso   1.00
C840   C     0.01282   0.16655   0.81485   0.00000  Uiso   1.00
C841   C     0.32052   0.16678   0.85182   0.00000  Uiso   1.00
C842   C     0.13848   0.02137   0.79658   0.00000  Uiso   1.00
C843   C     0.19486   0.31197   0.87009   0.00000  Uiso   1.00
C844   C     0.13872   0.31185   0.79607   0.00000  Uiso   1.00
Cu845  Cu    0.16667   0.16667   0.88022   0.00000  Uiso   1.00
Cu846  Cu    0.16667   0.16666   0.78645   0.00000  Uiso   1.00
H847   H     0.32647   0.16617   0.77930   0.00000  Uiso   1.00
H848   H     0.27169   0.26538   0.78039   0.00000  Uiso   1.00
H849   H     0.00687   0.16716   0.88737   0.00000  Uiso   1.00
H850   H     0.11623   0.03773   0.76815   0.00000  Uiso   1.00
H851   H     0.21710   0.29560   0.89852   0.00000  Uiso   1.00
H852   H     0.11610   0.29538   0.76768   0.00000  Uiso   1.00
H853   H     0.21723   0.03795   0.89899   0.00000  Uiso   1.00
H854   H     0.11898   0.11334   0.70838   0.00000  Uiso   1.00
H855   H     0.21436   0.21999   0.95828   0.00000  Uiso   1.00
H856   H     0.06164   0.06795   0.88628   0.00000  Uiso   1.00
N857   N     0.16668   0.16668   0.95069   0.00000  Uiso   1.00
N858   N     0.16665   0.16666   0.71597   0.00000  Uiso   1.00
O859   O     0.16666   0.10655   0.87291   0.00000  Uiso   1.00
O860   O     0.06711   0.07472   0.98096   0.00000  Uiso   1.00
O861   O     0.07265   0.09646   0.89623   0.00000  Uiso   1.00
O862   O     0.26622   0.25861   0.68570   0.00000  Uiso   1.00
O863   O     0.18869   0.27494   0.71817   0.00000  Uiso   1.00
O864   O     0.26068   0.23687   0.77043   0.00000  Uiso   1.00
O865   O     0.16667   0.22678   0.79375   0.00000  Uiso   1.00
O866   O     0.16666   0.10654   0.79372   0.00000  Uiso   1.00
O867   O     0.16667   0.22679   0.87294   0.00000  Uiso   1.00
O868   O     0.09161   0.16667   0.86379   0.00000  Uiso   1.00
O869   O     0.24172   0.16666   0.80288   0.00000  Uiso   1.00
O870   O     0.09161   0.16666   0.78460   0.00000  Uiso   1.00
O871   O     0.24172   0.16667   0.88207   0.00000  Uiso   1.00
O872   O     0.14465   0.05839   0.94850   0.00000  Uiso   1.00
S873   S     0.10557   0.09082   0.94960   0.00000  Uiso   1.00
S874   S     0.22776   0.24251   0.71707   0.00000  Uiso   1.00
C875   C     0.49988   0.08749   0.83370   0.00000  Uiso   1.00
C876   C     0.52794   0.02148   0.87060   0.00000  Uiso   1.00
C877   C     0.50049   0.29052   0.83267   0.00000  Uiso   1.00
C878   C     0.49951   0.04282   0.83400   0.00000  Uiso   1.00
C879   C     0.47292   0.13706   0.69015   0.00000  Uiso   1.00
C880   C     0.52708   0.19628   0.97651   0.00000  Uiso   1.00
C881   C     0.47223   0.13634   0.97434   0.00000  Uiso   1.00
C882   C     0.52777   0.19700   0.69233   0.00000  Uiso   1.00
C883   C     0.50012   0.24585   0.83296   0.00000  Uiso   1.00
C884   C     0.40142   0.16673   0.82139   0.00000  Uiso   1.00
C885   C     0.59858   0.16660   0.84528   0.00000  Uiso   1.00
C886   C     0.34615   0.16655   0.81485   0.00000  Uiso   1.00
C887   C     0.65385   0.16678   0.85182   0.00000  Uiso   1.00
C888   C     0.47181   0.02137   0.79658   0.00000  Uiso   1.00
C889   C     0.52819   0.31197   0.87009   0.00000  Uiso   1.00
C890   C     0.47206   0.31185   0.79607   0.00000  Uiso   1.00
Cu891  Cu    0.50000   0.16667   0.88022   0.00000  Uiso   1.00
Cu892  Cu    0.50000   0.16666   0.78645   0.00000  Uiso   1.00
H893   H     0.65980   0.16617   0.77930   0.00000  Uiso   1.00
H894   H     0.60502   0.26538   0.78039   0.00000  Uiso   1.00
H895   H     0.34020   0.16716   0.88737   0.00000  Uiso   1.00
H896   H     0.44957   0.03773   0.76815   0.00000  Uiso   1.00
H897   H     0.55043   0.29560   0.89852   0.00000  Uiso   1.00
H898   H     0.44943   0.29538   0.76768   0.00000  Uiso   1.00
H899   H     0.55057   0.03795   0.89899   0.00000  Uiso   1.00
H900   H     0.45231   0.11334   0.70838   0.00000  Uiso   1.00
H901   H     0.54769   0.21999   0.95828   0.00000  Uiso   1.00
H902   H     0.39497   0.06795   0.88628   0.00000  Uiso   1.00
N903   N     0.50001   0.16668   0.95069   0.00000  Uiso   1.00
N904   N     0.49999   0.16666   0.71597   0.00000  Uiso   1.00
O905   O     0.50000   0.10655   0.87291   0.00000  Uiso   1.00
O906   O     0.40045   0.07472   0.98096   0.00000  Uiso   1.00
O907   O     0.40599   0.09646   0.89623   0.00000  Uiso   1.00
O908   O     0.59955   0.25861   0.68570   0.00000  Uiso   1.00
O909   O     0.52202   0.27494   0.71817   0.00000  Uiso   1.00
O910   O     0.59401   0.23687   0.77043   0.00000  Uiso   1.00
O911   O     0.50000   0.22678   0.79375   0.00000  Uiso   1.00
O912   O     0.50000   0.10654   0.79372   0.00000  Uiso   1.00
O913   O     0.50000   0.22679   0.87294   0.00000  Uiso   1.00
O914   O     0.42495   0.16667   0.86379   0.00000  Uiso   1.00
O915   O     0.57505   0.16666   0.80288   0.00000  Uiso   1.00
O916   O     0.42494   0.16666   0.78460   0.00000  Uiso   1.00
O917   O     0.57506   0.16667   0.88207   0.00000  Uiso   1.00
O918   O     0.47798   0.05839   0.94850   0.00000  Uiso   1.00
S919   S     0.43891   0.09082   0.94960   0.00000  Uiso   1.00
S920   S     0.56109   0.24251   0.71707   0.00000  Uiso   1.00
C921   C     0.83321   0.08749   0.83370   0.00000  Uiso   1.00
C922   C     0.86128   0.02148   0.87060   0.00000  Uiso   1.00
C923   C     0.83382   0.29052   0.83267   0.00000  Uiso   1.00
C924   C     0.83284   0.04282   0.83400   0.00000  Uiso   1.00
C925   C     0.80626   0.13706   0.69015   0.00000  Uiso   1.00
C926   C     0.86041   0.19628   0.97651   0.00000  Uiso   1.00
C927   C     0.80557   0.13634   0.97434   0.00000  Uiso   1.00
C928   C     0.86110   0.19700   0.69233   0.00000  Uiso   1.00
C929   C     0.83345   0.24585   0.83296   0.00000  Uiso   1.00
C930   C     0.73476   0.16673   0.82139   0.00000  Uiso   1.00
C931   C     0.93191   0.16660   0.84528   0.00000  Uiso   1.00
C932   C     0.67949   0.16655   0.81485   0.00000  Uiso   1.00
C933   C     0.98718   0.16678   0.85182   0.00000  Uiso   1.00
C934   C     0.80514   0.02137   0.79658   0.00000  Uiso   1.00
C935   C     0.86152   0.31197   0.87009   0.00000  Uiso   1.00
C936   C     0.80539   0.31185   0.79607   0.00000  Uiso   1.00
Cu937  Cu    0.83333   0.16667   0.88022   0.00000  Uiso   1.00
Cu938  Cu    0.83333   0.16666   0.78645   0.00000  Uiso   1.00
H939   H     0.99313   0.16617   0.77930   0.00000  Uiso   1.00
H940   H     0.93835   0.26538   0.78039   0.00000  Uiso   1.00
H941   H     0.67353   0.16716   0.88737   0.00000  Uiso   1.00
H942   H     0.78290   0.03773   0.76815   0.00000  Uiso   1.00
H943   H     0.88377   0.29560   0.89852   0.00000  Uiso   1.00
H944   H     0.78277   0.29538   0.76768   0.00000  Uiso   1.00
H945   H     0.88390   0.03795   0.89899   0.00000  Uiso   1.00
H946   H     0.78564   0.11334   0.70838   0.00000  Uiso   1.00
H947   H     0.88102   0.21999   0.95828   0.00000  Uiso   1.00
H948   H     0.72831   0.06795   0.88628   0.00000  Uiso   1.00
N949   N     0.83335   0.16668   0.95069   0.00000  Uiso   1.00
N950   N     0.83332   0.16666   0.71597   0.00000  Uiso   1.00
O951   O     0.83333   0.10655   0.87291   0.00000  Uiso   1.00
O952   O     0.73378   0.07472   0.98096   0.00000  Uiso   1.00
O953   O     0.73932   0.09646   0.89623   0.00000  Uiso   1.00
O954   O     0.93289   0.25861   0.68570   0.00000  Uiso   1.00
O955   O     0.85535   0.27494   0.71817   0.00000  Uiso   1.00
O956   O     0.92735   0.23687   0.77043   0.00000  Uiso   1.00
O957   O     0.83334   0.22678   0.79375   0.00000  Uiso   1.00
O958   O     0.83333   0.10654   0.79372   0.00000  Uiso   1.00
O959   O     0.83334   0.22679   0.87294   0.00000  Uiso   1.00
O960   O     0.75828   0.16667   0.86379   0.00000  Uiso   1.00
O961   O     0.90839   0.16666   0.80288   0.00000  Uiso   1.00
O962   O     0.75828   0.16666   0.78460   0.00000  Uiso   1.00
O963   O     0.90839   0.16667   0.88207   0.00000  Uiso   1.00
O964   O     0.81131   0.05839   0.94850   0.00000  Uiso   1.00
S965   S     0.77224   0.09082   0.94960   0.00000  Uiso   1.00
S966   S     0.89443   0.24251   0.71707   0.00000  Uiso   1.00
C967   C     0.16655   0.42082   0.83370   0.00000  Uiso   1.00
C968   C     0.19461   0.35481   0.87060   0.00000  Uiso   1.00
C969   C     0.16716   0.62385   0.83267   0.00000  Uiso   1.00
C970   C     0.16618   0.37615   0.83400   0.00000  Uiso   1.00
C971   C     0.13959   0.47039   0.69015   0.00000  Uiso   1.00
C972   C     0.19374   0.52961   0.97651   0.00000  Uiso   1.00
C973   C     0.13890   0.46967   0.97434   0.00000  Uiso   1.00
C974   C     0.19443   0.53033   0.69233   0.00000  Uiso   1.00
C975   C     0.16679   0.57918   0.83296   0.00000  Uiso   1.00
C976   C     0.06809   0.50007   0.82139   0.00000  Uiso   1.00
C977   C     0.26524   0.49993   0.84528   0.00000  Uiso   1.00
C978   C     0.01282   0.49989   0.81485   0.00000  Uiso   1.00
C979   C     0.32052   0.50011   0.85182   0.00000  Uiso   1.00
C980   C     0.13848   0.35470   0.79658   0.00000  Uiso   1.00
C981   C     0.19486   0.64530   0.87009   0.00000  Uiso   1.00
C982   C     0.13872   0.64519   0.79607   0.00000  Uiso   1.00
Cu983  Cu    0.16667   0.50001   0.88022   0.00000  Uiso   1.00
Cu984  Cu    0.16667   0.49999   0.78645   0.00000  Uiso   1.00
H985   H     0.32647   0.49951   0.77930   0.00000  Uiso   1.00
H986   H     0.27169   0.59871   0.78039   0.00000  Uiso   1.00
H987   H     0.00687   0.50050   0.88737   0.00000  Uiso   1.00
H988   H     0.11623   0.37107   0.76815   0.00000  Uiso   1.00
H989   H     0.21710   0.62893   0.89852   0.00000  Uiso   1.00
H990   H     0.11610   0.62872   0.76768   0.00000  Uiso   1.00
H991   H     0.21723   0.37128   0.89899   0.00000  Uiso   1.00
H992   H     0.11898   0.44668   0.70838   0.00000  Uiso   1.00
H993   H     0.21436   0.55332   0.95828   0.00000  Uiso   1.00
H994   H     0.06164   0.40129   0.88628   0.00000  Uiso   1.00
N995   N     0.16668   0.50001   0.95069   0.00000  Uiso   1.00
N996   N     0.16665   0.49999   0.71597   0.00000  Uiso   1.00
O997   O     0.16666   0.43989   0.87291   0.00000  Uiso   1.00
O998   O     0.06711   0.40806   0.98096   0.00000  Uiso   1.00
O999   O     0.07265   0.42979   0.89623   0.00000  Uiso   1.00
O1000  O     0.26622   0.59194   0.68570   0.00000  Uiso   1.00
O1001  O     0.18869   0.60828   0.71817   0.00000  Uiso   1.00
O1002  O     0.26068   0.57021   0.77043   0.00000  Uiso   1.00
O1003  O     0.16667   0.56011   0.79375   0.00000  Uiso   1.00
O1004  O     0.16666   0.43988   0.79372   0.00000  Uiso   1.00
O1005  O     0.16667   0.56012   0.87294   0.00000  Uiso   1.00
O1006  O     0.09161   0.50000   0.86379   0.00000  Uiso   1.00
O1007  O     0.24172   0.50000   0.80288   0.00000  Uiso   1.00
O1008  O     0.09161   0.49999   0.78460   0.00000  Uiso   1.00
O1009  O     0.24172   0.50001   0.88207   0.00000  Uiso   1.00
O1010  O     0.14465   0.39172   0.94850   0.00000  Uiso   1.00
S1011  S     0.10557   0.42415   0.94960   0.00000  Uiso   1.00
S1012  S     0.22776   0.57585   0.71707   0.00000  Uiso   1.00
C1013  C     0.49988   0.42082   0.83370   0.00000  Uiso   1.00
C1014  C     0.52794   0.35481   0.87060   0.00000  Uiso   1.00
C1015  C     0.50049   0.62385   0.83267   0.00000  Uiso   1.00
C1016  C     0.49951   0.37615   0.83400   0.00000  Uiso   1.00
C1017  C     0.47292   0.47039   0.69015   0.00000  Uiso   1.00
C1018  C     0.52708   0.52961   0.97651   0.00000  Uiso   1.00
C1019  C     0.47223   0.46967   0.97434   0.00000  Uiso   1.00
C1020  C     0.52777   0.53033   0.69233   0.00000  Uiso   1.00
C1021  C     0.50012   0.57918   0.83296   0.00000  Uiso   1.00
C1022  C     0.40142   0.50007   0.82139   0.00000  Uiso   1.00
C1023  C     0.59858   0.49993   0.84528   0.00000  Uiso   1.00
C1024  C     0.34615   0.49989   0.81485   0.00000  Uiso   1.00
C1025  C     0.65385   0.50011   0.85182   0.00000  Uiso   1.00
C1026  C     0.47181   0.35470   0.79658   0.00000  Uiso   1.00
C1027  C     0.52819   0.64530   0.87009   0.00000  Uiso   1.00
C1028  C     0.47206   0.64519   0.79607   0.00000  Uiso   1.00
Cu1029 Cu    0.50000   0.50001   0.88022   0.00000  Uiso   1.00
Cu1030 Cu    0.50000   0.49999   0.78645   0.00000  Uiso   1.00
H1031  H     0.65980   0.49951   0.77930   0.00000  Uiso   1.00
H1032  H     0.60502   0.59871   0.78039   0.00000  Uiso   1.00
H1033  H     0.34020   0.50050   0.88737   0.00000  Uiso   1.00
H1034  H     0.44957   0.37107   0.76815   0.00000  Uiso   1.00
H1035  H     0.55043   0.62893   0.89852   0.00000  Uiso   1.00
H1036  H     0.44943   0.62872   0.76768   0.00000  Uiso   1.00
H1037  H     0.55057   0.37128   0.89899   0.00000  Uiso   1.00
H1038  H     0.45231   0.44668   0.70838   0.00000  Uiso   1.00
H1039  H     0.54769   0.55332   0.95828   0.00000  Uiso   1.00
H1040  H     0.39497   0.40129   0.88628   0.00000  Uiso   1.00
N1041  N     0.50001   0.50001   0.95069   0.00000  Uiso   1.00
N1042  N     0.49999   0.49999   0.71597   0.00000  Uiso   1.00
O1043  O     0.50000   0.43989   0.87291   0.00000  Uiso   1.00
O1044  O     0.40045   0.40806   0.98096   0.00000  Uiso   1.00
O1045  O     0.40599   0.42979   0.89623   0.00000  Uiso   1.00
O1046  O     0.59955   0.59194   0.68570   0.00000  Uiso   1.00
O1047  O     0.52202   0.60828   0.71817   0.00000  Uiso   1.00
O1048  O     0.59401   0.57021   0.77043   0.00000  Uiso   1.00
O1049  O     0.50000   0.56011   0.79375   0.00000  Uiso   1.00
O1050  O     0.50000   0.43988   0.79372   0.00000  Uiso   1.00
O1051  O     0.50000   0.56012   0.87294   0.00000  Uiso   1.00
O1052  O     0.42495   0.50000   0.86379   0.00000  Uiso   1.00
O1053  O     0.57505   0.50000   0.80288   0.00000  Uiso   1.00
O1054  O     0.42494   0.49999   0.78460   0.00000  Uiso   1.00
O1055  O     0.57506   0.50001   0.88207   0.00000  Uiso   1.00
O1056  O     0.47798   0.39172   0.94850   0.00000  Uiso   1.00
S1057  S     0.43891   0.42415   0.94960   0.00000  Uiso   1.00
S1058  S     0.56109   0.57585   0.71707   0.00000  Uiso   1.00
C1059  C     0.83321   0.42082   0.83370   0.00000  Uiso   1.00
C1060  C     0.86128   0.35481   0.87060   0.00000  Uiso   1.00
C1061  C     0.83382   0.62385   0.83267   0.00000  Uiso   1.00
C1062  C     0.83284   0.37615   0.83400   0.00000  Uiso   1.00
C1063  C     0.80626   0.47039   0.69015   0.00000  Uiso   1.00
C1064  C     0.86041   0.52961   0.97651   0.00000  Uiso   1.00
C1065  C     0.80557   0.46967   0.97434   0.00000  Uiso   1.00
C1066  C     0.86110   0.53033   0.69233   0.00000  Uiso   1.00
C1067  C     0.83345   0.57918   0.83296   0.00000  Uiso   1.00
C1068  C     0.73476   0.50007   0.82139   0.00000  Uiso   1.00
C1069  C     0.93191   0.49993   0.84528   0.00000  Uiso   1.00
C1070  C     0.67949   0.49989   0.81485   0.00000  Uiso   1.00
C1071  C     0.98718   0.50011   0.85182   0.00000  Uiso   1.00
C1072  C     0.80514   0.35470   0.79658   0.00000  Uiso   1.00
C1073  C     0.86152   0.64530   0.87009   0.00000  Uiso   1.00
C1074  C     0.80539   0.64519   0.79607   0.00000  Uiso   1.00
Cu1075 Cu    0.83333   0.50001   0.88022   0.00000  Uiso   1.00
Cu1076 Cu    0.83333   0.49999   0.78645   0.00000  Uiso   1.00
H1077  H     0.99313   0.49951   0.77930   0.00000  Uiso   1.00
H1078  H     0.93835   0.59871   0.78039   0.00000  Uiso   1.00
H1079  H     0.67353   0.50050   0.88737   0.00000  Uiso   1.00
H1080  H     0.78290   0.37107   0.76815   0.00000  Uiso   1.00
H1081  H     0.88377   0.62893   0.89852   0.00000  Uiso   1.00
H1082  H     0.78277   0.62872   0.76768   0.00000  Uiso   1.00
H1083  H     0.88390   0.37128   0.89899   0.00000  Uiso   1.00
H1084  H     0.78564   0.44668   0.70838   0.00000  Uiso   1.00
H1085  H     0.88102   0.55332   0.95828   0.00000  Uiso   1.00
H1086  H     0.72831   0.40129   0.88628   0.00000  Uiso   1.00
N1087  N     0.83335   0.50001   0.95069   0.00000  Uiso   1.00
N1088  N     0.83332   0.49999   0.71597   0.00000  Uiso   1.00
O1089  O     0.83333   0.43989   0.87291   0.00000  Uiso   1.00
O1090  O     0.73378   0.40806   0.98096   0.00000  Uiso   1.00
O1091  O     0.73932   0.42979   0.89623   0.00000  Uiso   1.00
O1092  O     0.93289   0.59194   0.68570   0.00000  Uiso   1.00
O1093  O     0.85535   0.60828   0.71817   0.00000  Uiso   1.00
O1094  O     0.92735   0.57021   0.77043   0.00000  Uiso   1.00
O1095  O     0.83334   0.56011   0.79375   0.00000  Uiso   1.00
O1096  O     0.83333   0.43988   0.79372   0.00000  Uiso   1.00
O1097  O     0.83334   0.56012   0.87294   0.00000  Uiso   1.00
O1098  O     0.75828   0.50000   0.86379   0.00000  Uiso   1.00
O1099  O     0.90839   0.50000   0.80288   0.00000  Uiso   1.00
O1100  O     0.75828   0.49999   0.78460   0.00000  Uiso   1.00
O1101  O     0.90839   0.50001   0.88207   0.00000  Uiso   1.00
O1102  O     0.81131   0.39172   0.94850   0.00000  Uiso   1.00
S1103  S     0.77224   0.42415   0.94960   0.00000  Uiso   1.00
S1104  S     0.89443   0.57585   0.71707   0.00000  Uiso   1.00
C1105  C     0.16655   0.75416   0.83370   0.00000  Uiso   1.00
C1106  C     0.19461   0.68815   0.87060   0.00000  Uiso   1.00
C1107  C     0.16716   0.95718   0.83267   0.00000  Uiso   1.00
C1108  C     0.16618   0.70948   0.83400   0.00000  Uiso   1.00
C1109  C     0.13959   0.80373   0.69015   0.00000  Uiso   1.00
C1110  C     0.19374   0.86294   0.97651   0.00000  Uiso   1.00
C1111  C     0.13890   0.80300   0.97434   0.00000  Uiso   1.00
C1112  C     0.19443   0.86366   0.69233   0.00000  Uiso   1.00
C1113  C     0.16679   0.91251   0.83296   0.00000  Uiso   1.00
C1114  C     0.06809   0.83340   0.82139   0.00000  Uiso   1.00
C1115  C     0.26524   0.83327   0.84528   0.00000  Uiso   1.00
C1116  C     0.01282   0.83322   0.81485   0.00000  Uiso   1.00
C1117  C     0.32052   0.83345   0.85182   0.00000  Uiso   1.00
C1118  C     0.13848   0.68803   0.79658   0.00000  Uiso   1.00
C1119  C     0.19486   0.97863   0.87009   0.00000  Uiso   1.00
C1120  C     0.13872   0.97852   0.79607   0.00000  Uiso   1.00
Cu1121 Cu    0.16667   0.83334   0.88022   0.00000  Uiso   1.00
Cu1122 Cu    0.16667   0.83333   0.78645   0.00000  Uiso   1.00
H1123  H     0.32647   0.83284   0.77930   0.00000  Uiso   1.00
H1124  H     0.27169   0.93205   0.78039   0.00000  Uiso   1.00
H1125  H     0.00687   0.83383   0.88737   0.00000  Uiso   1.00
H1126  H     0.11623   0.70440   0.76815   0.00000  Uiso   1.00
H1127  H     0.21710   0.96227   0.89852   0.00000  Uiso   1.00
H1128  H     0.11610   0.96205   0.76768   0.00000  Uiso   1.00
H1129  H     0.21723   0.70462   0.89899   0.00000  Uiso   1.00
H1130  H     0.11898   0.78001   0.70838   0.00000  Uiso   1.00
H1131  H     0.21436   0.88666   0.95828   0.00000  Uiso   1.00
H1132  H     0.06164   0.73462   0.88628   0.00000  Uiso   1.00
N1133  N     0.16668   0.83334   0.95069   0.00000  Uiso   1.00
N1134  N     0.16665   0.83332   0.71597   0.00000  Uiso   1.00
O1135  O     0.16666   0.77322   0.87291   0.00000  Uiso   1.00
O1136  O     0.06711   0.74139   0.98096   0.00000  Uiso   1.00
O1137  O     0.07265   0.76313   0.89623   0.00000  Uiso   1.00
O1138  O     0.26622   0.92528   0.68570   0.00000  Uiso   1.00
O1139  O     0.18869   0.94161   0.71817   0.00000  Uiso   1.00
O1140  O     0.26068   0.90354   0.77043   0.00000  Uiso   1.00
O1141  O     0.16667   0.89345   0.79375   0.00000  Uiso   1.00
O1142  O     0.16666   0.77321   0.79372   0.00000  Uiso   1.00
O1143  O     0.16667   0.89346   0.87294   0.00000  Uiso   1.00
O1144  O     0.09161   0.83334   0.86379   0.00000  Uiso   1.00
O1145  O     0.24172   0.83333   0.80288   0.00000  Uiso   1.00
O1146  O     0.09161   0.83333   0.78460   0.00000  Uiso   1.00
O1147  O     0.24172   0.83334   0.88207   0.00000  Uiso   1.00
O1148  O     0.14465   0.72506   0.94850   0.00000  Uiso   1.00
S1149  S     0.10557   0.75749   0.94960   0.00000  Uiso   1.00
S1150  S     0.22776   0.90918   0.71707   0.00000  Uiso   1.00
C1151  C     0.49988   0.75416   0.83370   0.00000  Uiso   1.00
C1152  C     0.52794   0.68815   0.87060   0.00000  Uiso   1.00
C1153  C     0.50049   0.95718   0.83267   0.00000  Uiso   1.00
C1154  C     0.49951   0.70948   0.83400   0.00000  Uiso   1.00
C1155  C     0.47292   0.80373   0.69015   0.00000  Uiso   1.00
C1156  C     0.52708   0.86294   0.97651   0.00000  Uiso   1.00
C1157  C     0.47223   0.80300   0.97434   0.00000  Uiso   1.00
C1158  C     0.52777   0.86366   0.69233   0.00000  Uiso   1.00
C1159  C     0.50012   0.91251   0.83296   0.00000  Uiso   1.00
C1160  C     0.40142   0.83340   0.82139   0.00000  Uiso   1.00
C1161  C     0.59858   0.83327   0.84528   0.00000  Uiso   1.00
C1162  C     0.34615   0.83322   0.81485   0.00000  Uiso   1.00
C1163  C     0.65385   0.83345   0.85182   0.00000  Uiso   1.00
C1164  C     0.47181   0.68803   0.79658   0.00000  Uiso   1.00
C1165  C     0.52819   0.97863   0.87009   0.00000  Uiso   1.00
C1166  C     0.47206   0.97852   0.79607   0.00000  Uiso   1.00
Cu1167 Cu    0.50000   0.83334   0.88022   0.00000  Uiso   1.00
Cu1168 Cu    0.50000   0.83333   0.78645   0.00000  Uiso   1.00
H1169  H     0.65980   0.83284   0.77930   0.00000  Uiso   1.00
H1170  H     0.60502   0.93205   0.78039   0.00000  Uiso   1.00
H1171  H     0.34020   0.83383   0.88737   0.00000  Uiso   1.00
H1172  H     0.44957   0.70440   0.76815   0.00000  Uiso   1.00
H1173  H     0.55043   0.96227   0.89852   0.00000  Uiso   1.00
H1174  H     0.44943   0.96205   0.76768   0.00000  Uiso   1.00
H1175  H     0.55057   0.70462   0.89899   0.00000  Uiso   1.00
H1176  H     0.45231   0.78001   0.70838   0.00000  Uiso   1.00
H1177  H     0.54769   0.88666   0.95828   0.00000  Uiso   1.00
H1178  H     0.39497   0.73462   0.88628   0.00000  Uiso   1.00
N1179  N     0.50001   0.83334   0.95069   0.00000  Uiso   1.00
N1180  N     0.49999   0.83332   0.71597   0.00000  Uiso   1.00
O1181  O     0.50000   0.77322   0.87291   0.00000  Uiso   1.00
O1182  O     0.40045   0.74139   0.98096   0.00000  Uiso   1.00
O1183  O     0.40599   0.76313   0.89623   0.00000  Uiso   1.00
O1184  O     0.59955   0.92528   0.68570   0.00000  Uiso   1.00
O1185  O     0.52202   0.94161   0.71817   0.00000  Uiso   1.00
O1186  O     0.59401   0.90354   0.77043   0.00000  Uiso   1.00
O1187  O     0.50000   0.89345   0.79375   0.00000  Uiso   1.00
O1188  O     0.50000   0.77321   0.79372   0.00000  Uiso   1.00
O1189  O     0.50000   0.89346   0.87294   0.00000  Uiso   1.00
O1190  O     0.42495   0.83334   0.86379   0.00000  Uiso   1.00
O1191  O     0.57505   0.83333   0.80288   0.00000  Uiso   1.00
O1192  O     0.42494   0.83333   0.78460   0.00000  Uiso   1.00
O1193  O     0.57506   0.83334   0.88207   0.00000  Uiso   1.00
O1194  O     0.47798   0.72506   0.94850   0.00000  Uiso   1.00
S1195  S     0.43891   0.75749   0.94960   0.00000  Uiso   1.00
S1196  S     0.56109   0.90918   0.71707   0.00000  Uiso   1.00
C1197  C     0.83321   0.75416   0.83370   0.00000  Uiso   1.00
C1198  C     0.86128   0.68815   0.87060   0.00000  Uiso   1.00
C1199  C     0.83382   0.95718   0.83267   0.00000  Uiso   1.00
C1200  C     0.83284   0.70948   0.83400   0.00000  Uiso   1.00
C1201  C     0.80626   0.80373   0.69015   0.00000  Uiso   1.00
C1202  C     0.86041   0.86294   0.97651   0.00000  Uiso   1.00
C1203  C     0.80557   0.80300   0.97434   0.00000  Uiso   1.00
C1204  C     0.86110   0.86366   0.69233   0.00000  Uiso   1.00
C1205  C     0.83345   0.91251   0.83296   0.00000  Uiso   1.00
C1206  C     0.73476   0.83340   0.82139   0.00000  Uiso   1.00
C1207  C     0.93191   0.83327   0.84528   0.00000  Uiso   1.00
C1208  C     0.67949   0.83322   0.81485   0.00000  Uiso   1.00
C1209  C     0.98718   0.83345   0.85182   0.00000  Uiso   1.00
C1210  C     0.80514   0.68803   0.79658   0.00000  Uiso   1.00
C1211  C     0.86152   0.97863   0.87009   0.00000  Uiso   1.00
C1212  C     0.80539   0.97852   0.79607   0.00000  Uiso   1.00
Cu1213 Cu    0.83333   0.83334   0.88022   0.00000  Uiso   1.00
Cu1214 Cu    0.83333   0.83333   0.78645   0.00000  Uiso   1.00
H1215  H     0.99313   0.83284   0.77930   0.00000  Uiso   1.00
H1216  H     0.93835   0.93205   0.78039   0.00000  Uiso   1.00
H1217  H     0.67353   0.83383   0.88737   0.00000  Uiso   1.00
H1218  H     0.78290   0.70440   0.76815   0.00000  Uiso   1.00
H1219  H     0.88377   0.96227   0.89852   0.00000  Uiso   1.00
H1220  H     0.78277   0.96205   0.76768   0.00000  Uiso   1.00
H1221  H     0.88390   0.70462   0.89899   0.00000  Uiso   1.00
H1222  H     0.78564   0.78001   0.70838   0.00000  Uiso   1.00
H1223  H     0.88102   0.88666   0.95828   0.00000  Uiso   1.00
H1224  H     0.72831   0.73462   0.88628   0.00000  Uiso   1.00
N1225  N     0.83335   0.83334   0.95069   0.00000  Uiso   1.00
N1226  N     0.83332   0.83332   0.71597   0.00000  Uiso   1.00
O1227  O     0.83333   0.77322   0.87291   0.00000  Uiso   1.00
O1228  O     0.73378   0.74139   0.98096   0.00000  Uiso   1.00
O1229  O     0.73932   0.76313   0.89623   0.00000  Uiso   1.00
O1230  O     0.93289   0.92528   0.68570   0.00000  Uiso   1.00
O1231  O     0.85535   0.94161   0.71817   0.00000  Uiso   1.00
O1232  O     0.92735   0.90354   0.77043   0.00000  Uiso   1.00
O1233  O     0.83334   0.89345   0.79375   0.00000  Uiso   1.00
O1234  O     0.83333   0.77321   0.79372   0.00000  Uiso   1.00
O1235  O     0.83334   0.89346   0.87294   0.00000  Uiso   1.00
O1236  O     0.75828   0.83334   0.86379   0.00000  Uiso   1.00
O1237  O     0.90839   0.83333   0.80288   0.00000  Uiso   1.00
O1238  O     0.75828   0.83333   0.78460   0.00000  Uiso   1.00
O1239  O     0.90839   0.83334   0.88207   0.00000  Uiso   1.00
O1240  O     0.81131   0.72506   0.94850   0.00000  Uiso   1.00
S1241  S     0.77224   0.75749   0.94960   0.00000  Uiso   1.00
S1242  S     0.89443   0.90918   0.71707   0.00000  Uiso   1.00
loop_
_geom_bond_atom_site_label_1
_geom_bond_atom_site_label_2
_geom_bond_distance
_geom_bond_site_symmetry_2
_ccdc_geom_bond_type
C1     C4      1.443   .     S
C1     O38     1.294   .     A
C1     O31     1.303   .     A
C2     C4      1.397   .     A
C2     H25     1.083   .     S
C2     C291    1.385   1_545 S
C3     C9      1.443   .     S
C3     C15     1.401   .     A
C3     C16     1.397   .     A
C4     C14     1.401   .     A
C5     N30     1.345   .     A
C5     H26     1.080   .     S
C5     C835    1.418   1_554 S
C6     H27     1.080   .     S
C6     N29     1.345   .     A
C6     C422    1.418   .     S
C7     S45     1.791   .     S
C7     N29     1.407   .     A
C7     C419    1.418   .     S
C8     N30     1.407   .     A
C8     S46     1.791   .     S
C8     C834    1.418   1_554 S
C9     O39     1.294   .     A
C9     O37     1.303   .     A
C10    O42     1.295   .     A
C10    C12     1.433   .     S
C10    O40     1.297   .     A
C11    O43     1.295   .     A
C11    C13     1.433   .     S
C11    O41     1.297   .     A
C12    C105    1.332   1_455 S
C12    H111    1.087   1_455 S
C13    C58     1.332   .     S
C13    H67     1.087   .     S
C14    H22     1.084   .     S
C14    C292    1.385   1_545 S
C15    H23     1.084   .     S
C15    C140    1.385   .     S
C16    H24     1.083   .     S
C16    C152    1.385   .     S
Cu17   O43     1.956   .     S
Cu17   Cu18    2.708   .     S
Cu17   O31     1.959   .     S
Cu17   N29     2.035   .     S
Cu17   O39     1.948   .     S
Cu17   O40     1.958   .     S
Cu18   N30     2.035   .     S
Cu18   O38     1.948   .     S
Cu18   O37     1.959   .     S
Cu18   O42     1.956   .     S
Cu18   O41     1.958   .     S
H19    C58     1.087   .     S
H20    O36     0.991   .     S
H21    C105    1.087   1_455 S
H28    O33     0.991   .     S
O32    S45     1.504   .     D
O33    S45     1.675   .     S
O34    S46     1.504   .     D
O35    S46     1.501   .     D
O36    S46     1.675   .     S
O44    S45     1.501   .     D
C47    C50     1.443   .     S
C47    O84     1.294   .     A
C47    O77     1.303   .     A
C48    C50     1.397   .     A
C48    H71     1.083   .     S
C48    C337    1.385   1_545 S
C49    C55     1.443   .     S
C49    C61     1.401   .     A
C49    C62     1.397   .     A
C50    C60     1.401   .     A
C51    N76     1.345   .     A
C51    H72     1.080   .     S
C51    C881    1.418   1_554 S
C52    H73     1.080   .     S
C52    N75     1.345   .     A
C52    C468    1.418   .     S
C53    S91     1.791   .     S
C53    N75     1.407   .     A
C53    C465    1.418   .     S
C54    N76     1.407   .     A
C54    S92     1.791   .     S
C54    C880    1.418   1_554 S
C55    O85     1.294   .     A
C55    O83     1.303   .     A
C56    O88     1.295   .     A
C56    C58     1.433   .     S
C56    O86     1.297   .     A
C57    O89     1.295   .     A
C57    C59     1.433   .     S
C57    O87     1.297   .     A
C59    C104    1.332   .     S
C59    H113    1.087   .     S
C60    H68     1.084   .     S
C60    C338    1.385   1_545 S
C61    H69     1.084   .     S
C61    C186    1.385   .     S
C62    H70     1.083   .     S
C62    C198    1.385   .     S
Cu63   O89     1.956   .     S
Cu63   Cu64    2.708   .     S
Cu63   O77     1.959   .     S
Cu63   N75     2.035   .     S
Cu63   O85     1.948   .     S
Cu63   O86     1.958   .     S
Cu64   N76     2.035   .     S
Cu64   O84     1.948   .     S
Cu64   O83     1.959   .     S
Cu64   O88     1.956   .     S
Cu64   O87     1.958   .     S
H65    C104    1.087   .     S
H66    O82     0.991   .     S
H74    O79     0.991   .     S
O78    S91     1.504   .     D
O79    S91     1.675   .     S
O80    S92     1.504   .     D
O81    S92     1.501   .     D
O82    S92     1.675   .     S
O90    S91     1.501   .     D
C93    C96     1.443   .     S
C93    O130    1.294   .     A
C93    O123    1.303   .     A
C94    C96     1.397   .     A
C94    H117    1.083   .     S
C94    C383    1.385   1_545 S
C95    C101    1.443   .     S
C95    C107    1.401   .     A
C95    C108    1.397   .     A
C96    C106    1.401   .     A
C97    N122    1.345   .     A
C97    H118    1.080   .     S
C97    C927    1.418   1_554 S
C98    H119    1.080   .     S
C98    N121    1.345   .     A
C98    C514    1.418   .     S
C99    S137    1.791   .     S
C99    N121    1.407   .     A
C99    C511    1.418   .     S
C100   N122    1.407   .     A
C100   S138    1.791   .     S
C100   C926    1.418   1_554 S
C101   O131    1.294   .     A
C101   O129    1.303   .     A
C102   O134    1.295   .     A
C102   C104    1.433   .     S
C102   O132    1.297   .     A
C103   O135    1.295   .     A
C103   C105    1.433   .     S
C103   O133    1.297   .     A
C105   C12     1.332   1_655 S
C105   H21     1.087   1_655 S
C106   H114    1.084   .     S
C106   C384    1.385   1_545 S
C107   H115    1.084   .     S
C107   C232    1.385   .     S
C108   H116    1.083   .     S
C108   C244    1.385   .     S
Cu109  O135    1.956   .     S
Cu109  Cu110   2.708   .     S
Cu109  O123    1.959   .     S
Cu109  N121    2.035   .     S
Cu109  O131    1.948   .     S
Cu109  O132    1.958   .     S
Cu110  N122    2.035   .     S
Cu110  O130    1.948   .     S
Cu110  O129    1.959   .     S
Cu110  O134    1.956   .     S
Cu110  O133    1.958   .     S
H111   C12     1.087   1_655 S
H112   O128    0.991   .     S
H120   O125    0.991   .     S
O124   S137    1.504   .     D
O125   S137    1.675   .     S
O126   S138    1.504   .     D
O127   S138    1.501   .     D
O128   S138    1.675   .     S
O136   S137    1.501   .     D
C139   C142    1.443   .     S
C139   O176    1.294   .     A
C139   O169    1.303   .     A
C140   C142    1.397   .     A
C140   H163    1.083   .     S
C141   C147    1.443   .     S
C141   C153    1.401   .     A
C141   C154    1.397   .     A
C142   C152    1.401   .     A
C143   N168    1.345   .     A
C143   H164    1.080   .     S
C143   C973    1.418   1_554 S
C144   H165    1.080   .     S
C144   N167    1.345   .     A
C144   C560    1.418   .     S
C145   S183    1.791   .     S
C145   N167    1.407   .     A
C145   C557    1.418   .     S
C146   N168    1.407   .     A
C146   S184    1.791   .     S
C146   C972    1.418   1_554 S
C147   O177    1.294   .     A
C147   O175    1.303   .     A
C148   O180    1.295   .     A
C148   C150    1.433   .     S
C148   O178    1.297   .     A
C149   O181    1.295   .     A
C149   C151    1.433   .     S
C149   O179    1.297   .     A
C150   C243    1.332   1_455 S
C150   H249    1.087   1_455 S
C151   C196    1.332   .     S
C151   H205    1.087   .     S
C152   H160    1.084   .     S
C153   H161    1.084   .     S
C153   C278    1.385   .     S
C154   H162    1.083   .     S
C154   C290    1.385   .     S
Cu155  O181    1.956   .     S
Cu155  Cu156   2.708   .     S
Cu155  O169    1.959   .     S
Cu155  N167    2.035   .     S
Cu155  O177    1.948   .     S
Cu155  O178    1.958   .     S
Cu156  N168    2.035   .     S
Cu156  O176    1.948   .     S
Cu156  O175    1.959   .     S
Cu156  O180    1.956   .     S
Cu156  O179    1.958   .     S
H157   C196    1.087   .     S
H158   O174    0.991   .     S
H159   C243    1.087   1_455 S
H166   O171    0.991   .     S
O170   S183    1.504   .     D
O171   S183    1.675   .     S
O172   S184    1.504   .     D
O173   S184    1.501   .     D
O174   S184    1.675   .     S
O182   S183    1.501   .     D
C185   C188    1.443   .     S
C185   O222    1.294   .     A
C185   O215    1.303   .     A
C186   C188    1.397   .     A
C186   H209    1.083   .     S
C187   C193    1.443   .     S
C187   C199    1.401   .     A
C187   C200    1.397   .     A
C188   C198    1.401   .     A
C189   N214    1.345   .     A
C189   H210    1.080   .     S
C189   C1019   1.418   1_554 S
C190   H211    1.080   .     S
C190   N213    1.345   .     A
C190   C606    1.418   .     S
C191   S229    1.791   .     S
C191   N213    1.407   .     A
C191   C603    1.418   .     S
C192   N214    1.407   .     A
C192   S230    1.791   .     S
C192   C1018   1.418   1_554 S
C193   O223    1.294   .     A
C193   O221    1.303   .     A
C194   O226    1.295   .     A
C194   C196    1.433   .     S
C194   O224    1.297   .     A
C195   O227    1.295   .     A
C195   C197    1.433   .     S
C195   O225    1.297   .     A
C197   C242    1.332   .     S
C197   H251    1.087   .     S
C198   H206    1.084   .     S
C199   H207    1.084   .     S
C199   C324    1.385   .     S
C200   H208    1.083   .     S
C200   C336    1.385   .     S
Cu201  O227    1.956   .     S
Cu201  Cu202   2.708   .     S
Cu201  O215    1.959   .     S
Cu201  N213    2.035   .     S
Cu201  O223    1.948   .     S
Cu201  O224    1.958   .     S
Cu202  N214    2.035   .     S
Cu202  O222    1.948   .     S
Cu202  O221    1.959   .     S
Cu202  O226    1.956   .     S
Cu202  O225    1.958   .     S
H203   C242    1.087   .     S
H204   O220    0.991   .     S
H212   O217    0.991   .     S
O216   S229    1.504   .     D
O217   S229    1.675   .     S
O218   S230    1.504   .     D
O219   S230    1.501   .     D
O220   S230    1.675   .     S
O228   S229    1.501   .     D
C231   C234    1.443   .     S
C231   O268    1.294   .     A
C231   O261    1.303   .     A
C232   C234    1.397   .     A
C232   H255    1.083   .     S
C233   C239    1.443   .     S
C233   C245    1.401   .     A
C233   C246    1.397   .     A
C234   C244    1.401   .     A
C235   N260    1.345   .     A
C235   H256    1.080   .     S
C235   C1065   1.418   1_554 S
C236   H257    1.080   .     S
C236   N259    1.345   .     A
C236   C652    1.418   .     S
C237   S275    1.791   .     S
C237   N259    1.407   .     A
C237   C649    1.418   .     S
C238   N260    1.407   .     A
C238   S276    1.791   .     S
C238   C1064   1.418   1_554 S
C239   O269    1.294   .     A
C239   O267    1.303   .     A
C240   O272    1.295   .     A
C240   C242    1.433   .     S
C240   O270    1.297   .     A
C241   O273    1.295   .     A
C241   C243    1.433   .     S
C241   O271    1.297   .     A
C243   C150    1.332   1_655 S
C243   H159    1.087   1_655 S
C244   H252    1.084   .     S
C245   H253    1.084   .     S
C245   C370    1.385   .     S
C246   H254    1.083   .     S
C246   C382    1.385   .     S
Cu247  O273    1.956   .     S
Cu247  Cu248   2.708   .     S
Cu247  O261    1.959   .     S
Cu247  N259    2.035   .     S
Cu247  O269    1.948   .     S
Cu247  O270    1.958   .     S
Cu248  N260    2.035   .     S
Cu248  O268    1.948   .     S
Cu248  O267    1.959   .     S
Cu248  O272    1.956   .     S
Cu248  O271    1.958   .     S
H249   C150    1.087   1_655 S
H250   O266    0.991   .     S
H258   O263    0.991   .     S
O262   S275    1.504   .     D
O263   S275    1.675   .     S
O264   S276    1.504   .     D
O265   S276    1.501   .     D
O266   S276    1.675   .     S
O274   S275    1.501   .     D
C277   C280    1.443   .     S
C277   O314    1.294   .     A
C277   O307    1.303   .     A
C278   C280    1.397   .     A
C278   H301    1.083   .     S
C279   C285    1.443   .     S
C279   C291    1.401   .     A
C279   C292    1.397   .     A
C280   C290    1.401   .     A
C281   N306    1.345   .     A
C281   H302    1.080   .     S
C281   C1111   1.418   1_554 S
C282   H303    1.080   .     S
C282   N305    1.345   .     A
C282   C698    1.418   .     S
C283   S321    1.791   .     S
C283   N305    1.407   .     A
C283   C695    1.418   .     S
C284   N306    1.407   .     A
C284   S322    1.791   .     S
C284   C1110   1.418   1_554 S
C285   O315    1.294   .     A
C285   O313    1.303   .     A
C286   O318    1.295   .     A
C286   C288    1.433   .     S
C286   O316    1.297   .     A
C287   O319    1.295   .     A
C287   C289    1.433   .     S
C287   O317    1.297   .     A
C288   C381    1.332   1_455 S
C288   H387    1.087   1_455 S
C289   C334    1.332   .     S
C289   H343    1.087   .     S
C290   H298    1.084   .     S
C291   H299    1.084   .     S
C291   C2      1.385   1_565 S
C292   H300    1.083   .     S
C292   C14     1.385   1_565 S
Cu293  O319    1.956   .     S
Cu293  Cu294   2.708   .     S
Cu293  O307    1.959   .     S
Cu293  N305    2.035   .     S
Cu293  O315    1.948   .     S
Cu293  O316    1.958   .     S
Cu294  N306    2.035   .     S
Cu294  O314    1.948   .     S
Cu294  O313    1.959   .     S
Cu294  O318    1.956   .     S
Cu294  O317    1.958   .     S
H295   C334    1.087   .     S
H296   O312    0.991   .     S
H297   C381    1.087   1_455 S
H304   O309    0.991   .     S
O308   S321    1.504   .     D
O309   S321    1.675   .     S
O310   S322    1.504   .     D
O311   S322    1.501   .     D
O312   S322    1.675   .     S
O320   S321    1.501   .     D
C323   C326    1.443   .     S
C323   O360    1.294   .     A
C323   O353    1.303   .     A
C324   C326    1.397   .     A
C324   H347    1.083   .     S
C325   C331    1.443   .     S
C325   C337    1.401   .     A
C325   C338    1.397   .     A
C326   C336    1.401   .     A
C327   N352    1.345   .     A
C327   H348    1.080   .     S
C327   C1157   1.418   1_554 S
C328   H349    1.080   .     S
C328   N351    1.345   .     A
C328   C744    1.418   .     S
C329   S367    1.791   .     S
C329   N351    1.407   .     A
C329   C741    1.418   .     S
C330   N352    1.407   .     A
C330   S368    1.791   .     S
C330   C1156   1.418   1_554 S
C331   O361    1.294   .     A
C331   O359    1.303   .     A
C332   O364    1.295   .     A
C332   C334    1.433   .     S
C332   O362    1.297   .     A
C333   O365    1.295   .     A
C333   C335    1.433   .     S
C333   O363    1.297   .     A
C335   C380    1.332   .     S
C335   H389    1.087   .     S
C336   H344    1.084   .     S
C337   H345    1.084   .     S
C337   C48     1.385   1_565 S
C338   H346    1.083   .     S
C338   C60     1.385   1_565 S
Cu339  O365    1.956   .     S
Cu339  Cu340   2.708   .     S
Cu339  O353    1.959   .     S
Cu339  N351    2.035   .     S
Cu339  O361    1.948   .     S
Cu339  O362    1.958   .     S
Cu340  N352    2.035   .     S
Cu340  O360    1.948   .     S
Cu340  O359    1.959   .     S
Cu340  O364    1.956   .     S
Cu340  O363    1.958   .     S
H341   C380    1.087   .     S
H342   O358    0.991   .     S
H350   O355    0.991   .     S
O354   S367    1.504   .     D
O355   S367    1.675   .     S
O356   S368    1.504   .     D
O357   S368    1.501   .     D
O358   S368    1.675   .     S
O366   S367    1.501   .     D
C369   C372    1.443   .     S
C369   O406    1.294   .     A
C369   O399    1.303   .     A
C370   C372    1.397   .     A
C370   H393    1.083   .     S
C371   C377    1.443   .     S
C371   C383    1.401   .     A
C371   C384    1.397   .     A
C372   C382    1.401   .     A
C373   N398    1.345   .     A
C373   H394    1.080   .     S
C373   C1203   1.418   1_554 S
C374   H395    1.080   .     S
C374   N397    1.345   .     A
C374   C790    1.418   .     S
C375   S413    1.791   .     S
C375   N397    1.407   .     A
C375   C787    1.418   .     S
C376   N398    1.407   .     A
C376   S414    1.791   .     S
C376   C1202   1.418   1_554 S
C377   O407    1.294   .     A
C377   O405    1.303   .     A
C378   O410    1.295   .     A
C378   C380    1.433   .     S
C378   O408    1.297   .     A
C379   O411    1.295   .     A
C379   C381    1.433   .     S
C379   O409    1.297   .     A
C381   C288    1.332   1_655 S
C381   H297    1.087   1_655 S
C382   H390    1.084   .     S
C383   H391    1.084   .     S
C383   C94     1.385   1_565 S
C384   H392    1.083   .     S
C384   C106    1.385   1_565 S
Cu385  O411    1.956   .     S
Cu385  Cu386   2.708   .     S
Cu385  O399    1.959   .     S
Cu385  N397    2.035   .     S
Cu385  O407    1.948   .     S
Cu385  O408    1.958   .     S
Cu386  N398    2.035   .     S
Cu386  O406    1.948   .     S
Cu386  O405    1.959   .     S
Cu386  O410    1.956   .     S
Cu386  O409    1.958   .     S
H387   C288    1.087   1_655 S
H388   O404    0.991   .     S
H396   O401    0.991   .     S
O400   S413    1.504   .     D
O401   S413    1.675   .     S
O402   S414    1.504   .     D
O403   S414    1.501   .     D
O404   S414    1.675   .     S
O412   S413    1.501   .     D
C415   C418    1.443   .     S
C415   O452    1.294   .     A
C415   O445    1.303   .     A
C416   C418    1.397   .     A
C416   H439    1.083   .     S
C416   C705    1.385   1_545 S
C417   C423    1.443   .     S
C417   C429    1.401   .     A
C417   C430    1.397   .     A
C418   C428    1.401   .     A
C419   N444    1.345   .     A
C419   H440    1.080   .     S
C420   H441    1.080   .     S
C420   N443    1.345   .     A
C420   C836    1.418   .     S
C421   S459    1.791   .     S
C421   N443    1.407   .     A
C421   C833    1.418   .     S
C422   N444    1.407   .     A
C422   S460    1.791   .     S
C423   O453    1.294   .     A
C423   O451    1.303   .     A
C424   O456    1.295   .     A
C424   C426    1.433   .     S
C424   O454    1.297   .     A
C425   O457    1.295   .     A
C425   C427    1.433   .     S
C425   O455    1.297   .     A
C426   C519    1.332   1_455 S
C426   H525    1.087   1_455 S
C427   C472    1.332   .     S
C427   H481    1.087   .     S
C428   H436    1.084   .     S
C428   C706    1.385   1_545 S
C429   H437    1.084   .     S
C429   C554    1.385   .     S
C430   H438    1.083   .     S
C430   C566    1.385   .     S
Cu431  O457    1.956   .     S
Cu431  Cu432   2.708   .     S
Cu431  O445    1.959   .     S
Cu431  N443    2.035   .     S
Cu431  O453    1.948   .     S
Cu431  O454    1.958   .     S
Cu432  N444    2.035   .     S
Cu432  O452    1.948   .     S
Cu432  O451    1.959   .     S
Cu432  O456    1.956   .     S
Cu432  O455    1.958   .     S
H433   C472    1.087   .     S
H434   O450    0.991   .     S
H435   C519    1.087   1_455 S
H442   O447    0.991   .     S
O446   S459    1.504   .     D
O447   S459    1.675   .     S
O448   S460    1.504   .     D
O449   S460    1.501   .     D
O450   S460    1.675   .     S
O458   S459    1.501   .     D
C461   C464    1.443   .     S
C461   O498    1.294   .     A
C461   O491    1.303   .     A
C462   C464    1.397   .     A
C462   H485    1.083   .     S
C462   C751    1.385   1_545 S
C463   C469    1.443   .     S
C463   C475    1.401   .     A
C463   C476    1.397   .     A
C464   C474    1.401   .     A
C465   N490    1.345   .     A
C465   H486    1.080   .     S
C466   H487    1.080   .     S
C466   N489    1.345   .     A
C466   C882    1.418   .     S
C467   S505    1.791   .     S
C467   N489    1.407   .     A
C467   C879    1.418   .     S
C468   N490    1.407   .     A
C468   S506    1.791   .     S
C469   O499    1.294   .     A
C469   O497    1.303   .     A
C470   O502    1.295   .     A
C470   C472    1.433   .     S
C470   O500    1.297   .     A
C471   O503    1.295   .     A
C471   C473    1.433   .     S
C471   O501    1.297   .     A
C473   C518    1.332   .     S
C473   H527    1.087   .     S
C474   H482    1.084   .     S
C474   C752    1.385   1_545 S
C475   H483    1.084   .     S
C475   C600    1.385   .     S
C476   H484    1.083   .     S
C476   C612    1.385   .     S
Cu477  O503    1.956   .     S
Cu477  Cu478   2.708   .     S
Cu477  O491    1.959   .     S
Cu477  N489    2.035   .     S
Cu477  O499    1.948   .     S
Cu477  O500    1.958   .     S
Cu478  N490    2.035   .     S
Cu478  O498    1.948   .     S
Cu478  O497    1.959   .     S
Cu478  O502    1.956   .     S
Cu478  O501    1.958   .     S
H479   C518    1.087   .     S
H480   O496    0.991   .     S
H488   O493    0.991   .     S
O492   S505    1.504   .     D
O493   S505    1.675   .     S
O494   S506    1.504   .     D
O495   S506    1.501   .     D
O496   S506    1.675   .     S
O504   S505    1.501   .     D
C507   C510    1.443   .     S
C507   O544    1.294   .     A
C507   O537    1.303   .     A
C508   C510    1.397   .     A
C508   H531    1.083   .     S
C508   C797    1.385   1_545 S
C509   C515    1.443   .     S
C509   C521    1.401   .     A
C509   C522    1.397   .     A
C510   C520    1.401   .     A
C511   N536    1.345   .     A
C511   H532    1.080   .     S
C512   H533    1.080   .     S
C512   N535    1.345   .     A
C512   C928    1.418   .     S
C513   S551    1.791   .     S
C513   N535    1.407   .     A
C513   C925    1.418   .     S
C514   N536    1.407   .     A
C514   S552    1.791   .     S
C515   O545    1.294   .     A
C515   O543    1.303   .     A
C516   O548    1.295   .     A
C516   C518    1.433   .     S
C516   O546    1.297   .     A
C517   O549    1.295   .     A
C517   C519    1.433   .     S
C517   O547    1.297   .     A
C519   C426    1.332   1_655 S
C519   H435    1.087   1_655 S
C520   H528    1.084   .     S
C520   C798    1.385   1_545 S
C521   H529    1.084   .     S
C521   C646    1.385   .     S
C522   H530    1.083   .     S
C522   C658    1.385   .     S
Cu523  O549    1.956   .     S
Cu523  Cu524   2.708   .     S
Cu523  O537    1.959   .     S
Cu523  N535    2.035   .     S
Cu523  O545    1.948   .     S
Cu523  O546    1.958   .     S
Cu524  N536    2.035   .     S
Cu524  O544    1.948   .     S
Cu524  O543    1.959   .     S
Cu524  O548    1.956   .     S
Cu524  O547    1.958   .     S
H525   C426    1.087   1_655 S
H526   O542    0.991   .     S
H534   O539    0.991   .     S
O538   S551    1.504   .     D
O539   S551    1.675   .     S
O540   S552    1.504   .     D
O541   S552    1.501   .     D
O542   S552    1.675   .     S
O550   S551    1.501   .     D
C553   C556    1.443   .     S
C553   O590    1.294   .     A
C553   O583    1.303   .     A
C554   C556    1.397   .     A
C554   H577    1.083   .     S
C555   C561    1.443   .     S
C555   C567    1.401   .     A
C555   C568    1.397   .     A
C556   C566    1.401   .     A
C557   N582    1.345   .     A
C557   H578    1.080   .     S
C558   H579    1.080   .     S
C558   N581    1.345   .     A
C558   C974    1.418   .     S
C559   S597    1.791   .     S
C559   N581    1.407   .     A
C559   C971    1.418   .     S
C560   N582    1.407   .     A
C560   S598    1.791   .     S
C561   O591    1.294   .     A
C561   O589    1.303   .     A
C562   O594    1.295   .     A
C562   C564    1.433   .     S
C562   O592    1.297   .     A
C563   O595    1.295   .     A
C563   C565    1.433   .     S
C563   O593    1.297   .     A
C564   C657    1.332   1_455 S
C564   H663    1.087   1_455 S
C565   C610    1.332   .     S
C565   H619    1.087   .     S
C566   H574    1.084   .     S
C567   H575    1.084   .     S
C567   C692    1.385   .     S
C568   H576    1.083   .     S
C568   C704    1.385   .     S
Cu569  O595    1.956   .     S
Cu569  Cu570   2.708   .     S
Cu569  O583    1.959   .     S
Cu569  N581    2.035   .     S
Cu569  O591    1.948   .     S
Cu569  O592    1.958   .     S
Cu570  N582    2.035   .     S
Cu570  O590    1.948   .     S
Cu570  O589    1.959   .     S
Cu570  O594    1.956   .     S
Cu570  O593    1.958   .     S
H571   C610    1.087   .     S
H572   O588    0.991   .     S
H573   C657    1.087   1_455 S
H580   O585    0.991   .     S
O584   S597    1.504   .     D
O585   S597    1.675   .     S
O586   S598    1.504   .     D
O587   S598    1.501   .     D
O588   S598    1.675   .     S
O596   S597    1.501   .     D
C599   C602    1.443   .     S
C599   O636    1.294   .     A
C599   O629    1.303   .     A
C600   C602    1.397   .     A
C600   H623    1.083   .     S
C601   C607    1.443   .     S
C601   C613    1.401   .     A
C601   C614    1.397   .     A
C602   C612    1.401   .     A
C603   N628    1.345   .     A
C603   H624    1.080   .     S
C604   H625    1.080   .     S
C604   N627    1.345   .     A
C604   C1020   1.418   .     S
C605   S643    1.791   .     S
C605   N627    1.407   .     A
C605   C1017   1.418   .     S
C606   N628    1.407   .     A
C606   S644    1.791   .     S
C607   O637    1.294   .     A
C607   O635    1.303   .     A
C608   O640    1.295   .     A
C608   C610    1.433   .     S
C608   O638    1.297   .     A
C609   O641    1.295   .     A
C609   C611    1.433   .     S
C609   O639    1.297   .     A
C611   C656    1.332   .     S
C611   H665    1.087   .     S
C612   H620    1.084   .     S
C613   H621    1.084   .     S
C613   C738    1.385   .     S
C614   H622    1.083   .     S
C614   C750    1.385   .     S
Cu615  O641    1.956   .     S
Cu615  Cu616   2.708   .     S
Cu615  O629    1.959   .     S
Cu615  N627    2.035   .     S
Cu615  O637    1.948   .     S
Cu615  O638    1.958   .     S
Cu616  N628    2.035   .     S
Cu616  O636    1.948   .     S
Cu616  O635    1.959   .     S
Cu616  O640    1.956   .     S
Cu616  O639    1.958   .     S
H617   C656    1.087   .     S
H618   O634    0.991   .     S
H626   O631    0.991   .     S
O630   S643    1.504   .     D
O631   S643    1.675   .     S
O632   S644    1.504   .     D
O633   S644    1.501   .     D
O634   S644    1.675   .     S
O642   S643    1.501   .     D
C645   C648    1.443   .     S
C645   O682    1.294   .     A
C645   O675    1.303   .     A
C646   C648    1.397   .     A
C646   H669    1.083   .     S
C647   C653    1.443   .     S
C647   C659    1.401   .     A
C647   C660    1.397   .     A
C648   C658    1.401   .     A
C649   N674    1.345   .     A
C649   H670    1.080   .     S
C650   H671    1.080   .     S
C650   N673    1.345   .     A
C650   C1066   1.418   .     S
C651   S689    1.791   .     S
C651   N673    1.407   .     A
C651   C1063   1.418   .     S
C652   N674    1.407   .     A
C652   S690    1.791   .     S
C653   O683    1.294   .     A
C653   O681    1.303   .     A
C654   O686    1.295   .     A
C654   C656    1.433   .     S
C654   O684    1.297   .     A
C655   O687    1.295   .     A
C655   C657    1.433   .     S
C655   O685    1.297   .     A
C657   C564    1.332   1_655 S
C657   H573    1.087   1_655 S
C658   H666    1.084   .     S
C659   H667    1.084   .     S
C659   C784    1.385   .     S
C660   H668    1.083   .     S
C660   C796    1.385   .     S
Cu661  O687    1.956   .     S
Cu661  Cu662   2.708   .     S
Cu661  O675    1.959   .     S
Cu661  N673    2.035   .     S
Cu661  O683    1.948   .     S
Cu661  O684    1.958   .     S
Cu662  N674    2.035   .     S
Cu662  O682    1.948   .     S
Cu662  O681    1.959   .     S
Cu662  O686    1.956   .     S
Cu662  O685    1.958   .     S
H663   C564    1.087   1_655 S
H664   O680    0.991   .     S
H672   O677    0.991   .     S
O676   S689    1.504   .     D
O677   S689    1.675   .     S
O678   S690    1.504   .     D
O679   S690    1.501   .     D
O680   S690    1.675   .     S
O688   S689    1.501   .     D
C691   C694    1.443   .     S
C691   O728    1.294   .     A
C691   O721    1.303   .     A
C692   C694    1.397   .     A
C692   H715    1.083   .     S
C693   C699    1.443   .     S
C693   C705    1.401   .     A
C693   C706    1.397   .     A
C694   C704    1.401   .     A
C695   N720    1.345   .     A
C695   H716    1.080   .     S
C696   H717    1.080   .     S
C696   N719    1.345   .     A
C696   C1112   1.418   .     S
C697   S735    1.791   .     S
C697   N719    1.407   .     A
C697   C1109   1.418   .     S
C698   N720    1.407   .     A
C698   S736    1.791   .     S
C699   O729    1.294   .     A
C699   O727    1.303   .     A
C700   O732    1.295   .     A
C700   C702    1.433   .     S
C700   O730    1.297   .     A
C701   O733    1.295   .     A
C701   C703    1.433   .     S
C701   O731    1.297   .     A
C702   C795    1.332   1_455 S
C702   H801    1.087   1_455 S
C703   C748    1.332   .     S
C703   H757    1.087   .     S
C704   H712    1.084   .     S
C705   H713    1.084   .     S
C705   C416    1.385   1_565 S
C706   H714    1.083   .     S
C706   C428    1.385   1_565 S
Cu707  O733    1.956   .     S
Cu707  Cu708   2.708   .     S
Cu707  O721    1.959   .     S
Cu707  N719    2.035   .     S
Cu707  O729    1.948   .     S
Cu707  O730    1.958   .     S
Cu708  N720    2.035   .     S
Cu708  O728    1.948   .     S
Cu708  O727    1.959   .     S
Cu708  O732    1.956   .     S
Cu708  O731    1.958   .     S
H709   C748    1.087   .     S
H710   O726    0.991   .     S
H711   C795    1.087   1_455 S
H718   O723    0.991   .     S
O722   S735    1.504   .     D
O723   S735    1.675   .     S
O724   S736    1.504   .     D
O725   S736    1.501   .     D
O726   S736    1.675   .     S
O734   S735    1.501   .     D
C737   C740    1.443   .     S
C737   O774    1.294   .     A
C737   O767    1.303   .     A
C738   C740    1.397   .     A
C738   H761    1.083   .     S
C739   C745    1.443   .     S
C739   C751    1.401   .     A
C739   C752    1.397   .     A
C740   C750    1.401   .     A
C741   N766    1.345   .     A
C741   H762    1.080   .     S
C742   H763    1.080   .     S
C742   N765    1.345   .     A
C742   C1158   1.418   .     S
C743   S781    1.791   .     S
C743   N765    1.407   .     A
C743   C1155   1.418   .     S
C744   N766    1.407   .     A
C744   S782    1.791   .     S
C745   O775    1.294   .     A
C745   O773    1.303   .     A
C746   O778    1.295   .     A
C746   C748    1.433   .     S
C746   O776    1.297   .     A
C747   O779    1.295   .     A
C747   C749    1.433   .     S
C747   O777    1.297   .     A
C749   C794    1.332   .     S
C749   H803    1.087   .     S
C750   H758    1.084   .     S
C751   H759    1.084   .     S
C751   C462    1.385   1_565 S
C752   H760    1.083   .     S
C752   C474    1.385   1_565 S
Cu753  O779    1.956   .     S
Cu753  Cu754   2.708   .     S
Cu753  O767    1.959   .     S
Cu753  N765    2.035   .     S
Cu753  O775    1.948   .     S
Cu753  O776    1.958   .     S
Cu754  N766    2.035   .     S
Cu754  O774    1.948   .     S
Cu754  O773    1.959   .     S
Cu754  O778    1.956   .     S
Cu754  O777    1.958   .     S
H755   C794    1.087   .     S
H756   O772    0.991   .     S
H764   O769    0.991   .     S
O768   S781    1.504   .     D
O769   S781    1.675   .     S
O770   S782    1.504   .     D
O771   S782    1.501   .     D
O772   S782    1.675   .     S
O780   S781    1.501   .     D
C783   C786    1.443   .     S
C783   O820    1.294   .     A
C783   O813    1.303   .     A
C784   C786    1.397   .     A
C784   H807    1.083   .     S
C785   C791    1.443   .     S
C785   C797    1.401   .     A
C785   C798    1.397   .     A
C786   C796    1.401   .     A
C787   N812    1.345   .     A
C787   H808    1.080   .     S
C788   H809    1.080   .     S
C788   N811    1.345   .     A
C788   C1204   1.418   .     S
C789   S827    1.791   .     S
C789   N811    1.407   .     A
C789   C1201   1.418   .     S
C790   N812    1.407   .     A
C790   S828    1.791   .     S
C791   O821    1.294   .     A
C791   O819    1.303   .     A
C792   O824    1.295   .     A
C792   C794    1.433   .     S
C792   O822    1.297   .     A
C793   O825    1.295   .     A
C793   C795    1.433   .     S
C793   O823    1.297   .     A
C795   C702    1.332   1_655 S
C795   H711    1.087   1_655 S
C796   H804    1.084   .     S
C797   H805    1.084   .     S
C797   C508    1.385   1_565 S
C798   H806    1.083   .     S
C798   C520    1.385   1_565 S
Cu799  O825    1.956   .     S
Cu799  Cu800   2.708   .     S
Cu799  O813    1.959   .     S
Cu799  N811    2.035   .     S
Cu799  O821    1.948   .     S
Cu799  O822    1.958   .     S
Cu800  N812    2.035   .     S
Cu800  O820    1.948   .     S
Cu800  O819    1.959   .     S
Cu800  O824    1.956   .     S
Cu800  O823    1.958   .     S
H801   C702    1.087   1_655 S
H802   O818    0.991   .     S
H810   O815    0.991   .     S
O814   S827    1.504   .     D
O815   S827    1.675   .     S
O816   S828    1.504   .     D
O817   S828    1.501   .     D
O818   S828    1.675   .     S
O826   S827    1.501   .     D
C829   C832    1.443   .     S
C829   O866    1.294   .     A
C829   O859    1.303   .     A
C830   C832    1.397   .     A
C830   H853    1.083   .     S
C830   C1119   1.385   1_545 S
C831   C837    1.443   .     S
C831   C843    1.401   .     A
C831   C844    1.397   .     A
C832   C842    1.401   .     A
C833   N858    1.345   .     A
C833   H854    1.080   .     S
C834   H855    1.080   .     S
C834   N857    1.345   .     A
C834   C8      1.418   1_556 S
C835   S873    1.791   .     S
C835   N857    1.407   .     A
C835   C5      1.418   1_556 S
C836   N858    1.407   .     A
C836   S874    1.791   .     S
C837   O867    1.294   .     A
C837   O865    1.303   .     A
C838   O870    1.295   .     A
C838   C840    1.433   .     S
C838   O868    1.297   .     A
C839   O871    1.295   .     A
C839   C841    1.433   .     S
C839   O869    1.297   .     A
C840   C933    1.332   1_455 S
C840   H939    1.087   1_455 S
C841   C886    1.332   .     S
C841   H895    1.087   .     S
C842   H850    1.084   .     S
C842   C1120   1.385   1_545 S
C843   H851    1.084   .     S
C843   C968    1.385   .     S
C844   H852    1.083   .     S
C844   C980    1.385   .     S
Cu845  O871    1.956   .     S
Cu845  Cu846   2.708   .     S
Cu845  O859    1.959   .     S
Cu845  N857    2.035   .     S
Cu845  O867    1.948   .     S
Cu845  O868    1.958   .     S
Cu846  N858    2.035   .     S
Cu846  O866    1.948   .     S
Cu846  O865    1.959   .     S
Cu846  O870    1.956   .     S
Cu846  O869    1.958   .     S
H847   C886    1.087   .     S
H848   O864    0.991   .     S
H849   C933    1.087   1_455 S
H856   O861    0.991   .     S
O860   S873    1.504   .     D
O861   S873    1.675   .     S
O862   S874    1.504   .     D
O863   S874    1.501   .     D
O864   S874    1.675   .     S
O872   S873    1.501   .     D
C875   C878    1.443   .     S
C875   O912    1.294   .     A
C875   O905    1.303   .     A
C876   C878    1.397   .     A
C876   H899    1.083   .     S
C876   C1165   1.385   1_545 S
C877   C883    1.443   .     S
C877   C889    1.401   .     A
C877   C890    1.397   .     A
C878   C888    1.401   .     A
C879   N904    1.345   .     A
C879   H900    1.080   .     S
C880   H901    1.080   .     S
C880   N903    1.345   .     A
C880   C54     1.418   1_556 S
C881   S919    1.791   .     S
C881   N903    1.407   .     A
C881   C51     1.418   1_556 S
C882   N904    1.407   .     A
C882   S920    1.791   .     S
C883   O913    1.294   .     A
C883   O911    1.303   .     A
C884   O916    1.295   .     A
C884   C886    1.433   .     S
C884   O914    1.297   .     A
C885   O917    1.295   .     A
C885   C887    1.433   .     S
C885   O915    1.297   .     A
C887   C932    1.332   .     S
C887   H941    1.087   .     S
C888   H896    1.084   .     S
C888   C1166   1.385   1_545 S
C889   H897    1.084   .     S
C889   C1014   1.385   .     S
C890   H898    1.083   .     S
C890   C1026   1.385   .     S
Cu891  O917    1.956   .     S
Cu891  Cu892   2.708   .     S
Cu891  O905    1.959   .     S
Cu891  N903    2.035   .     S
Cu891  O913    1.948   .     S
Cu891  O914    1.958   .     S
Cu892  N904    2.035   .     S
Cu892  O912    1.948   .     S
Cu892  O911    1.959   .     S
Cu892  O916    1.956   .     S
Cu892  O915    1.958   .     S
H893   C932    1.087   .     S
H894   O910    0.991   .     S
H902   O907    0.991   .     S
O906   S919    1.504   .     D
O907   S919    1.675   .     S
O908   S920    1.504   .     D
O909   S920    1.501   .     D
O910   S920    1.675   .     S
O918   S919    1.501   .     D
C921   C924    1.443   .     S
C921   O958    1.294   .     A
C921   O951    1.303   .     A
C922   C924    1.397   .     A
C922   H945    1.083   .     S
C922   C1211   1.385   1_545 S
C923   C929    1.443   .     S
C923   C935    1.401   .     A
C923   C936    1.397   .     A
C924   C934    1.401   .     A
C925   N950    1.345   .     A
C925   H946    1.080   .     S
C926   H947    1.080   .     S
C926   N949    1.345   .     A
C926   C100    1.418   1_556 S
C927   S965    1.791   .     S
C927   N949    1.407   .     A
C927   C97     1.418   1_556 S
C928   N950    1.407   .     A
C928   S966    1.791   .     S
C929   O959    1.294   .     A
C929   O957    1.303   .     A
C930   O962    1.295   .     A
C930   C932    1.433   .     S
C930   O960    1.297   .     A
C931   O963    1.295   .     A
C931   C933    1.433   .     S
C931   O961    1.297   .     A
C933   C840    1.332   1_655 S
C933   H849    1.087   1_655 S
C934   H942    1.084   .     S
C934   C1212   1.385   1_545 S
C935   H943    1.084   .     S
C935   C1060   1.385   .     S
C936   H944    1.083   .     S
C936   C1072   1.385   .     S
Cu937  O963    1.956   .     S
Cu937  Cu938   2.708   .     S
Cu937  O951    1.959   .     S
Cu937  N949    2.035   .     S
Cu937  O959    1.948   .     S
Cu937  O960    1.958   .     S
Cu938  N950    2.035   .     S
Cu938  O958    1.948   .     S
Cu938  O957    1.959   .     S
Cu938  O962    1.956   .     S
Cu938  O961    1.958   .     S
H939   C840    1.087   1_655 S
H940   O956    0.991   .     S
H948   O953    0.991   .     S
O952   S965    1.504   .     D
O953   S965    1.675   .     S
O954   S966    1.504   .     D
O955   S966    1.501   .     D
O956   S966    1.675   .     S
O964   S965    1.501   .     D
C967   C970    1.443   .     S
C967   O1004   1.294   .     A
C967   O997    1.303   .     A
C968   C970    1.397   .     A
C968   H991    1.083   .     S
C969   C975    1.443   .     S
C969   C981    1.401   .     A
C969   C982    1.397   .     A
C970   C980    1.401   .     A
C971   N996    1.345   .     A
C971   H992    1.080   .     S
C972   H993    1.080   .     S
C972   N995    1.345   .     A
C972   C146    1.418   1_556 S
C973   S1011   1.791   .     S
C973   N995    1.407   .     A
C973   C143    1.418   1_556 S
C974   N996    1.407   .     A
C974   S1012   1.791   .     S
C975   O1005   1.294   .     A
C975   O1003   1.303   .     A
C976   O1008   1.295   .     A
C976   C978    1.433   .     S
C976   O1006   1.297   .     A
C977   O1009   1.295   .     A
C977   C979    1.433   .     S
C977   O1007   1.297   .     A
C978   C1071   1.332   1_455 S
C978   H1077   1.087   1_455 S
C979   C1024   1.332   .     S
C979   H1033   1.087   .     S
C980   H988    1.084   .     S
C981   H989    1.084   .     S
C981   C1106   1.385   .     S
C982   H990    1.083   .     S
C982   C1118   1.385   .     S
Cu983  O1009   1.956   .     S
Cu983  Cu984   2.708   .     S
Cu983  O997    1.959   .     S
Cu983  N995    2.035   .     S
Cu983  O1005   1.948   .     S
Cu983  O1006   1.958   .     S
Cu984  N996    2.035   .     S
Cu984  O1004   1.948   .     S
Cu984  O1003   1.959   .     S
Cu984  O1008   1.956   .     S
Cu984  O1007   1.958   .     S
H985   C1024   1.087   .     S
H986   O1002   0.991   .     S
H987   C1071   1.087   1_455 S
H994   O999    0.991   .     S
O998   S1011   1.504   .     D
O999   S1011   1.675   .     S
O1000  S1012   1.504   .     D
O1001  S1012   1.501   .     D
O1002  S1012   1.675   .     S
O1010  S1011   1.501   .     D
C1013  C1016   1.443   .     S
C1013  O1050   1.294   .     A
C1013  O1043   1.303   .     A
C1014  C1016   1.397   .     A
C1014  H1037   1.083   .     S
C1015  C1021   1.443   .     S
C1015  C1027   1.401   .     A
C1015  C1028   1.397   .     A
C1016  C1026   1.401   .     A
C1017  N1042   1.345   .     A
C1017  H1038   1.080   .     S
C1018  H1039   1.080   .     S
C1018  N1041   1.345   .     A
C1018  C192    1.418   1_556 S
C1019  S1057   1.791   .     S
C1019  N1041   1.407   .     A
C1019  C189    1.418   1_556 S
C1020  N1042   1.407   .     A
C1020  S1058   1.791   .     S
C1021  O1051   1.294   .     A
C1021  O1049   1.303   .     A
C1022  O1054   1.295   .     A
C1022  C1024   1.433   .     S
C1022  O1052   1.297   .     A
C1023  O1055   1.295   .     A
C1023  C1025   1.433   .     S
C1023  O1053   1.297   .     A
C1025  C1070   1.332   .     S
C1025  H1079   1.087   .     S
C1026  H1034   1.084   .     S
C1027  H1035   1.084   .     S
C1027  C1152   1.385   .     S
C1028  H1036   1.083   .     S
C1028  C1164   1.385   .     S
Cu1029 O1055   1.956   .     S
Cu1029 Cu1030  2.708   .     S
Cu1029 O1043   1.959   .     S
Cu1029 N1041   2.035   .     S
Cu1029 O1051   1.948   .     S
Cu1029 O1052   1.958   .     S
Cu1030 N1042   2.035   .     S
Cu1030 O1050   1.948   .     S
Cu1030 O1049   1.959   .     S
Cu1030 O1054   1.956   .     S
Cu1030 O1053   1.958   .     S
H1031  C1070   1.087   .     S
H1032  O1048   0.991   .     S
H1040  O1045   0.991   .     S
O1044  S1057   1.504   .     D
O1045  S1057   1.675   .     S
O1046  S1058   1.504   .     D
O1047  S1058   1.501   .     D
O1048  S1058   1.675   .     S
O1056  S1057   1.501   .     D
C1059  C1062   1.443   .     S
C1059  O1096   1.294   .     A
C1059  O1089   1.303   .     A
C1060  C1062   1.397   .     A
C1060  H1083   1.083   .     S
C1061  C1067   1.443   .     S
C1061  C1073   1.401   .     A
C1061  C1074   1.397   .     A
C1062  C1072   1.401   .     A
C1063  N1088   1.345   .     A
C1063  H1084   1.080   .     S
C1064  H1085   1.080   .     S
C1064  N1087   1.345   .     A
C1064  C238    1.418   1_556 S
C1065  S1103   1.791   .     S
C1065  N1087   1.407   .     A
C1065  C235    1.418   1_556 S
C1066  N1088   1.407   .     A
C1066  S1104   1.791   .     S
C1067  O1097   1.294   .     A
C1067  O1095   1.303   .     A
C1068  O1100   1.295   .     A
C1068  C1070   1.433   .     S
C1068  O1098   1.297   .     A
C1069  O1101   1.295   .     A
C1069  C1071   1.433   .     S
C1069  O1099   1.297   .     A
C1071  C978    1.332   1_655 S
C1071  H987    1.087   1_655 S
C1072  H1080   1.084   .     S
C1073  H1081   1.084   .     S
C1073  C1198   1.385   .     S
C1074  H1082   1.083   .     S
C1074  C1210   1.385   .     S
Cu1075 O1101   1.956   .     S
Cu1075 Cu1076  2.708   .     S
Cu1075 O1089   1.959   .     S
Cu1075 N1087   2.035   .     S
Cu1075 O1097   1.948   .     S
Cu1075 O1098   1.958   .     S
Cu1076 N1088   2.035   .     S
Cu1076 O1096   1.948   .     S
Cu1076 O1095   1.959   .     S
Cu1076 O1100   1.956   .     S
Cu1076 O1099   1.958   .     S
H1077  C978    1.087   1_655 S
H1078  O1094   0.991   .     S
H1086  O1091   0.991   .     S
O1090  S1103   1.504   .     D
O1091  S1103   1.675   .     S
O1092  S1104   1.504   .     D
O1093  S1104   1.501   .     D
O1094  S1104   1.675   .     S
O1102  S1103   1.501   .     D
C1105  C1108   1.443   .     S
C1105  O1142   1.294   .     A
C1105  O1135   1.303   .     A
C1106  C1108   1.397   .     A
C1106  H1129   1.083   .     S
C1107  C1113   1.443   .     S
C1107  C1119   1.401   .     A
C1107  C1120   1.397   .     A
C1108  C1118   1.401   .     A
C1109  N1134   1.345   .     A
C1109  H1130   1.080   .     S
C1110  H1131   1.080   .     S
C1110  N1133   1.345   .     A
C1110  C284    1.418   1_556 S
C1111  S1149   1.791   .     S
C1111  N1133   1.407   .     A
C1111  C281    1.418   1_556 S
C1112  N1134   1.407   .     A
C1112  S1150   1.791   .     S
C1113  O1143   1.294   .     A
C1113  O1141   1.303   .     A
C1114  O1146   1.295   .     A
C1114  C1116   1.433   .     S
C1114  O1144   1.297   .     A
C1115  O1147   1.295   .     A
C1115  C1117   1.433   .     S
C1115  O1145   1.297   .     A
C1116  C1209   1.332   1_455 S
C1116  H1215   1.087   1_455 S
C1117  C1162   1.332   .     S
C1117  H1171   1.087   .     S
C1118  H1126   1.084   .     S
C1119  H1127   1.084   .     S
C1119  C830    1.385   1_565 S
C1120  H1128   1.083   .     S
C1120  C842    1.385   1_565 S
Cu1121 O1147   1.956   .     S
Cu1121 Cu1122  2.708   .     S
Cu1121 O1135   1.959   .     S
Cu1121 N1133   2.035   .     S
Cu1121 O1143   1.948   .     S
Cu1121 O1144   1.958   .     S
Cu1122 N1134   2.035   .     S
Cu1122 O1142   1.948   .     S
Cu1122 O1141   1.959   .     S
Cu1122 O1146   1.956   .     S
Cu1122 O1145   1.958   .     S
H1123  C1162   1.087   .     S
H1124  O1140   0.991   .     S
H1125  C1209   1.087   1_455 S
H1132  O1137   0.991   .     S
O1136  S1149   1.504   .     D
O1137  S1149   1.675   .     S
O1138  S1150   1.504   .     D
O1139  S1150   1.501   .     D
O1140  S1150   1.675   .     S
O1148  S1149   1.501   .     D
C1151  C1154   1.443   .     S
C1151  O1188   1.294   .     A
C1151  O1181   1.303   .     A
C1152  C1154   1.397   .     A
C1152  H1175   1.083   .     S
C1153  C1159   1.443   .     S
C1153  C1165   1.401   .     A
C1153  C1166   1.397   .     A
C1154  C1164   1.401   .     A
C1155  N1180   1.345   .     A
C1155  H1176   1.080   .     S
C1156  H1177   1.080   .     S
C1156  N1179   1.345   .     A
C1156  C330    1.418   1_556 S
C1157  S1195   1.791   .     S
C1157  N1179   1.407   .     A
C1157  C327    1.418   1_556 S
C1158  N1180   1.407   .     A
C1158  S1196   1.791   .     S
C1159  O1189   1.294   .     A
C1159  O1187   1.303   .     A
C1160  O1192   1.295   .     A
C1160  C1162   1.433   .     S
C1160  O1190   1.297   .     A
C1161  O1193   1.295   .     A
C1161  C1163   1.433   .     S
C1161  O1191   1.297   .     A
C1163  C1208   1.332   .     S
C1163  H1217   1.087   .     S
C1164  H1172   1.084   .     S
C1165  H1173   1.084   .     S
C1165  C876    1.385   1_565 S
C1166  H1174   1.083   .     S
C1166  C888    1.385   1_565 S
Cu1167 O1193   1.956   .     S
Cu1167 Cu1168  2.708   .     S
Cu1167 O1181   1.959   .     S
Cu1167 N1179   2.035   .     S
Cu1167 O1189   1.948   .     S
Cu1167 O1190   1.958   .     S
Cu1168 N1180   2.035   .     S
Cu1168 O1188   1.948   .     S
Cu1168 O1187   1.959   .     S
Cu1168 O1192   1.956   .     S
Cu1168 O1191   1.958   .     S
H1169  C1208   1.087   .     S
H1170  O1186   0.991   .     S
H1178  O1183   0.991   .     S
O1182  S1195   1.504   .     D
O1183  S1195   1.675   .     S
O1184  S1196   1.504   .     D
O1185  S1196   1.501   .     D
O1186  S1196   1.675   .     S
O1194  S1195   1.501   .     D
C1197  C1200   1.443   .     S
C1197  O1234   1.294   .     A
C1197  O1227   1.303   .     A
C1198  C1200   1.397   .     A
C1198  H1221   1.083   .     S
C1199  C1205   1.443   .     S
C1199  C1211   1.401   .     A
C1199  C1212   1.397   .     A
C1200  C1210   1.401   .     A
C1201  N1226   1.345   .     A
C1201  H1222   1.080   .     S
C1202  H1223   1.080   .     S
C1202  N1225   1.345   .     A
C1202  C376    1.418   1_556 S
C1203  S1241   1.791   .     S
C1203  N1225   1.407   .     A
C1203  C373    1.418   1_556 S
C1204  N1226   1.407   .     A
C1204  S1242   1.791   .     S
C1205  O1235   1.294   .     A
C1205  O1233   1.303   .     A
C1206  O1238   1.295   .     A
C1206  C1208   1.433   .     S
C1206  O1236   1.297   .     A
C1207  O1239   1.295   .     A
C1207  C1209   1.433   .     S
C1207  O1237   1.297   .     A
C1209  C1116   1.332   1_655 S
C1209  H1125   1.087   1_655 S
C1210  H1218   1.084   .     S
C1211  H1219   1.084   .     S
C1211  C922    1.385   1_565 S
C1212  H1220   1.083   .     S
C1212  C934    1.385   1_565 S
Cu1213 O1239   1.956   .     S
Cu1213 Cu1214  2.708   .     S
Cu1213 O1227   1.959   .     S
Cu1213 N1225   2.035   .     S
Cu1213 O1235   1.948   .     S
Cu1213 O1236   1.958   .     S
Cu1214 N1226   2.035   .     S
Cu1214 O1234   1.948   .     S
Cu1214 O1233   1.959   .     S
Cu1214 O1238   1.956   .     S
Cu1214 O1237   1.958   .     S
H1215  C1116   1.087   1_655 S
H1216  O1232   0.991   .     S
H1224  O1229   0.991   .     S
O1228  S1241   1.504   .     D
O1229  S1241   1.675   .     S
O1230  S1242   1.504   .     D
O1231  S1242   1.501   .     D
O1232  S1242   1.675   .     S
O1240  S1241   1.501   .     D
