data_str_m2_o10_o17_pcu_sym.195
_audit_creation_date              2020-01-03
_audit_creation_method            'Materials Studio'
_symmetry_space_group_name_H-M    'P1'
_symmetry_Int_Tables_number       1
_symmetry_cell_setting            triclinic
loop_
_symmetry_equiv_pos_as_xyz
  x,y,z
_cell_length_a                    30.0481
_cell_length_b                    26.3677
_cell_length_c                    22.3234
_cell_angle_alpha                 102.7985
_cell_angle_beta                  93.8292
_cell_angle_gamma                 92.4214
loop_
_atom_site_label
_atom_site_type_symbol
_atom_site_fract_x
_atom_site_fract_y
_atom_site_fract_z
_atom_site_U_iso_or_equiv
_atom_site_adp_type
_atom_site_occupancy
C1     C     0.25053   0.06695   0.15152   0.00000  Uiso   1.00
C2     C     0.25124   0.26649   0.18194   0.00000  Uiso   1.00
C3     C     0.01278   0.07993   0.10716   0.00000  Uiso   1.00
C4     C     0.48705   0.26026   0.23116   0.00000  Uiso   1.00
C5     C     0.25867   0.01260   0.14502   0.00000  Uiso   1.00
C6     C     0.24634   0.32141   0.18992   0.00000  Uiso   1.00
C7     C     0.16451   0.16594   0.16750   0.00000  Uiso   1.00
C8     C     0.33544   0.17127   0.16638   0.00000  Uiso   1.00
C9     C     0.41067   0.21908   0.20118   0.00000  Uiso   1.00
C10    C     0.08902   0.11951   0.13949   0.00000  Uiso   1.00
C11    C     0.38381   0.17596   0.16507   0.00000  Uiso   1.00
C12    C     0.11622   0.16450   0.16897   0.00000  Uiso   1.00
C13    C     0.40315   0.13439   0.12831   0.00000  Uiso   1.00
C14    C     0.09755   0.21005   0.19820   0.00000  Uiso   1.00
C15    C     0.44893   0.13083   0.13158   0.00000  Uiso   1.00
C16    C     0.05148   0.21260   0.19825   0.00000  Uiso   1.00
C17    C     0.47673   0.17288   0.16594   0.00000  Uiso   1.00
C18    C     0.02347   0.16945   0.16681   0.00000  Uiso   1.00
C19    C     0.45790   0.21807   0.19950   0.00000  Uiso   1.00
C20    C     0.04200   0.12256   0.13724   0.00000  Uiso   1.00
C21    C     0.46699   0.08476   0.10244   0.00000  Uiso   1.00
C22    C     0.03307   0.25786   0.22932   0.00000  Uiso   1.00
Cu23   Cu    0.25501   0.17246   0.22813   0.00000  Uiso   1.00
Cu24   Cu    0.24500   0.16087   0.10521   0.00000  Uiso   1.00
H25    H     0.38227   0.10332   0.09880   0.00000  Uiso   1.00
H26    H     0.11924   0.24381   0.22058   0.00000  Uiso   1.00
H27    H     0.44551   0.05168   0.07753   0.00000  Uiso   1.00
H28    H     0.05428   0.29145   0.25306   0.00000  Uiso   1.00
H29    H     0.02449   0.04242   0.08654   0.00000  Uiso   1.00
H30    H     0.47509   0.29585   0.25737   0.00000  Uiso   1.00
H31    H     0.21320   0.12887   0.31687   0.00000  Uiso   1.00
H32    H     0.28652   0.20488   0.01661   0.00000  Uiso   1.00
N33    N     0.23745   0.15214   0.01284   0.00000  Uiso   1.00
N34    N     0.26256   0.18119   0.32049   0.00000  Uiso   1.00
O35    O     0.25326   0.09538   0.20659   0.00000  Uiso   1.00
O36    O     0.24675   0.23796   0.12674   0.00000  Uiso   1.00
O37    O     0.24480   0.08559   0.10279   0.00000  Uiso   1.00
O38    O     0.25520   0.24774   0.23055   0.00000  Uiso   1.00
O39    O     0.18936   0.17155   0.21857   0.00000  Uiso   1.00
O40    O     0.31065   0.16179   0.11476   0.00000  Uiso   1.00
O41    O     0.18090   0.16176   0.11477   0.00000  Uiso   1.00
O42    O     0.31910   0.17157   0.21857   0.00000  Uiso   1.00
C43    C     0.38948   0.26562   0.24020   0.00000  Uiso   1.00
C44    C     0.38728   0.31123   0.20794   0.00000  Uiso   1.00
C45    C     0.36919   0.02551   0.24926   0.00000  Uiso   1.00
H46    H     0.39098   0.03822   0.29271   0.00000  Uiso   1.00
H47    H     0.36843   0.05819   0.22534   0.00000  Uiso   1.00
H48    H     0.33474   0.01630   0.26044   0.00000  Uiso   1.00
H49    H     0.42074   0.32232   0.19496   0.00000  Uiso   1.00
H50    H     0.36508   0.29903   0.16499   0.00000  Uiso   1.00
H51    H     0.35517   0.25577   0.25061   0.00000  Uiso   1.00
H52    H     0.40816   0.27776   0.28619   0.00000  Uiso   1.00
C53    C     0.10989   0.06754   0.11818   0.00000  Uiso   1.00
C54    C     0.10975   0.04885   0.04822   0.00000  Uiso   1.00
C55    C     0.12334   0.32571   0.03253   0.00000  Uiso   1.00
H56    H     0.15816   0.32325   0.05140   0.00000  Uiso   1.00
H57    H     0.10052   0.30036   0.05195   0.00000  Uiso   1.00
H58    H     0.12132   0.31045   0.31544   0.00000  Uiso   1.00
H59    H     0.07667   0.05133   0.02428   0.00000  Uiso   1.00
H60    H     0.13402   0.07428   0.03128   0.00000  Uiso   1.00
H61    H     0.14522   0.06977   0.13553   0.00000  Uiso   1.00
H62    H     0.09287   0.03795   0.13872   0.00000  Uiso   1.00
C63    C     0.28346   0.32004   0.08880   0.00000  Uiso   1.00
C64    C     0.32187   0.02070   0.07440   0.00000  Uiso   1.00
H65    H     0.30970   0.05180   0.05236   0.00000  Uiso   1.00
H66    H     0.34264   0.03771   0.11757   0.00000  Uiso   1.00
H67    H     0.34307   0.32983   0.04174   0.00000  Uiso   1.00
H68    H     0.30047   0.28542   0.09635   0.00000  Uiso   1.00
H69    H     0.25929   0.30823   0.04763   0.00000  Uiso   1.00
C70    C     0.22317   0.01304   0.24792   0.00000  Uiso   1.00
C71    C     0.17673   0.03004   0.23252   0.00000  Uiso   1.00
H72    H     0.17858   0.06925   0.22305   0.00000  Uiso   1.00
H73    H     0.15895   0.00126   0.19338   0.00000  Uiso   1.00
H74    H     0.15690   0.03362   0.27266   0.00000  Uiso   1.00
H75    H     0.21788   0.31861   0.27793   0.00000  Uiso   1.00
H76    H     0.24453   0.04501   0.27843   0.00000  Uiso   1.00
C77    C     0.75053   0.06695   0.15152   0.00000  Uiso   1.00
C78    C     0.75124   0.26649   0.18194   0.00000  Uiso   1.00
C79    C     0.51278   0.07993   0.10716   0.00000  Uiso   1.00
C80    C     0.98705   0.26026   0.23116   0.00000  Uiso   1.00
C81    C     0.75867   0.01260   0.14502   0.00000  Uiso   1.00
C82    C     0.74634   0.32141   0.18992   0.00000  Uiso   1.00
C83    C     0.66451   0.16594   0.16750   0.00000  Uiso   1.00
C84    C     0.83544   0.17127   0.16638   0.00000  Uiso   1.00
C85    C     0.91067   0.21908   0.20118   0.00000  Uiso   1.00
C86    C     0.58902   0.11951   0.13949   0.00000  Uiso   1.00
C87    C     0.88381   0.17596   0.16507   0.00000  Uiso   1.00
C88    C     0.61622   0.16450   0.16897   0.00000  Uiso   1.00
C89    C     0.90315   0.13439   0.12831   0.00000  Uiso   1.00
C90    C     0.59755   0.21005   0.19820   0.00000  Uiso   1.00
C91    C     0.94893   0.13083   0.13158   0.00000  Uiso   1.00
C92    C     0.55148   0.21260   0.19825   0.00000  Uiso   1.00
C93    C     0.97673   0.17288   0.16594   0.00000  Uiso   1.00
C94    C     0.52347   0.16945   0.16681   0.00000  Uiso   1.00
C95    C     0.95790   0.21807   0.19950   0.00000  Uiso   1.00
C96    C     0.54200   0.12256   0.13724   0.00000  Uiso   1.00
C97    C     0.96699   0.08476   0.10244   0.00000  Uiso   1.00
C98    C     0.53307   0.25786   0.22932   0.00000  Uiso   1.00
Cu99   Cu    0.75501   0.17246   0.22813   0.00000  Uiso   1.00
Cu100  Cu    0.74500   0.16087   0.10521   0.00000  Uiso   1.00
H101   H     0.88227   0.10332   0.09880   0.00000  Uiso   1.00
H102   H     0.61924   0.24381   0.22058   0.00000  Uiso   1.00
H103   H     0.94551   0.05168   0.07753   0.00000  Uiso   1.00
H104   H     0.55428   0.29145   0.25306   0.00000  Uiso   1.00
H105   H     0.52449   0.04242   0.08654   0.00000  Uiso   1.00
H106   H     0.97509   0.29585   0.25737   0.00000  Uiso   1.00
H107   H     0.71320   0.12887   0.31687   0.00000  Uiso   1.00
H108   H     0.78652   0.20488   0.01661   0.00000  Uiso   1.00
N109   N     0.73745   0.15214   0.01284   0.00000  Uiso   1.00
N110   N     0.76256   0.18119   0.32049   0.00000  Uiso   1.00
O111   O     0.75326   0.09538   0.20659   0.00000  Uiso   1.00
O112   O     0.74675   0.23796   0.12674   0.00000  Uiso   1.00
O113   O     0.74480   0.08559   0.10279   0.00000  Uiso   1.00
O114   O     0.75520   0.24774   0.23055   0.00000  Uiso   1.00
O115   O     0.68936   0.17155   0.21857   0.00000  Uiso   1.00
O116   O     0.81065   0.16179   0.11476   0.00000  Uiso   1.00
O117   O     0.68090   0.16176   0.11477   0.00000  Uiso   1.00
O118   O     0.81910   0.17157   0.21857   0.00000  Uiso   1.00
C119   C     0.88948   0.26562   0.24020   0.00000  Uiso   1.00
C120   C     0.88728   0.31123   0.20794   0.00000  Uiso   1.00
C121   C     0.86919   0.02551   0.24926   0.00000  Uiso   1.00
H122   H     0.89098   0.03822   0.29271   0.00000  Uiso   1.00
H123   H     0.86843   0.05819   0.22534   0.00000  Uiso   1.00
H124   H     0.83474   0.01630   0.26044   0.00000  Uiso   1.00
H125   H     0.92074   0.32232   0.19496   0.00000  Uiso   1.00
H126   H     0.86508   0.29903   0.16499   0.00000  Uiso   1.00
H127   H     0.85517   0.25577   0.25061   0.00000  Uiso   1.00
H128   H     0.90816   0.27776   0.28619   0.00000  Uiso   1.00
C129   C     0.60989   0.06754   0.11818   0.00000  Uiso   1.00
C130   C     0.60975   0.04885   0.04822   0.00000  Uiso   1.00
C131   C     0.62334   0.32571   0.03253   0.00000  Uiso   1.00
H132   H     0.65816   0.32325   0.05140   0.00000  Uiso   1.00
H133   H     0.60052   0.30036   0.05195   0.00000  Uiso   1.00
H134   H     0.62132   0.31045   0.31544   0.00000  Uiso   1.00
H135   H     0.57667   0.05133   0.02428   0.00000  Uiso   1.00
H136   H     0.63402   0.07428   0.03128   0.00000  Uiso   1.00
H137   H     0.64522   0.06977   0.13553   0.00000  Uiso   1.00
H138   H     0.59287   0.03795   0.13872   0.00000  Uiso   1.00
C139   C     0.78346   0.32004   0.08880   0.00000  Uiso   1.00
C140   C     0.82187   0.02070   0.07440   0.00000  Uiso   1.00
H141   H     0.80970   0.05180   0.05236   0.00000  Uiso   1.00
H142   H     0.84264   0.03771   0.11757   0.00000  Uiso   1.00
H143   H     0.84307   0.32983   0.04174   0.00000  Uiso   1.00
H144   H     0.80047   0.28542   0.09635   0.00000  Uiso   1.00
H145   H     0.75929   0.30823   0.04763   0.00000  Uiso   1.00
C146   C     0.72317   0.01304   0.24792   0.00000  Uiso   1.00
C147   C     0.67673   0.03004   0.23252   0.00000  Uiso   1.00
H148   H     0.67858   0.06925   0.22305   0.00000  Uiso   1.00
H149   H     0.65895   0.00126   0.19338   0.00000  Uiso   1.00
H150   H     0.65690   0.03362   0.27266   0.00000  Uiso   1.00
H151   H     0.71788   0.31861   0.27793   0.00000  Uiso   1.00
H152   H     0.74453   0.04501   0.27843   0.00000  Uiso   1.00
C153   C     0.25053   0.40028   0.15152   0.00000  Uiso   1.00
C154   C     0.25124   0.59982   0.18194   0.00000  Uiso   1.00
C155   C     0.01278   0.41327   0.10716   0.00000  Uiso   1.00
C156   C     0.48705   0.59360   0.23116   0.00000  Uiso   1.00
C157   C     0.25867   0.34593   0.14502   0.00000  Uiso   1.00
C158   C     0.24634   0.65475   0.18992   0.00000  Uiso   1.00
C159   C     0.16451   0.49928   0.16750   0.00000  Uiso   1.00
C160   C     0.33544   0.50460   0.16638   0.00000  Uiso   1.00
C161   C     0.41067   0.55242   0.20118   0.00000  Uiso   1.00
C162   C     0.08902   0.45284   0.13949   0.00000  Uiso   1.00
C163   C     0.38381   0.50929   0.16507   0.00000  Uiso   1.00
C164   C     0.11622   0.49783   0.16897   0.00000  Uiso   1.00
C165   C     0.40315   0.46772   0.12831   0.00000  Uiso   1.00
C166   C     0.09755   0.54338   0.19820   0.00000  Uiso   1.00
C167   C     0.44893   0.46416   0.13158   0.00000  Uiso   1.00
C168   C     0.05148   0.54593   0.19825   0.00000  Uiso   1.00
C169   C     0.47673   0.50621   0.16594   0.00000  Uiso   1.00
C170   C     0.02347   0.50278   0.16681   0.00000  Uiso   1.00
C171   C     0.45790   0.55140   0.19950   0.00000  Uiso   1.00
C172   C     0.04200   0.45590   0.13724   0.00000  Uiso   1.00
C173   C     0.46699   0.41810   0.10244   0.00000  Uiso   1.00
C174   C     0.03307   0.59119   0.22932   0.00000  Uiso   1.00
Cu175  Cu    0.25501   0.50579   0.22813   0.00000  Uiso   1.00
Cu176  Cu    0.24500   0.49421   0.10521   0.00000  Uiso   1.00
H177   H     0.38227   0.43665   0.09880   0.00000  Uiso   1.00
H178   H     0.11924   0.57714   0.22058   0.00000  Uiso   1.00
H179   H     0.44551   0.38501   0.07753   0.00000  Uiso   1.00
H180   H     0.05428   0.62479   0.25306   0.00000  Uiso   1.00
H181   H     0.02449   0.37575   0.08654   0.00000  Uiso   1.00
H182   H     0.47509   0.62918   0.25737   0.00000  Uiso   1.00
H183   H     0.21320   0.46221   0.31687   0.00000  Uiso   1.00
H184   H     0.28652   0.53821   0.01661   0.00000  Uiso   1.00
N185   N     0.23745   0.48547   0.01284   0.00000  Uiso   1.00
N186   N     0.26256   0.51453   0.32049   0.00000  Uiso   1.00
O187   O     0.25326   0.42871   0.20659   0.00000  Uiso   1.00
O188   O     0.24675   0.57129   0.12674   0.00000  Uiso   1.00
O189   O     0.24480   0.41892   0.10279   0.00000  Uiso   1.00
O190   O     0.25520   0.58108   0.23055   0.00000  Uiso   1.00
O191   O     0.18936   0.50488   0.21857   0.00000  Uiso   1.00
O192   O     0.31065   0.49512   0.11476   0.00000  Uiso   1.00
O193   O     0.18090   0.49510   0.11477   0.00000  Uiso   1.00
O194   O     0.31910   0.50490   0.21857   0.00000  Uiso   1.00
C195   C     0.38948   0.59895   0.24020   0.00000  Uiso   1.00
C196   C     0.38728   0.64456   0.20794   0.00000  Uiso   1.00
C197   C     0.36919   0.35885   0.24926   0.00000  Uiso   1.00
H198   H     0.39098   0.37155   0.29271   0.00000  Uiso   1.00
H199   H     0.36843   0.39152   0.22534   0.00000  Uiso   1.00
H200   H     0.33474   0.34964   0.26044   0.00000  Uiso   1.00
H201   H     0.42074   0.65565   0.19496   0.00000  Uiso   1.00
H202   H     0.36508   0.63236   0.16499   0.00000  Uiso   1.00
H203   H     0.35517   0.58910   0.25061   0.00000  Uiso   1.00
H204   H     0.40816   0.61110   0.28619   0.00000  Uiso   1.00
C205   C     0.10989   0.40088   0.11818   0.00000  Uiso   1.00
C206   C     0.10975   0.38219   0.04822   0.00000  Uiso   1.00
C207   C     0.12334   0.65904   0.03253   0.00000  Uiso   1.00
H208   H     0.15816   0.65658   0.05140   0.00000  Uiso   1.00
H209   H     0.10052   0.63369   0.05195   0.00000  Uiso   1.00
H210   H     0.12132   0.64379   0.31544   0.00000  Uiso   1.00
H211   H     0.07667   0.38466   0.02428   0.00000  Uiso   1.00
H212   H     0.13402   0.40761   0.03128   0.00000  Uiso   1.00
H213   H     0.14522   0.40310   0.13553   0.00000  Uiso   1.00
H214   H     0.09287   0.37128   0.13872   0.00000  Uiso   1.00
C215   C     0.28346   0.65338   0.08880   0.00000  Uiso   1.00
C216   C     0.32187   0.35403   0.07440   0.00000  Uiso   1.00
H217   H     0.30970   0.38513   0.05236   0.00000  Uiso   1.00
H218   H     0.34264   0.37105   0.11757   0.00000  Uiso   1.00
H219   H     0.34307   0.66316   0.04174   0.00000  Uiso   1.00
H220   H     0.30047   0.61876   0.09635   0.00000  Uiso   1.00
H221   H     0.25929   0.64157   0.04763   0.00000  Uiso   1.00
C222   C     0.22317   0.34637   0.24792   0.00000  Uiso   1.00
C223   C     0.17673   0.36338   0.23252   0.00000  Uiso   1.00
H224   H     0.17858   0.40259   0.22305   0.00000  Uiso   1.00
H225   H     0.15895   0.33459   0.19338   0.00000  Uiso   1.00
H226   H     0.15690   0.36695   0.27266   0.00000  Uiso   1.00
H227   H     0.21788   0.65194   0.27793   0.00000  Uiso   1.00
H228   H     0.24453   0.37834   0.27843   0.00000  Uiso   1.00
C229   C     0.75053   0.40028   0.15152   0.00000  Uiso   1.00
C230   C     0.75124   0.59982   0.18194   0.00000  Uiso   1.00
C231   C     0.51278   0.41327   0.10716   0.00000  Uiso   1.00
C232   C     0.98705   0.59360   0.23116   0.00000  Uiso   1.00
C233   C     0.75867   0.34593   0.14502   0.00000  Uiso   1.00
C234   C     0.74634   0.65475   0.18992   0.00000  Uiso   1.00
C235   C     0.66451   0.49928   0.16750   0.00000  Uiso   1.00
C236   C     0.83544   0.50460   0.16638   0.00000  Uiso   1.00
C237   C     0.91067   0.55242   0.20118   0.00000  Uiso   1.00
C238   C     0.58902   0.45284   0.13949   0.00000  Uiso   1.00
C239   C     0.88381   0.50929   0.16507   0.00000  Uiso   1.00
C240   C     0.61622   0.49783   0.16897   0.00000  Uiso   1.00
C241   C     0.90315   0.46772   0.12831   0.00000  Uiso   1.00
C242   C     0.59755   0.54338   0.19820   0.00000  Uiso   1.00
C243   C     0.94893   0.46416   0.13158   0.00000  Uiso   1.00
C244   C     0.55148   0.54593   0.19825   0.00000  Uiso   1.00
C245   C     0.97673   0.50621   0.16594   0.00000  Uiso   1.00
C246   C     0.52347   0.50278   0.16681   0.00000  Uiso   1.00
C247   C     0.95790   0.55140   0.19950   0.00000  Uiso   1.00
C248   C     0.54200   0.45590   0.13724   0.00000  Uiso   1.00
C249   C     0.96699   0.41810   0.10244   0.00000  Uiso   1.00
C250   C     0.53307   0.59119   0.22932   0.00000  Uiso   1.00
Cu251  Cu    0.75501   0.50579   0.22813   0.00000  Uiso   1.00
Cu252  Cu    0.74500   0.49421   0.10521   0.00000  Uiso   1.00
H253   H     0.88227   0.43665   0.09880   0.00000  Uiso   1.00
H254   H     0.61924   0.57714   0.22058   0.00000  Uiso   1.00
H255   H     0.94551   0.38501   0.07753   0.00000  Uiso   1.00
H256   H     0.55428   0.62479   0.25306   0.00000  Uiso   1.00
H257   H     0.52449   0.37575   0.08654   0.00000  Uiso   1.00
H258   H     0.97509   0.62918   0.25737   0.00000  Uiso   1.00
H259   H     0.71320   0.46221   0.31687   0.00000  Uiso   1.00
H260   H     0.78652   0.53821   0.01661   0.00000  Uiso   1.00
N261   N     0.73745   0.48547   0.01284   0.00000  Uiso   1.00
N262   N     0.76256   0.51453   0.32049   0.00000  Uiso   1.00
O263   O     0.75326   0.42871   0.20659   0.00000  Uiso   1.00
O264   O     0.74675   0.57129   0.12674   0.00000  Uiso   1.00
O265   O     0.74480   0.41892   0.10279   0.00000  Uiso   1.00
O266   O     0.75520   0.58108   0.23055   0.00000  Uiso   1.00
O267   O     0.68936   0.50488   0.21857   0.00000  Uiso   1.00
O268   O     0.81065   0.49512   0.11476   0.00000  Uiso   1.00
O269   O     0.68090   0.49510   0.11477   0.00000  Uiso   1.00
O270   O     0.81910   0.50490   0.21857   0.00000  Uiso   1.00
C271   C     0.88948   0.59895   0.24020   0.00000  Uiso   1.00
C272   C     0.88728   0.64456   0.20794   0.00000  Uiso   1.00
C273   C     0.86919   0.35885   0.24926   0.00000  Uiso   1.00
H274   H     0.89098   0.37155   0.29271   0.00000  Uiso   1.00
H275   H     0.86843   0.39152   0.22534   0.00000  Uiso   1.00
H276   H     0.83474   0.34964   0.26044   0.00000  Uiso   1.00
H277   H     0.92074   0.65565   0.19496   0.00000  Uiso   1.00
H278   H     0.86508   0.63236   0.16499   0.00000  Uiso   1.00
H279   H     0.85517   0.58910   0.25061   0.00000  Uiso   1.00
H280   H     0.90816   0.61110   0.28619   0.00000  Uiso   1.00
C281   C     0.60989   0.40088   0.11818   0.00000  Uiso   1.00
C282   C     0.60975   0.38219   0.04822   0.00000  Uiso   1.00
C283   C     0.62334   0.65904   0.03253   0.00000  Uiso   1.00
H284   H     0.65816   0.65658   0.05140   0.00000  Uiso   1.00
H285   H     0.60052   0.63369   0.05195   0.00000  Uiso   1.00
H286   H     0.62132   0.64379   0.31544   0.00000  Uiso   1.00
H287   H     0.57667   0.38466   0.02428   0.00000  Uiso   1.00
H288   H     0.63402   0.40761   0.03128   0.00000  Uiso   1.00
H289   H     0.64522   0.40310   0.13553   0.00000  Uiso   1.00
H290   H     0.59287   0.37128   0.13872   0.00000  Uiso   1.00
C291   C     0.78346   0.65338   0.08880   0.00000  Uiso   1.00
C292   C     0.82187   0.35403   0.07440   0.00000  Uiso   1.00
H293   H     0.80970   0.38513   0.05236   0.00000  Uiso   1.00
H294   H     0.84264   0.37105   0.11757   0.00000  Uiso   1.00
H295   H     0.84307   0.66316   0.04174   0.00000  Uiso   1.00
H296   H     0.80047   0.61876   0.09635   0.00000  Uiso   1.00
H297   H     0.75929   0.64157   0.04763   0.00000  Uiso   1.00
C298   C     0.72317   0.34637   0.24792   0.00000  Uiso   1.00
C299   C     0.67673   0.36338   0.23252   0.00000  Uiso   1.00
H300   H     0.67858   0.40259   0.22305   0.00000  Uiso   1.00
H301   H     0.65895   0.33459   0.19338   0.00000  Uiso   1.00
H302   H     0.65690   0.36695   0.27266   0.00000  Uiso   1.00
H303   H     0.71788   0.65194   0.27793   0.00000  Uiso   1.00
H304   H     0.74453   0.37834   0.27843   0.00000  Uiso   1.00
C305   C     0.25053   0.73362   0.15152   0.00000  Uiso   1.00
C306   C     0.25124   0.93315   0.18194   0.00000  Uiso   1.00
C307   C     0.01278   0.74660   0.10716   0.00000  Uiso   1.00
C308   C     0.48705   0.92693   0.23116   0.00000  Uiso   1.00
C309   C     0.25867   0.67927   0.14502   0.00000  Uiso   1.00
C310   C     0.24634   0.98808   0.18992   0.00000  Uiso   1.00
C311   C     0.16451   0.83261   0.16750   0.00000  Uiso   1.00
C312   C     0.33544   0.83793   0.16638   0.00000  Uiso   1.00
C313   C     0.41067   0.88575   0.20118   0.00000  Uiso   1.00
C314   C     0.08902   0.78618   0.13949   0.00000  Uiso   1.00
C315   C     0.38381   0.84263   0.16507   0.00000  Uiso   1.00
C316   C     0.11622   0.83117   0.16897   0.00000  Uiso   1.00
C317   C     0.40315   0.80105   0.12831   0.00000  Uiso   1.00
C318   C     0.09755   0.87672   0.19820   0.00000  Uiso   1.00
C319   C     0.44893   0.79749   0.13158   0.00000  Uiso   1.00
C320   C     0.05148   0.87927   0.19825   0.00000  Uiso   1.00
C321   C     0.47673   0.83955   0.16594   0.00000  Uiso   1.00
C322   C     0.02347   0.83611   0.16681   0.00000  Uiso   1.00
C323   C     0.45790   0.88473   0.19950   0.00000  Uiso   1.00
C324   C     0.04200   0.78923   0.13724   0.00000  Uiso   1.00
C325   C     0.46699   0.75143   0.10244   0.00000  Uiso   1.00
C326   C     0.03307   0.92453   0.22932   0.00000  Uiso   1.00
Cu327  Cu    0.25501   0.83913   0.22813   0.00000  Uiso   1.00
Cu328  Cu    0.24500   0.82754   0.10521   0.00000  Uiso   1.00
H329   H     0.38227   0.76998   0.09880   0.00000  Uiso   1.00
H330   H     0.11924   0.91047   0.22058   0.00000  Uiso   1.00
H331   H     0.44551   0.71835   0.07753   0.00000  Uiso   1.00
H332   H     0.05428   0.95812   0.25306   0.00000  Uiso   1.00
H333   H     0.02449   0.70909   0.08654   0.00000  Uiso   1.00
H334   H     0.47509   0.96251   0.25737   0.00000  Uiso   1.00
H335   H     0.21320   0.79554   0.31687   0.00000  Uiso   1.00
H336   H     0.28652   0.87154   0.01661   0.00000  Uiso   1.00
N337   N     0.23745   0.81881   0.01284   0.00000  Uiso   1.00
N338   N     0.26256   0.84786   0.32049   0.00000  Uiso   1.00
O339   O     0.25326   0.76204   0.20659   0.00000  Uiso   1.00
O340   O     0.24675   0.90462   0.12674   0.00000  Uiso   1.00
O341   O     0.24480   0.75226   0.10279   0.00000  Uiso   1.00
O342   O     0.25520   0.91441   0.23055   0.00000  Uiso   1.00
O343   O     0.18936   0.83821   0.21857   0.00000  Uiso   1.00
O344   O     0.31065   0.82845   0.11476   0.00000  Uiso   1.00
O345   O     0.18090   0.82843   0.11477   0.00000  Uiso   1.00
O346   O     0.31910   0.83824   0.21857   0.00000  Uiso   1.00
C347   C     0.38948   0.93228   0.24020   0.00000  Uiso   1.00
C348   C     0.38728   0.97790   0.20794   0.00000  Uiso   1.00
C349   C     0.36919   0.69218   0.24926   0.00000  Uiso   1.00
H350   H     0.39098   0.70489   0.29271   0.00000  Uiso   1.00
H351   H     0.36843   0.72486   0.22534   0.00000  Uiso   1.00
H352   H     0.33474   0.68297   0.26044   0.00000  Uiso   1.00
H353   H     0.42074   0.98899   0.19496   0.00000  Uiso   1.00
H354   H     0.36508   0.96569   0.16499   0.00000  Uiso   1.00
H355   H     0.35517   0.92244   0.25061   0.00000  Uiso   1.00
H356   H     0.40816   0.94443   0.28619   0.00000  Uiso   1.00
C357   C     0.10989   0.73421   0.11818   0.00000  Uiso   1.00
C358   C     0.10975   0.71552   0.04822   0.00000  Uiso   1.00
C359   C     0.12334   0.99238   0.03253   0.00000  Uiso   1.00
H360   H     0.15816   0.98991   0.05140   0.00000  Uiso   1.00
H361   H     0.10052   0.96703   0.05195   0.00000  Uiso   1.00
H362   H     0.12132   0.97712   0.31544   0.00000  Uiso   1.00
H363   H     0.07667   0.71799   0.02428   0.00000  Uiso   1.00
H364   H     0.13402   0.74094   0.03128   0.00000  Uiso   1.00
H365   H     0.14522   0.73644   0.13553   0.00000  Uiso   1.00
H366   H     0.09287   0.70461   0.13872   0.00000  Uiso   1.00
C367   C     0.28346   0.98671   0.08880   0.00000  Uiso   1.00
C368   C     0.32187   0.68737   0.07440   0.00000  Uiso   1.00
H369   H     0.30970   0.71846   0.05236   0.00000  Uiso   1.00
H370   H     0.34264   0.70438   0.11757   0.00000  Uiso   1.00
H371   H     0.34307   0.99649   0.04174   0.00000  Uiso   1.00
H372   H     0.30047   0.95209   0.09635   0.00000  Uiso   1.00
H373   H     0.25929   0.97490   0.04763   0.00000  Uiso   1.00
C374   C     0.22317   0.67971   0.24792   0.00000  Uiso   1.00
C375   C     0.17673   0.69671   0.23252   0.00000  Uiso   1.00
H376   H     0.17858   0.73592   0.22305   0.00000  Uiso   1.00
H377   H     0.15895   0.66793   0.19338   0.00000  Uiso   1.00
H378   H     0.15690   0.70029   0.27266   0.00000  Uiso   1.00
H379   H     0.21788   0.98528   0.27793   0.00000  Uiso   1.00
H380   H     0.24453   0.71168   0.27843   0.00000  Uiso   1.00
C381   C     0.75053   0.73362   0.15152   0.00000  Uiso   1.00
C382   C     0.75124   0.93315   0.18194   0.00000  Uiso   1.00
C383   C     0.51278   0.74660   0.10716   0.00000  Uiso   1.00
C384   C     0.98705   0.92693   0.23116   0.00000  Uiso   1.00
C385   C     0.75867   0.67927   0.14502   0.00000  Uiso   1.00
C386   C     0.74634   0.98808   0.18992   0.00000  Uiso   1.00
C387   C     0.66451   0.83261   0.16750   0.00000  Uiso   1.00
C388   C     0.83544   0.83793   0.16638   0.00000  Uiso   1.00
C389   C     0.91067   0.88575   0.20118   0.00000  Uiso   1.00
C390   C     0.58902   0.78618   0.13949   0.00000  Uiso   1.00
C391   C     0.88381   0.84263   0.16507   0.00000  Uiso   1.00
C392   C     0.61622   0.83117   0.16897   0.00000  Uiso   1.00
C393   C     0.90315   0.80105   0.12831   0.00000  Uiso   1.00
C394   C     0.59755   0.87672   0.19820   0.00000  Uiso   1.00
C395   C     0.94893   0.79749   0.13158   0.00000  Uiso   1.00
C396   C     0.55148   0.87927   0.19825   0.00000  Uiso   1.00
C397   C     0.97673   0.83955   0.16594   0.00000  Uiso   1.00
C398   C     0.52347   0.83611   0.16681   0.00000  Uiso   1.00
C399   C     0.95790   0.88473   0.19950   0.00000  Uiso   1.00
C400   C     0.54200   0.78923   0.13724   0.00000  Uiso   1.00
C401   C     0.96699   0.75143   0.10244   0.00000  Uiso   1.00
C402   C     0.53307   0.92453   0.22932   0.00000  Uiso   1.00
Cu403  Cu    0.75501   0.83913   0.22813   0.00000  Uiso   1.00
Cu404  Cu    0.74500   0.82754   0.10521   0.00000  Uiso   1.00
H405   H     0.88227   0.76998   0.09880   0.00000  Uiso   1.00
H406   H     0.61924   0.91047   0.22058   0.00000  Uiso   1.00
H407   H     0.94551   0.71835   0.07753   0.00000  Uiso   1.00
H408   H     0.55428   0.95812   0.25306   0.00000  Uiso   1.00
H409   H     0.52449   0.70909   0.08654   0.00000  Uiso   1.00
H410   H     0.97509   0.96251   0.25737   0.00000  Uiso   1.00
H411   H     0.71320   0.79554   0.31687   0.00000  Uiso   1.00
H412   H     0.78652   0.87154   0.01661   0.00000  Uiso   1.00
N413   N     0.73745   0.81881   0.01284   0.00000  Uiso   1.00
N414   N     0.76256   0.84786   0.32049   0.00000  Uiso   1.00
O415   O     0.75326   0.76204   0.20659   0.00000  Uiso   1.00
O416   O     0.74675   0.90462   0.12674   0.00000  Uiso   1.00
O417   O     0.74480   0.75226   0.10279   0.00000  Uiso   1.00
O418   O     0.75520   0.91441   0.23055   0.00000  Uiso   1.00
O419   O     0.68936   0.83821   0.21857   0.00000  Uiso   1.00
O420   O     0.81065   0.82845   0.11476   0.00000  Uiso   1.00
O421   O     0.68090   0.82843   0.11477   0.00000  Uiso   1.00
O422   O     0.81910   0.83824   0.21857   0.00000  Uiso   1.00
C423   C     0.88948   0.93228   0.24020   0.00000  Uiso   1.00
C424   C     0.88728   0.97790   0.20794   0.00000  Uiso   1.00
C425   C     0.86919   0.69218   0.24926   0.00000  Uiso   1.00
H426   H     0.89098   0.70489   0.29271   0.00000  Uiso   1.00
H427   H     0.86843   0.72486   0.22534   0.00000  Uiso   1.00
H428   H     0.83474   0.68297   0.26044   0.00000  Uiso   1.00
H429   H     0.92074   0.98899   0.19496   0.00000  Uiso   1.00
H430   H     0.86508   0.96569   0.16499   0.00000  Uiso   1.00
H431   H     0.85517   0.92244   0.25061   0.00000  Uiso   1.00
H432   H     0.90816   0.94443   0.28619   0.00000  Uiso   1.00
C433   C     0.60989   0.73421   0.11818   0.00000  Uiso   1.00
C434   C     0.60975   0.71552   0.04822   0.00000  Uiso   1.00
C435   C     0.62334   0.99238   0.03253   0.00000  Uiso   1.00
H436   H     0.65816   0.98991   0.05140   0.00000  Uiso   1.00
H437   H     0.60052   0.96703   0.05195   0.00000  Uiso   1.00
H438   H     0.62132   0.97712   0.31544   0.00000  Uiso   1.00
H439   H     0.57667   0.71799   0.02428   0.00000  Uiso   1.00
H440   H     0.63402   0.74094   0.03128   0.00000  Uiso   1.00
H441   H     0.64522   0.73644   0.13553   0.00000  Uiso   1.00
H442   H     0.59287   0.70461   0.13872   0.00000  Uiso   1.00
C443   C     0.78346   0.98671   0.08880   0.00000  Uiso   1.00
C444   C     0.82187   0.68737   0.07440   0.00000  Uiso   1.00
H445   H     0.80970   0.71846   0.05236   0.00000  Uiso   1.00
H446   H     0.84264   0.70438   0.11757   0.00000  Uiso   1.00
H447   H     0.84307   0.99649   0.04174   0.00000  Uiso   1.00
H448   H     0.80047   0.95209   0.09635   0.00000  Uiso   1.00
H449   H     0.75929   0.97490   0.04763   0.00000  Uiso   1.00
C450   C     0.72317   0.67971   0.24792   0.00000  Uiso   1.00
C451   C     0.67673   0.69671   0.23252   0.00000  Uiso   1.00
H452   H     0.67858   0.73592   0.22305   0.00000  Uiso   1.00
H453   H     0.65895   0.66793   0.19338   0.00000  Uiso   1.00
H454   H     0.65690   0.70029   0.27266   0.00000  Uiso   1.00
H455   H     0.71788   0.98528   0.27793   0.00000  Uiso   1.00
H456   H     0.74453   0.71168   0.27843   0.00000  Uiso   1.00
C457   C     0.25053   0.06695   0.48486   0.00000  Uiso   1.00
C458   C     0.25124   0.26649   0.51527   0.00000  Uiso   1.00
C459   C     0.01278   0.07993   0.44049   0.00000  Uiso   1.00
C460   C     0.48705   0.26026   0.56449   0.00000  Uiso   1.00
C461   C     0.25867   0.01260   0.47835   0.00000  Uiso   1.00
C462   C     0.24634   0.32141   0.52325   0.00000  Uiso   1.00
C463   C     0.16451   0.16594   0.50083   0.00000  Uiso   1.00
C464   C     0.33544   0.17127   0.49972   0.00000  Uiso   1.00
C465   C     0.41067   0.21908   0.53451   0.00000  Uiso   1.00
C466   C     0.08902   0.11951   0.47283   0.00000  Uiso   1.00
C467   C     0.38381   0.17596   0.49840   0.00000  Uiso   1.00
C468   C     0.11622   0.16450   0.50230   0.00000  Uiso   1.00
C469   C     0.40315   0.13439   0.46164   0.00000  Uiso   1.00
C470   C     0.09755   0.21005   0.53154   0.00000  Uiso   1.00
C471   C     0.44893   0.13083   0.46492   0.00000  Uiso   1.00
C472   C     0.05148   0.21260   0.53159   0.00000  Uiso   1.00
C473   C     0.47673   0.17288   0.49927   0.00000  Uiso   1.00
C474   C     0.02347   0.16945   0.50014   0.00000  Uiso   1.00
C475   C     0.45790   0.21807   0.53284   0.00000  Uiso   1.00
C476   C     0.04200   0.12256   0.47058   0.00000  Uiso   1.00
C477   C     0.46699   0.08476   0.43577   0.00000  Uiso   1.00
C478   C     0.03307   0.25786   0.56265   0.00000  Uiso   1.00
Cu479  Cu    0.25501   0.17246   0.56146   0.00000  Uiso   1.00
Cu480  Cu    0.24500   0.16087   0.43854   0.00000  Uiso   1.00
H481   H     0.38227   0.10332   0.43214   0.00000  Uiso   1.00
H482   H     0.11924   0.24381   0.55392   0.00000  Uiso   1.00
H483   H     0.44551   0.05168   0.41086   0.00000  Uiso   1.00
H484   H     0.05428   0.29145   0.58639   0.00000  Uiso   1.00
H485   H     0.02449   0.04242   0.41987   0.00000  Uiso   1.00
H486   H     0.47509   0.29585   0.59070   0.00000  Uiso   1.00
H487   H     0.21320   0.12887   0.65020   0.00000  Uiso   1.00
H488   H     0.28652   0.20488   0.34995   0.00000  Uiso   1.00
N489   N     0.23745   0.15214   0.34617   0.00000  Uiso   1.00
N490   N     0.26256   0.18119   0.65383   0.00000  Uiso   1.00
O491   O     0.25326   0.09538   0.53992   0.00000  Uiso   1.00
O492   O     0.24675   0.23796   0.46008   0.00000  Uiso   1.00
O493   O     0.24480   0.08559   0.43612   0.00000  Uiso   1.00
O494   O     0.25520   0.24774   0.56388   0.00000  Uiso   1.00
O495   O     0.18936   0.17155   0.55191   0.00000  Uiso   1.00
O496   O     0.31065   0.16179   0.44809   0.00000  Uiso   1.00
O497   O     0.18090   0.16176   0.44810   0.00000  Uiso   1.00
O498   O     0.31910   0.17157   0.55190   0.00000  Uiso   1.00
C499   C     0.38948   0.26562   0.57353   0.00000  Uiso   1.00
C500   C     0.38728   0.31123   0.54127   0.00000  Uiso   1.00
C501   C     0.36919   0.02551   0.58259   0.00000  Uiso   1.00
H502   H     0.39098   0.03822   0.62604   0.00000  Uiso   1.00
H503   H     0.36843   0.05819   0.55867   0.00000  Uiso   1.00
H504   H     0.33474   0.01630   0.59378   0.00000  Uiso   1.00
H505   H     0.42074   0.32232   0.52830   0.00000  Uiso   1.00
H506   H     0.36508   0.29903   0.49832   0.00000  Uiso   1.00
H507   H     0.35517   0.25577   0.58394   0.00000  Uiso   1.00
H508   H     0.40816   0.27776   0.61952   0.00000  Uiso   1.00
C509   C     0.10989   0.06754   0.45151   0.00000  Uiso   1.00
C510   C     0.10975   0.04885   0.38155   0.00000  Uiso   1.00
C511   C     0.12334   0.32571   0.36586   0.00000  Uiso   1.00
H512   H     0.15816   0.32325   0.38473   0.00000  Uiso   1.00
H513   H     0.10052   0.30036   0.38529   0.00000  Uiso   1.00
H514   H     0.12132   0.31045   0.64878   0.00000  Uiso   1.00
H515   H     0.07667   0.05133   0.35761   0.00000  Uiso   1.00
H516   H     0.13402   0.07428   0.36461   0.00000  Uiso   1.00
H517   H     0.14522   0.06977   0.46886   0.00000  Uiso   1.00
H518   H     0.09287   0.03795   0.47205   0.00000  Uiso   1.00
C519   C     0.28346   0.32004   0.42213   0.00000  Uiso   1.00
C520   C     0.32187   0.02070   0.40773   0.00000  Uiso   1.00
H521   H     0.30970   0.05180   0.38570   0.00000  Uiso   1.00
H522   H     0.34264   0.03771   0.45090   0.00000  Uiso   1.00
H523   H     0.34307   0.32983   0.37507   0.00000  Uiso   1.00
H524   H     0.30047   0.28542   0.42968   0.00000  Uiso   1.00
H525   H     0.25929   0.30823   0.38097   0.00000  Uiso   1.00
C526   C     0.22317   0.01304   0.58125   0.00000  Uiso   1.00
C527   C     0.17673   0.03004   0.56585   0.00000  Uiso   1.00
H528   H     0.17858   0.06925   0.55638   0.00000  Uiso   1.00
H529   H     0.15895   0.00126   0.52671   0.00000  Uiso   1.00
H530   H     0.15690   0.03362   0.60599   0.00000  Uiso   1.00
H531   H     0.21788   0.31861   0.61127   0.00000  Uiso   1.00
H532   H     0.24453   0.04501   0.61176   0.00000  Uiso   1.00
C533   C     0.75053   0.06695   0.48486   0.00000  Uiso   1.00
C534   C     0.75124   0.26649   0.51527   0.00000  Uiso   1.00
C535   C     0.51278   0.07993   0.44049   0.00000  Uiso   1.00
C536   C     0.98705   0.26026   0.56449   0.00000  Uiso   1.00
C537   C     0.75867   0.01260   0.47835   0.00000  Uiso   1.00
C538   C     0.74634   0.32141   0.52325   0.00000  Uiso   1.00
C539   C     0.66451   0.16594   0.50083   0.00000  Uiso   1.00
C540   C     0.83544   0.17127   0.49972   0.00000  Uiso   1.00
C541   C     0.91067   0.21908   0.53451   0.00000  Uiso   1.00
C542   C     0.58902   0.11951   0.47283   0.00000  Uiso   1.00
C543   C     0.88381   0.17596   0.49840   0.00000  Uiso   1.00
C544   C     0.61622   0.16450   0.50230   0.00000  Uiso   1.00
C545   C     0.90315   0.13439   0.46164   0.00000  Uiso   1.00
C546   C     0.59755   0.21005   0.53154   0.00000  Uiso   1.00
C547   C     0.94893   0.13083   0.46492   0.00000  Uiso   1.00
C548   C     0.55148   0.21260   0.53159   0.00000  Uiso   1.00
C549   C     0.97673   0.17288   0.49927   0.00000  Uiso   1.00
C550   C     0.52347   0.16945   0.50014   0.00000  Uiso   1.00
C551   C     0.95790   0.21807   0.53284   0.00000  Uiso   1.00
C552   C     0.54200   0.12256   0.47058   0.00000  Uiso   1.00
C553   C     0.96699   0.08476   0.43577   0.00000  Uiso   1.00
C554   C     0.53307   0.25786   0.56265   0.00000  Uiso   1.00
Cu555  Cu    0.75501   0.17246   0.56146   0.00000  Uiso   1.00
Cu556  Cu    0.74500   0.16087   0.43854   0.00000  Uiso   1.00
H557   H     0.88227   0.10332   0.43214   0.00000  Uiso   1.00
H558   H     0.61924   0.24381   0.55392   0.00000  Uiso   1.00
H559   H     0.94551   0.05168   0.41086   0.00000  Uiso   1.00
H560   H     0.55428   0.29145   0.58639   0.00000  Uiso   1.00
H561   H     0.52449   0.04242   0.41987   0.00000  Uiso   1.00
H562   H     0.97509   0.29585   0.59070   0.00000  Uiso   1.00
H563   H     0.71320   0.12887   0.65020   0.00000  Uiso   1.00
H564   H     0.78652   0.20488   0.34995   0.00000  Uiso   1.00
N565   N     0.73745   0.15214   0.34617   0.00000  Uiso   1.00
N566   N     0.76256   0.18119   0.65383   0.00000  Uiso   1.00
O567   O     0.75326   0.09538   0.53992   0.00000  Uiso   1.00
O568   O     0.74675   0.23796   0.46008   0.00000  Uiso   1.00
O569   O     0.74480   0.08559   0.43612   0.00000  Uiso   1.00
O570   O     0.75520   0.24774   0.56388   0.00000  Uiso   1.00
O571   O     0.68936   0.17155   0.55191   0.00000  Uiso   1.00
O572   O     0.81065   0.16179   0.44809   0.00000  Uiso   1.00
O573   O     0.68090   0.16176   0.44810   0.00000  Uiso   1.00
O574   O     0.81910   0.17157   0.55190   0.00000  Uiso   1.00
C575   C     0.88948   0.26562   0.57353   0.00000  Uiso   1.00
C576   C     0.88728   0.31123   0.54127   0.00000  Uiso   1.00
C577   C     0.86919   0.02551   0.58259   0.00000  Uiso   1.00
H578   H     0.89098   0.03822   0.62604   0.00000  Uiso   1.00
H579   H     0.86843   0.05819   0.55867   0.00000  Uiso   1.00
H580   H     0.83474   0.01630   0.59378   0.00000  Uiso   1.00
H581   H     0.92074   0.32232   0.52830   0.00000  Uiso   1.00
H582   H     0.86508   0.29903   0.49832   0.00000  Uiso   1.00
H583   H     0.85517   0.25577   0.58394   0.00000  Uiso   1.00
H584   H     0.90816   0.27776   0.61952   0.00000  Uiso   1.00
C585   C     0.60989   0.06754   0.45151   0.00000  Uiso   1.00
C586   C     0.60975   0.04885   0.38155   0.00000  Uiso   1.00
C587   C     0.62334   0.32571   0.36586   0.00000  Uiso   1.00
H588   H     0.65816   0.32325   0.38473   0.00000  Uiso   1.00
H589   H     0.60052   0.30036   0.38529   0.00000  Uiso   1.00
H590   H     0.62132   0.31045   0.64878   0.00000  Uiso   1.00
H591   H     0.57667   0.05133   0.35761   0.00000  Uiso   1.00
H592   H     0.63402   0.07428   0.36461   0.00000  Uiso   1.00
H593   H     0.64522   0.06977   0.46886   0.00000  Uiso   1.00
H594   H     0.59287   0.03795   0.47205   0.00000  Uiso   1.00
C595   C     0.78346   0.32004   0.42213   0.00000  Uiso   1.00
C596   C     0.82187   0.02070   0.40773   0.00000  Uiso   1.00
H597   H     0.80970   0.05180   0.38570   0.00000  Uiso   1.00
H598   H     0.84264   0.03771   0.45090   0.00000  Uiso   1.00
H599   H     0.84307   0.32983   0.37507   0.00000  Uiso   1.00
H600   H     0.80047   0.28542   0.42968   0.00000  Uiso   1.00
H601   H     0.75929   0.30823   0.38097   0.00000  Uiso   1.00
C602   C     0.72317   0.01304   0.58125   0.00000  Uiso   1.00
C603   C     0.67673   0.03004   0.56585   0.00000  Uiso   1.00
H604   H     0.67858   0.06925   0.55638   0.00000  Uiso   1.00
H605   H     0.65895   0.00126   0.52671   0.00000  Uiso   1.00
H606   H     0.65690   0.03362   0.60599   0.00000  Uiso   1.00
H607   H     0.71788   0.31861   0.61127   0.00000  Uiso   1.00
H608   H     0.74453   0.04501   0.61176   0.00000  Uiso   1.00
C609   C     0.25053   0.40028   0.48486   0.00000  Uiso   1.00
C610   C     0.25124   0.59982   0.51527   0.00000  Uiso   1.00
C611   C     0.01278   0.41327   0.44049   0.00000  Uiso   1.00
C612   C     0.48705   0.59360   0.56449   0.00000  Uiso   1.00
C613   C     0.25867   0.34593   0.47835   0.00000  Uiso   1.00
C614   C     0.24634   0.65475   0.52325   0.00000  Uiso   1.00
C615   C     0.16451   0.49928   0.50083   0.00000  Uiso   1.00
C616   C     0.33544   0.50460   0.49972   0.00000  Uiso   1.00
C617   C     0.41067   0.55242   0.53451   0.00000  Uiso   1.00
C618   C     0.08902   0.45284   0.47283   0.00000  Uiso   1.00
C619   C     0.38381   0.50929   0.49840   0.00000  Uiso   1.00
C620   C     0.11622   0.49783   0.50230   0.00000  Uiso   1.00
C621   C     0.40315   0.46772   0.46164   0.00000  Uiso   1.00
C622   C     0.09755   0.54338   0.53154   0.00000  Uiso   1.00
C623   C     0.44893   0.46416   0.46492   0.00000  Uiso   1.00
C624   C     0.05148   0.54593   0.53159   0.00000  Uiso   1.00
C625   C     0.47673   0.50621   0.49927   0.00000  Uiso   1.00
C626   C     0.02347   0.50278   0.50014   0.00000  Uiso   1.00
C627   C     0.45790   0.55140   0.53284   0.00000  Uiso   1.00
C628   C     0.04200   0.45590   0.47058   0.00000  Uiso   1.00
C629   C     0.46699   0.41810   0.43577   0.00000  Uiso   1.00
C630   C     0.03307   0.59119   0.56265   0.00000  Uiso   1.00
Cu631  Cu    0.25501   0.50579   0.56146   0.00000  Uiso   1.00
Cu632  Cu    0.24500   0.49421   0.43854   0.00000  Uiso   1.00
H633   H     0.38227   0.43665   0.43214   0.00000  Uiso   1.00
H634   H     0.11924   0.57714   0.55392   0.00000  Uiso   1.00
H635   H     0.44551   0.38501   0.41086   0.00000  Uiso   1.00
H636   H     0.05428   0.62479   0.58639   0.00000  Uiso   1.00
H637   H     0.02449   0.37575   0.41987   0.00000  Uiso   1.00
H638   H     0.47509   0.62918   0.59070   0.00000  Uiso   1.00
H639   H     0.21320   0.46221   0.65020   0.00000  Uiso   1.00
H640   H     0.28652   0.53821   0.34995   0.00000  Uiso   1.00
N641   N     0.23745   0.48547   0.34617   0.00000  Uiso   1.00
N642   N     0.26256   0.51453   0.65383   0.00000  Uiso   1.00
O643   O     0.25326   0.42871   0.53992   0.00000  Uiso   1.00
O644   O     0.24675   0.57129   0.46008   0.00000  Uiso   1.00
O645   O     0.24480   0.41892   0.43612   0.00000  Uiso   1.00
O646   O     0.25520   0.58108   0.56388   0.00000  Uiso   1.00
O647   O     0.18936   0.50488   0.55191   0.00000  Uiso   1.00
O648   O     0.31065   0.49512   0.44809   0.00000  Uiso   1.00
O649   O     0.18090   0.49510   0.44810   0.00000  Uiso   1.00
O650   O     0.31910   0.50490   0.55190   0.00000  Uiso   1.00
C651   C     0.38948   0.59895   0.57353   0.00000  Uiso   1.00
C652   C     0.38728   0.64456   0.54127   0.00000  Uiso   1.00
C653   C     0.36919   0.35885   0.58259   0.00000  Uiso   1.00
H654   H     0.39098   0.37155   0.62604   0.00000  Uiso   1.00
H655   H     0.36843   0.39152   0.55867   0.00000  Uiso   1.00
H656   H     0.33474   0.34964   0.59378   0.00000  Uiso   1.00
H657   H     0.42074   0.65565   0.52830   0.00000  Uiso   1.00
H658   H     0.36508   0.63236   0.49832   0.00000  Uiso   1.00
H659   H     0.35517   0.58910   0.58394   0.00000  Uiso   1.00
H660   H     0.40816   0.61110   0.61952   0.00000  Uiso   1.00
C661   C     0.10989   0.40088   0.45151   0.00000  Uiso   1.00
C662   C     0.10975   0.38219   0.38155   0.00000  Uiso   1.00
C663   C     0.12334   0.65904   0.36586   0.00000  Uiso   1.00
H664   H     0.15816   0.65658   0.38473   0.00000  Uiso   1.00
H665   H     0.10052   0.63369   0.38529   0.00000  Uiso   1.00
H666   H     0.12132   0.64379   0.64878   0.00000  Uiso   1.00
H667   H     0.07667   0.38466   0.35761   0.00000  Uiso   1.00
H668   H     0.13402   0.40761   0.36461   0.00000  Uiso   1.00
H669   H     0.14522   0.40310   0.46886   0.00000  Uiso   1.00
H670   H     0.09287   0.37128   0.47205   0.00000  Uiso   1.00
C671   C     0.28346   0.65338   0.42213   0.00000  Uiso   1.00
C672   C     0.32187   0.35403   0.40773   0.00000  Uiso   1.00
H673   H     0.30970   0.38513   0.38570   0.00000  Uiso   1.00
H674   H     0.34264   0.37105   0.45090   0.00000  Uiso   1.00
H675   H     0.34307   0.66316   0.37507   0.00000  Uiso   1.00
H676   H     0.30047   0.61876   0.42968   0.00000  Uiso   1.00
H677   H     0.25929   0.64157   0.38097   0.00000  Uiso   1.00
C678   C     0.22317   0.34637   0.58125   0.00000  Uiso   1.00
C679   C     0.17673   0.36338   0.56585   0.00000  Uiso   1.00
H680   H     0.17858   0.40259   0.55638   0.00000  Uiso   1.00
H681   H     0.15895   0.33459   0.52671   0.00000  Uiso   1.00
H682   H     0.15690   0.36695   0.60599   0.00000  Uiso   1.00
H683   H     0.21788   0.65194   0.61127   0.00000  Uiso   1.00
H684   H     0.24453   0.37834   0.61176   0.00000  Uiso   1.00
C685   C     0.75053   0.40028   0.48486   0.00000  Uiso   1.00
C686   C     0.75124   0.59982   0.51527   0.00000  Uiso   1.00
C687   C     0.51278   0.41327   0.44049   0.00000  Uiso   1.00
C688   C     0.98705   0.59360   0.56449   0.00000  Uiso   1.00
C689   C     0.75867   0.34593   0.47835   0.00000  Uiso   1.00
C690   C     0.74634   0.65475   0.52325   0.00000  Uiso   1.00
C691   C     0.66451   0.49928   0.50083   0.00000  Uiso   1.00
C692   C     0.83544   0.50460   0.49972   0.00000  Uiso   1.00
C693   C     0.91067   0.55242   0.53451   0.00000  Uiso   1.00
C694   C     0.58902   0.45284   0.47283   0.00000  Uiso   1.00
C695   C     0.88381   0.50929   0.49840   0.00000  Uiso   1.00
C696   C     0.61622   0.49783   0.50230   0.00000  Uiso   1.00
C697   C     0.90315   0.46772   0.46164   0.00000  Uiso   1.00
C698   C     0.59755   0.54338   0.53154   0.00000  Uiso   1.00
C699   C     0.94893   0.46416   0.46492   0.00000  Uiso   1.00
C700   C     0.55148   0.54593   0.53159   0.00000  Uiso   1.00
C701   C     0.97673   0.50621   0.49927   0.00000  Uiso   1.00
C702   C     0.52347   0.50278   0.50014   0.00000  Uiso   1.00
C703   C     0.95790   0.55140   0.53284   0.00000  Uiso   1.00
C704   C     0.54200   0.45590   0.47058   0.00000  Uiso   1.00
C705   C     0.96699   0.41810   0.43577   0.00000  Uiso   1.00
C706   C     0.53307   0.59119   0.56265   0.00000  Uiso   1.00
Cu707  Cu    0.75501   0.50579   0.56146   0.00000  Uiso   1.00
Cu708  Cu    0.74500   0.49421   0.43854   0.00000  Uiso   1.00
H709   H     0.88227   0.43665   0.43214   0.00000  Uiso   1.00
H710   H     0.61924   0.57714   0.55392   0.00000  Uiso   1.00
H711   H     0.94551   0.38501   0.41086   0.00000  Uiso   1.00
H712   H     0.55428   0.62479   0.58639   0.00000  Uiso   1.00
H713   H     0.52449   0.37575   0.41987   0.00000  Uiso   1.00
H714   H     0.97509   0.62918   0.59070   0.00000  Uiso   1.00
H715   H     0.71320   0.46221   0.65020   0.00000  Uiso   1.00
H716   H     0.78652   0.53821   0.34995   0.00000  Uiso   1.00
N717   N     0.73745   0.48547   0.34617   0.00000  Uiso   1.00
N718   N     0.76256   0.51453   0.65383   0.00000  Uiso   1.00
O719   O     0.75326   0.42871   0.53992   0.00000  Uiso   1.00
O720   O     0.74675   0.57129   0.46008   0.00000  Uiso   1.00
O721   O     0.74480   0.41892   0.43612   0.00000  Uiso   1.00
O722   O     0.75520   0.58108   0.56388   0.00000  Uiso   1.00
O723   O     0.68936   0.50488   0.55191   0.00000  Uiso   1.00
O724   O     0.81065   0.49512   0.44809   0.00000  Uiso   1.00
O725   O     0.68090   0.49510   0.44810   0.00000  Uiso   1.00
O726   O     0.81910   0.50490   0.55190   0.00000  Uiso   1.00
C727   C     0.88948   0.59895   0.57353   0.00000  Uiso   1.00
C728   C     0.88728   0.64456   0.54127   0.00000  Uiso   1.00
C729   C     0.86919   0.35885   0.58259   0.00000  Uiso   1.00
H730   H     0.89098   0.37155   0.62604   0.00000  Uiso   1.00
H731   H     0.86843   0.39152   0.55867   0.00000  Uiso   1.00
H732   H     0.83474   0.34964   0.59378   0.00000  Uiso   1.00
H733   H     0.92074   0.65565   0.52830   0.00000  Uiso   1.00
H734   H     0.86508   0.63236   0.49832   0.00000  Uiso   1.00
H735   H     0.85517   0.58910   0.58394   0.00000  Uiso   1.00
H736   H     0.90816   0.61110   0.61952   0.00000  Uiso   1.00
C737   C     0.60989   0.40088   0.45151   0.00000  Uiso   1.00
C738   C     0.60975   0.38219   0.38155   0.00000  Uiso   1.00
C739   C     0.62334   0.65904   0.36586   0.00000  Uiso   1.00
H740   H     0.65816   0.65658   0.38473   0.00000  Uiso   1.00
H741   H     0.60052   0.63369   0.38529   0.00000  Uiso   1.00
H742   H     0.62132   0.64379   0.64878   0.00000  Uiso   1.00
H743   H     0.57667   0.38466   0.35761   0.00000  Uiso   1.00
H744   H     0.63402   0.40761   0.36461   0.00000  Uiso   1.00
H745   H     0.64522   0.40310   0.46886   0.00000  Uiso   1.00
H746   H     0.59287   0.37128   0.47205   0.00000  Uiso   1.00
C747   C     0.78346   0.65338   0.42213   0.00000  Uiso   1.00
C748   C     0.82187   0.35403   0.40773   0.00000  Uiso   1.00
H749   H     0.80970   0.38513   0.38570   0.00000  Uiso   1.00
H750   H     0.84264   0.37105   0.45090   0.00000  Uiso   1.00
H751   H     0.84307   0.66316   0.37507   0.00000  Uiso   1.00
H752   H     0.80047   0.61876   0.42968   0.00000  Uiso   1.00
H753   H     0.75929   0.64157   0.38097   0.00000  Uiso   1.00
C754   C     0.72317   0.34637   0.58125   0.00000  Uiso   1.00
C755   C     0.67673   0.36338   0.56585   0.00000  Uiso   1.00
H756   H     0.67858   0.40259   0.55638   0.00000  Uiso   1.00
H757   H     0.65895   0.33459   0.52671   0.00000  Uiso   1.00
H758   H     0.65690   0.36695   0.60599   0.00000  Uiso   1.00
H759   H     0.71788   0.65194   0.61127   0.00000  Uiso   1.00
H760   H     0.74453   0.37834   0.61176   0.00000  Uiso   1.00
C761   C     0.25053   0.73362   0.48486   0.00000  Uiso   1.00
C762   C     0.25124   0.93315   0.51527   0.00000  Uiso   1.00
C763   C     0.01278   0.74660   0.44049   0.00000  Uiso   1.00
C764   C     0.48705   0.92693   0.56449   0.00000  Uiso   1.00
C765   C     0.25867   0.67927   0.47835   0.00000  Uiso   1.00
C766   C     0.24634   0.98808   0.52325   0.00000  Uiso   1.00
C767   C     0.16451   0.83261   0.50083   0.00000  Uiso   1.00
C768   C     0.33544   0.83793   0.49972   0.00000  Uiso   1.00
C769   C     0.41067   0.88575   0.53451   0.00000  Uiso   1.00
C770   C     0.08902   0.78618   0.47283   0.00000  Uiso   1.00
C771   C     0.38381   0.84263   0.49840   0.00000  Uiso   1.00
C772   C     0.11622   0.83117   0.50230   0.00000  Uiso   1.00
C773   C     0.40315   0.80105   0.46164   0.00000  Uiso   1.00
C774   C     0.09755   0.87672   0.53154   0.00000  Uiso   1.00
C775   C     0.44893   0.79749   0.46492   0.00000  Uiso   1.00
C776   C     0.05148   0.87927   0.53159   0.00000  Uiso   1.00
C777   C     0.47673   0.83955   0.49927   0.00000  Uiso   1.00
C778   C     0.02347   0.83611   0.50014   0.00000  Uiso   1.00
C779   C     0.45790   0.88473   0.53284   0.00000  Uiso   1.00
C780   C     0.04200   0.78923   0.47058   0.00000  Uiso   1.00
C781   C     0.46699   0.75143   0.43577   0.00000  Uiso   1.00
C782   C     0.03307   0.92453   0.56265   0.00000  Uiso   1.00
Cu783  Cu    0.25501   0.83913   0.56146   0.00000  Uiso   1.00
Cu784  Cu    0.24500   0.82754   0.43854   0.00000  Uiso   1.00
H785   H     0.38227   0.76998   0.43214   0.00000  Uiso   1.00
H786   H     0.11924   0.91047   0.55392   0.00000  Uiso   1.00
H787   H     0.44551   0.71835   0.41086   0.00000  Uiso   1.00
H788   H     0.05428   0.95812   0.58639   0.00000  Uiso   1.00
H789   H     0.02449   0.70909   0.41987   0.00000  Uiso   1.00
H790   H     0.47509   0.96251   0.59070   0.00000  Uiso   1.00
H791   H     0.21320   0.79554   0.65020   0.00000  Uiso   1.00
H792   H     0.28652   0.87154   0.34995   0.00000  Uiso   1.00
N793   N     0.23745   0.81881   0.34617   0.00000  Uiso   1.00
N794   N     0.26256   0.84786   0.65383   0.00000  Uiso   1.00
O795   O     0.25326   0.76204   0.53992   0.00000  Uiso   1.00
O796   O     0.24675   0.90462   0.46008   0.00000  Uiso   1.00
O797   O     0.24480   0.75226   0.43612   0.00000  Uiso   1.00
O798   O     0.25520   0.91441   0.56388   0.00000  Uiso   1.00
O799   O     0.18936   0.83821   0.55191   0.00000  Uiso   1.00
O800   O     0.31065   0.82845   0.44809   0.00000  Uiso   1.00
O801   O     0.18090   0.82843   0.44810   0.00000  Uiso   1.00
O802   O     0.31910   0.83824   0.55190   0.00000  Uiso   1.00
C803   C     0.38948   0.93228   0.57353   0.00000  Uiso   1.00
C804   C     0.38728   0.97790   0.54127   0.00000  Uiso   1.00
C805   C     0.36919   0.69218   0.58259   0.00000  Uiso   1.00
H806   H     0.39098   0.70489   0.62604   0.00000  Uiso   1.00
H807   H     0.36843   0.72486   0.55867   0.00000  Uiso   1.00
H808   H     0.33474   0.68297   0.59378   0.00000  Uiso   1.00
H809   H     0.42074   0.98899   0.52830   0.00000  Uiso   1.00
H810   H     0.36508   0.96569   0.49832   0.00000  Uiso   1.00
H811   H     0.35517   0.92244   0.58394   0.00000  Uiso   1.00
H812   H     0.40816   0.94443   0.61952   0.00000  Uiso   1.00
C813   C     0.10989   0.73421   0.45151   0.00000  Uiso   1.00
C814   C     0.10975   0.71552   0.38155   0.00000  Uiso   1.00
C815   C     0.12334   0.99238   0.36586   0.00000  Uiso   1.00
H816   H     0.15816   0.98991   0.38473   0.00000  Uiso   1.00
H817   H     0.10052   0.96703   0.38529   0.00000  Uiso   1.00
H818   H     0.12132   0.97712   0.64878   0.00000  Uiso   1.00
H819   H     0.07667   0.71799   0.35761   0.00000  Uiso   1.00
H820   H     0.13402   0.74094   0.36461   0.00000  Uiso   1.00
H821   H     0.14522   0.73644   0.46886   0.00000  Uiso   1.00
H822   H     0.09287   0.70461   0.47205   0.00000  Uiso   1.00
C823   C     0.28346   0.98671   0.42213   0.00000  Uiso   1.00
C824   C     0.32187   0.68737   0.40773   0.00000  Uiso   1.00
H825   H     0.30970   0.71846   0.38570   0.00000  Uiso   1.00
H826   H     0.34264   0.70438   0.45090   0.00000  Uiso   1.00
H827   H     0.34307   0.99649   0.37507   0.00000  Uiso   1.00
H828   H     0.30047   0.95209   0.42968   0.00000  Uiso   1.00
H829   H     0.25929   0.97490   0.38097   0.00000  Uiso   1.00
C830   C     0.22317   0.67971   0.58125   0.00000  Uiso   1.00
C831   C     0.17673   0.69671   0.56585   0.00000  Uiso   1.00
H832   H     0.17858   0.73592   0.55638   0.00000  Uiso   1.00
H833   H     0.15895   0.66793   0.52671   0.00000  Uiso   1.00
H834   H     0.15690   0.70029   0.60599   0.00000  Uiso   1.00
H835   H     0.21788   0.98528   0.61127   0.00000  Uiso   1.00
H836   H     0.24453   0.71168   0.61176   0.00000  Uiso   1.00
C837   C     0.75053   0.73362   0.48486   0.00000  Uiso   1.00
C838   C     0.75124   0.93315   0.51527   0.00000  Uiso   1.00
C839   C     0.51278   0.74660   0.44049   0.00000  Uiso   1.00
C840   C     0.98705   0.92693   0.56449   0.00000  Uiso   1.00
C841   C     0.75867   0.67927   0.47835   0.00000  Uiso   1.00
C842   C     0.74634   0.98808   0.52325   0.00000  Uiso   1.00
C843   C     0.66451   0.83261   0.50083   0.00000  Uiso   1.00
C844   C     0.83544   0.83793   0.49972   0.00000  Uiso   1.00
C845   C     0.91067   0.88575   0.53451   0.00000  Uiso   1.00
C846   C     0.58902   0.78618   0.47283   0.00000  Uiso   1.00
C847   C     0.88381   0.84263   0.49840   0.00000  Uiso   1.00
C848   C     0.61622   0.83117   0.50230   0.00000  Uiso   1.00
C849   C     0.90315   0.80105   0.46164   0.00000  Uiso   1.00
C850   C     0.59755   0.87672   0.53154   0.00000  Uiso   1.00
C851   C     0.94893   0.79749   0.46492   0.00000  Uiso   1.00
C852   C     0.55148   0.87927   0.53159   0.00000  Uiso   1.00
C853   C     0.97673   0.83955   0.49927   0.00000  Uiso   1.00
C854   C     0.52347   0.83611   0.50014   0.00000  Uiso   1.00
C855   C     0.95790   0.88473   0.53284   0.00000  Uiso   1.00
C856   C     0.54200   0.78923   0.47058   0.00000  Uiso   1.00
C857   C     0.96699   0.75143   0.43577   0.00000  Uiso   1.00
C858   C     0.53307   0.92453   0.56265   0.00000  Uiso   1.00
Cu859  Cu    0.75501   0.83913   0.56146   0.00000  Uiso   1.00
Cu860  Cu    0.74500   0.82754   0.43854   0.00000  Uiso   1.00
H861   H     0.88227   0.76998   0.43214   0.00000  Uiso   1.00
H862   H     0.61924   0.91047   0.55392   0.00000  Uiso   1.00
H863   H     0.94551   0.71835   0.41086   0.00000  Uiso   1.00
H864   H     0.55428   0.95812   0.58639   0.00000  Uiso   1.00
H865   H     0.52449   0.70909   0.41987   0.00000  Uiso   1.00
H866   H     0.97509   0.96251   0.59070   0.00000  Uiso   1.00
H867   H     0.71320   0.79554   0.65020   0.00000  Uiso   1.00
H868   H     0.78652   0.87154   0.34995   0.00000  Uiso   1.00
N869   N     0.73745   0.81881   0.34617   0.00000  Uiso   1.00
N870   N     0.76256   0.84786   0.65383   0.00000  Uiso   1.00
O871   O     0.75326   0.76204   0.53992   0.00000  Uiso   1.00
O872   O     0.74675   0.90462   0.46008   0.00000  Uiso   1.00
O873   O     0.74480   0.75226   0.43612   0.00000  Uiso   1.00
O874   O     0.75520   0.91441   0.56388   0.00000  Uiso   1.00
O875   O     0.68936   0.83821   0.55191   0.00000  Uiso   1.00
O876   O     0.81065   0.82845   0.44809   0.00000  Uiso   1.00
O877   O     0.68090   0.82843   0.44810   0.00000  Uiso   1.00
O878   O     0.81910   0.83824   0.55190   0.00000  Uiso   1.00
C879   C     0.88948   0.93228   0.57353   0.00000  Uiso   1.00
C880   C     0.88728   0.97790   0.54127   0.00000  Uiso   1.00
C881   C     0.86919   0.69218   0.58259   0.00000  Uiso   1.00
H882   H     0.89098   0.70489   0.62604   0.00000  Uiso   1.00
H883   H     0.86843   0.72486   0.55867   0.00000  Uiso   1.00
H884   H     0.83474   0.68297   0.59378   0.00000  Uiso   1.00
H885   H     0.92074   0.98899   0.52830   0.00000  Uiso   1.00
H886   H     0.86508   0.96569   0.49832   0.00000  Uiso   1.00
H887   H     0.85517   0.92244   0.58394   0.00000  Uiso   1.00
H888   H     0.90816   0.94443   0.61952   0.00000  Uiso   1.00
C889   C     0.60989   0.73421   0.45151   0.00000  Uiso   1.00
C890   C     0.60975   0.71552   0.38155   0.00000  Uiso   1.00
C891   C     0.62334   0.99238   0.36586   0.00000  Uiso   1.00
H892   H     0.65816   0.98991   0.38473   0.00000  Uiso   1.00
H893   H     0.60052   0.96703   0.38529   0.00000  Uiso   1.00
H894   H     0.62132   0.97712   0.64878   0.00000  Uiso   1.00
H895   H     0.57667   0.71799   0.35761   0.00000  Uiso   1.00
H896   H     0.63402   0.74094   0.36461   0.00000  Uiso   1.00
H897   H     0.64522   0.73644   0.46886   0.00000  Uiso   1.00
H898   H     0.59287   0.70461   0.47205   0.00000  Uiso   1.00
C899   C     0.78346   0.98671   0.42213   0.00000  Uiso   1.00
C900   C     0.82187   0.68737   0.40773   0.00000  Uiso   1.00
H901   H     0.80970   0.71846   0.38570   0.00000  Uiso   1.00
H902   H     0.84264   0.70438   0.45090   0.00000  Uiso   1.00
H903   H     0.84307   0.99649   0.37507   0.00000  Uiso   1.00
H904   H     0.80047   0.95209   0.42968   0.00000  Uiso   1.00
H905   H     0.75929   0.97490   0.38097   0.00000  Uiso   1.00
C906   C     0.72317   0.67971   0.58125   0.00000  Uiso   1.00
C907   C     0.67673   0.69671   0.56585   0.00000  Uiso   1.00
H908   H     0.67858   0.73592   0.55638   0.00000  Uiso   1.00
H909   H     0.65895   0.66793   0.52671   0.00000  Uiso   1.00
H910   H     0.65690   0.70029   0.60599   0.00000  Uiso   1.00
H911   H     0.71788   0.98528   0.61127   0.00000  Uiso   1.00
H912   H     0.74453   0.71168   0.61176   0.00000  Uiso   1.00
C913   C     0.25053   0.06695   0.81819   0.00000  Uiso   1.00
C914   C     0.25124   0.26649   0.84861   0.00000  Uiso   1.00
C915   C     0.01278   0.07993   0.77382   0.00000  Uiso   1.00
C916   C     0.48705   0.26026   0.89782   0.00000  Uiso   1.00
C917   C     0.25867   0.01260   0.81168   0.00000  Uiso   1.00
C918   C     0.24634   0.32141   0.85658   0.00000  Uiso   1.00
C919   C     0.16451   0.16594   0.83417   0.00000  Uiso   1.00
C920   C     0.33544   0.17127   0.83305   0.00000  Uiso   1.00
C921   C     0.41067   0.21908   0.86784   0.00000  Uiso   1.00
C922   C     0.08902   0.11951   0.80616   0.00000  Uiso   1.00
C923   C     0.38381   0.17596   0.83173   0.00000  Uiso   1.00
C924   C     0.11622   0.16450   0.83563   0.00000  Uiso   1.00
C925   C     0.40315   0.13439   0.79497   0.00000  Uiso   1.00
C926   C     0.09755   0.21005   0.86487   0.00000  Uiso   1.00
C927   C     0.44893   0.13083   0.79825   0.00000  Uiso   1.00
C928   C     0.05148   0.21260   0.86492   0.00000  Uiso   1.00
C929   C     0.47673   0.17288   0.83261   0.00000  Uiso   1.00
C930   C     0.02347   0.16945   0.83348   0.00000  Uiso   1.00
C931   C     0.45790   0.21807   0.86617   0.00000  Uiso   1.00
C932   C     0.04200   0.12256   0.80391   0.00000  Uiso   1.00
C933   C     0.46699   0.08476   0.76910   0.00000  Uiso   1.00
C934   C     0.03307   0.25786   0.89599   0.00000  Uiso   1.00
Cu935  Cu    0.25501   0.17246   0.89479   0.00000  Uiso   1.00
Cu936  Cu    0.24500   0.16087   0.77187   0.00000  Uiso   1.00
H937   H     0.38227   0.10332   0.76547   0.00000  Uiso   1.00
H938   H     0.11924   0.24381   0.88725   0.00000  Uiso   1.00
H939   H     0.44551   0.05168   0.74419   0.00000  Uiso   1.00
H940   H     0.05428   0.29145   0.91973   0.00000  Uiso   1.00
H941   H     0.02449   0.04242   0.75320   0.00000  Uiso   1.00
H942   H     0.47509   0.29585   0.92403   0.00000  Uiso   1.00
H943   H     0.21320   0.12887   0.98353   0.00000  Uiso   1.00
H944   H     0.28652   0.20488   0.68328   0.00000  Uiso   1.00
N945   N     0.23745   0.15214   0.67951   0.00000  Uiso   1.00
N946   N     0.26256   0.18119   0.98716   0.00000  Uiso   1.00
O947   O     0.25326   0.09538   0.87326   0.00000  Uiso   1.00
O948   O     0.24675   0.23796   0.79341   0.00000  Uiso   1.00
O949   O     0.24480   0.08559   0.76945   0.00000  Uiso   1.00
O950   O     0.25520   0.24774   0.89721   0.00000  Uiso   1.00
O951   O     0.18936   0.17155   0.88524   0.00000  Uiso   1.00
O952   O     0.31065   0.16179   0.78143   0.00000  Uiso   1.00
O953   O     0.18090   0.16176   0.78143   0.00000  Uiso   1.00
O954   O     0.31910   0.17157   0.88523   0.00000  Uiso   1.00
C955   C     0.38948   0.26562   0.90686   0.00000  Uiso   1.00
C956   C     0.38728   0.31123   0.87460   0.00000  Uiso   1.00
C957   C     0.36919   0.02551   0.91593   0.00000  Uiso   1.00
H958   H     0.39098   0.03822   0.95938   0.00000  Uiso   1.00
H959   H     0.36843   0.05819   0.89200   0.00000  Uiso   1.00
H960   H     0.33474   0.01630   0.92711   0.00000  Uiso   1.00
H961   H     0.42074   0.32232   0.86163   0.00000  Uiso   1.00
H962   H     0.36508   0.29903   0.83165   0.00000  Uiso   1.00
H963   H     0.35517   0.25577   0.91728   0.00000  Uiso   1.00
H964   H     0.40816   0.27776   0.95285   0.00000  Uiso   1.00
C965   C     0.10989   0.06754   0.78485   0.00000  Uiso   1.00
C966   C     0.10975   0.04885   0.71489   0.00000  Uiso   1.00
C967   C     0.12334   0.32571   0.69919   0.00000  Uiso   1.00
H968   H     0.15816   0.32325   0.71806   0.00000  Uiso   1.00
H969   H     0.10052   0.30036   0.71862   0.00000  Uiso   1.00
H970   H     0.12132   0.31045   0.98211   0.00000  Uiso   1.00
H971   H     0.07667   0.05133   0.69095   0.00000  Uiso   1.00
H972   H     0.13402   0.07428   0.69794   0.00000  Uiso   1.00
H973   H     0.14522   0.06977   0.80220   0.00000  Uiso   1.00
H974   H     0.09287   0.03795   0.80538   0.00000  Uiso   1.00
C975   C     0.28346   0.32004   0.75547   0.00000  Uiso   1.00
C976   C     0.32187   0.02070   0.74107   0.00000  Uiso   1.00
H977   H     0.30970   0.05180   0.71903   0.00000  Uiso   1.00
H978   H     0.34264   0.03771   0.78424   0.00000  Uiso   1.00
H979   H     0.34307   0.32983   0.70841   0.00000  Uiso   1.00
H980   H     0.30047   0.28542   0.76301   0.00000  Uiso   1.00
H981   H     0.25929   0.30823   0.71430   0.00000  Uiso   1.00
C982   C     0.22317   0.01304   0.91459   0.00000  Uiso   1.00
C983   C     0.17673   0.03004   0.89919   0.00000  Uiso   1.00
H984   H     0.17858   0.06925   0.88972   0.00000  Uiso   1.00
H985   H     0.15895   0.00126   0.86005   0.00000  Uiso   1.00
H986   H     0.15690   0.03362   0.93932   0.00000  Uiso   1.00
H987   H     0.21788   0.31861   0.94460   0.00000  Uiso   1.00
H988   H     0.24453   0.04501   0.94509   0.00000  Uiso   1.00
C989   C     0.75053   0.06695   0.81819   0.00000  Uiso   1.00
C990   C     0.75124   0.26649   0.84861   0.00000  Uiso   1.00
C991   C     0.51278   0.07993   0.77382   0.00000  Uiso   1.00
C992   C     0.98705   0.26026   0.89782   0.00000  Uiso   1.00
C993   C     0.75867   0.01260   0.81168   0.00000  Uiso   1.00
C994   C     0.74634   0.32141   0.85658   0.00000  Uiso   1.00
C995   C     0.66451   0.16594   0.83417   0.00000  Uiso   1.00
C996   C     0.83544   0.17127   0.83305   0.00000  Uiso   1.00
C997   C     0.91067   0.21908   0.86784   0.00000  Uiso   1.00
C998   C     0.58902   0.11951   0.80616   0.00000  Uiso   1.00
C999   C     0.88381   0.17596   0.83173   0.00000  Uiso   1.00
C1000  C     0.61622   0.16450   0.83563   0.00000  Uiso   1.00
C1001  C     0.90315   0.13439   0.79497   0.00000  Uiso   1.00
C1002  C     0.59755   0.21005   0.86487   0.00000  Uiso   1.00
C1003  C     0.94893   0.13083   0.79825   0.00000  Uiso   1.00
C1004  C     0.55148   0.21260   0.86492   0.00000  Uiso   1.00
C1005  C     0.97673   0.17288   0.83261   0.00000  Uiso   1.00
C1006  C     0.52347   0.16945   0.83348   0.00000  Uiso   1.00
C1007  C     0.95790   0.21807   0.86617   0.00000  Uiso   1.00
C1008  C     0.54200   0.12256   0.80391   0.00000  Uiso   1.00
C1009  C     0.96699   0.08476   0.76910   0.00000  Uiso   1.00
C1010  C     0.53307   0.25786   0.89599   0.00000  Uiso   1.00
Cu1011 Cu    0.75501   0.17246   0.89479   0.00000  Uiso   1.00
Cu1012 Cu    0.74500   0.16087   0.77187   0.00000  Uiso   1.00
H1013  H     0.88227   0.10332   0.76547   0.00000  Uiso   1.00
H1014  H     0.61924   0.24381   0.88725   0.00000  Uiso   1.00
H1015  H     0.94551   0.05168   0.74419   0.00000  Uiso   1.00
H1016  H     0.55428   0.29145   0.91973   0.00000  Uiso   1.00
H1017  H     0.52449   0.04242   0.75320   0.00000  Uiso   1.00
H1018  H     0.97509   0.29585   0.92403   0.00000  Uiso   1.00
H1019  H     0.71320   0.12887   0.98353   0.00000  Uiso   1.00
H1020  H     0.78652   0.20488   0.68328   0.00000  Uiso   1.00
N1021  N     0.73745   0.15214   0.67951   0.00000  Uiso   1.00
N1022  N     0.76256   0.18119   0.98716   0.00000  Uiso   1.00
O1023  O     0.75326   0.09538   0.87326   0.00000  Uiso   1.00
O1024  O     0.74675   0.23796   0.79341   0.00000  Uiso   1.00
O1025  O     0.74480   0.08559   0.76945   0.00000  Uiso   1.00
O1026  O     0.75520   0.24774   0.89721   0.00000  Uiso   1.00
O1027  O     0.68936   0.17155   0.88524   0.00000  Uiso   1.00
O1028  O     0.81065   0.16179   0.78143   0.00000  Uiso   1.00
O1029  O     0.68090   0.16176   0.78143   0.00000  Uiso   1.00
O1030  O     0.81910   0.17157   0.88523   0.00000  Uiso   1.00
C1031  C     0.88948   0.26562   0.90686   0.00000  Uiso   1.00
C1032  C     0.88728   0.31123   0.87460   0.00000  Uiso   1.00
C1033  C     0.86919   0.02551   0.91593   0.00000  Uiso   1.00
H1034  H     0.89098   0.03822   0.95938   0.00000  Uiso   1.00
H1035  H     0.86843   0.05819   0.89200   0.00000  Uiso   1.00
H1036  H     0.83474   0.01630   0.92711   0.00000  Uiso   1.00
H1037  H     0.92074   0.32232   0.86163   0.00000  Uiso   1.00
H1038  H     0.86508   0.29903   0.83165   0.00000  Uiso   1.00
H1039  H     0.85517   0.25577   0.91728   0.00000  Uiso   1.00
H1040  H     0.90816   0.27776   0.95285   0.00000  Uiso   1.00
C1041  C     0.60989   0.06754   0.78485   0.00000  Uiso   1.00
C1042  C     0.60975   0.04885   0.71489   0.00000  Uiso   1.00
C1043  C     0.62334   0.32571   0.69919   0.00000  Uiso   1.00
H1044  H     0.65816   0.32325   0.71806   0.00000  Uiso   1.00
H1045  H     0.60052   0.30036   0.71862   0.00000  Uiso   1.00
H1046  H     0.62132   0.31045   0.98211   0.00000  Uiso   1.00
H1047  H     0.57667   0.05133   0.69095   0.00000  Uiso   1.00
H1048  H     0.63402   0.07428   0.69794   0.00000  Uiso   1.00
H1049  H     0.64522   0.06977   0.80220   0.00000  Uiso   1.00
H1050  H     0.59287   0.03795   0.80538   0.00000  Uiso   1.00
C1051  C     0.78346   0.32004   0.75547   0.00000  Uiso   1.00
C1052  C     0.82187   0.02070   0.74107   0.00000  Uiso   1.00
H1053  H     0.80970   0.05180   0.71903   0.00000  Uiso   1.00
H1054  H     0.84264   0.03771   0.78424   0.00000  Uiso   1.00
H1055  H     0.84307   0.32983   0.70841   0.00000  Uiso   1.00
H1056  H     0.80047   0.28542   0.76301   0.00000  Uiso   1.00
H1057  H     0.75929   0.30823   0.71430   0.00000  Uiso   1.00
C1058  C     0.72317   0.01304   0.91459   0.00000  Uiso   1.00
C1059  C     0.67673   0.03004   0.89919   0.00000  Uiso   1.00
H1060  H     0.67858   0.06925   0.88972   0.00000  Uiso   1.00
H1061  H     0.65895   0.00126   0.86005   0.00000  Uiso   1.00
H1062  H     0.65690   0.03362   0.93932   0.00000  Uiso   1.00
H1063  H     0.71788   0.31861   0.94460   0.00000  Uiso   1.00
H1064  H     0.74453   0.04501   0.94509   0.00000  Uiso   1.00
C1065  C     0.25053   0.40028   0.81819   0.00000  Uiso   1.00
C1066  C     0.25124   0.59982   0.84861   0.00000  Uiso   1.00
C1067  C     0.01278   0.41327   0.77382   0.00000  Uiso   1.00
C1068  C     0.48705   0.59360   0.89782   0.00000  Uiso   1.00
C1069  C     0.25867   0.34593   0.81168   0.00000  Uiso   1.00
C1070  C     0.24634   0.65475   0.85658   0.00000  Uiso   1.00
C1071  C     0.16451   0.49928   0.83417   0.00000  Uiso   1.00
C1072  C     0.33544   0.50460   0.83305   0.00000  Uiso   1.00
C1073  C     0.41067   0.55242   0.86784   0.00000  Uiso   1.00
C1074  C     0.08902   0.45284   0.80616   0.00000  Uiso   1.00
C1075  C     0.38381   0.50929   0.83173   0.00000  Uiso   1.00
C1076  C     0.11622   0.49783   0.83563   0.00000  Uiso   1.00
C1077  C     0.40315   0.46772   0.79497   0.00000  Uiso   1.00
C1078  C     0.09755   0.54338   0.86487   0.00000  Uiso   1.00
C1079  C     0.44893   0.46416   0.79825   0.00000  Uiso   1.00
C1080  C     0.05148   0.54593   0.86492   0.00000  Uiso   1.00
C1081  C     0.47673   0.50621   0.83261   0.00000  Uiso   1.00
C1082  C     0.02347   0.50278   0.83348   0.00000  Uiso   1.00
C1083  C     0.45790   0.55140   0.86617   0.00000  Uiso   1.00
C1084  C     0.04200   0.45590   0.80391   0.00000  Uiso   1.00
C1085  C     0.46699   0.41810   0.76910   0.00000  Uiso   1.00
C1086  C     0.03307   0.59119   0.89599   0.00000  Uiso   1.00
Cu1087 Cu    0.25501   0.50579   0.89479   0.00000  Uiso   1.00
Cu1088 Cu    0.24500   0.49421   0.77187   0.00000  Uiso   1.00
H1089  H     0.38227   0.43665   0.76547   0.00000  Uiso   1.00
H1090  H     0.11924   0.57714   0.88725   0.00000  Uiso   1.00
H1091  H     0.44551   0.38501   0.74419   0.00000  Uiso   1.00
H1092  H     0.05428   0.62479   0.91973   0.00000  Uiso   1.00
H1093  H     0.02449   0.37575   0.75320   0.00000  Uiso   1.00
H1094  H     0.47509   0.62918   0.92403   0.00000  Uiso   1.00
H1095  H     0.21320   0.46221   0.98353   0.00000  Uiso   1.00
H1096  H     0.28652   0.53821   0.68328   0.00000  Uiso   1.00
N1097  N     0.23745   0.48547   0.67951   0.00000  Uiso   1.00
N1098  N     0.26256   0.51453   0.98716   0.00000  Uiso   1.00
O1099  O     0.25326   0.42871   0.87326   0.00000  Uiso   1.00
O1100  O     0.24675   0.57129   0.79341   0.00000  Uiso   1.00
O1101  O     0.24480   0.41892   0.76945   0.00000  Uiso   1.00
O1102  O     0.25520   0.58108   0.89721   0.00000  Uiso   1.00
O1103  O     0.18936   0.50488   0.88524   0.00000  Uiso   1.00
O1104  O     0.31065   0.49512   0.78143   0.00000  Uiso   1.00
O1105  O     0.18090   0.49510   0.78143   0.00000  Uiso   1.00
O1106  O     0.31910   0.50490   0.88523   0.00000  Uiso   1.00
C1107  C     0.38948   0.59895   0.90686   0.00000  Uiso   1.00
C1108  C     0.38728   0.64456   0.87460   0.00000  Uiso   1.00
C1109  C     0.36919   0.35885   0.91593   0.00000  Uiso   1.00
H1110  H     0.39098   0.37155   0.95938   0.00000  Uiso   1.00
H1111  H     0.36843   0.39152   0.89200   0.00000  Uiso   1.00
H1112  H     0.33474   0.34964   0.92711   0.00000  Uiso   1.00
H1113  H     0.42074   0.65565   0.86163   0.00000  Uiso   1.00
H1114  H     0.36508   0.63236   0.83165   0.00000  Uiso   1.00
H1115  H     0.35517   0.58910   0.91728   0.00000  Uiso   1.00
H1116  H     0.40816   0.61110   0.95285   0.00000  Uiso   1.00
C1117  C     0.10989   0.40088   0.78485   0.00000  Uiso   1.00
C1118  C     0.10975   0.38219   0.71489   0.00000  Uiso   1.00
C1119  C     0.12334   0.65904   0.69919   0.00000  Uiso   1.00
H1120  H     0.15816   0.65658   0.71806   0.00000  Uiso   1.00
H1121  H     0.10052   0.63369   0.71862   0.00000  Uiso   1.00
H1122  H     0.12132   0.64379   0.98211   0.00000  Uiso   1.00
H1123  H     0.07667   0.38466   0.69095   0.00000  Uiso   1.00
H1124  H     0.13402   0.40761   0.69794   0.00000  Uiso   1.00
H1125  H     0.14522   0.40310   0.80220   0.00000  Uiso   1.00
H1126  H     0.09287   0.37128   0.80538   0.00000  Uiso   1.00
C1127  C     0.28346   0.65338   0.75547   0.00000  Uiso   1.00
C1128  C     0.32187   0.35403   0.74107   0.00000  Uiso   1.00
H1129  H     0.30970   0.38513   0.71903   0.00000  Uiso   1.00
H1130  H     0.34264   0.37105   0.78424   0.00000  Uiso   1.00
H1131  H     0.34307   0.66316   0.70841   0.00000  Uiso   1.00
H1132  H     0.30047   0.61876   0.76301   0.00000  Uiso   1.00
H1133  H     0.25929   0.64157   0.71430   0.00000  Uiso   1.00
C1134  C     0.22317   0.34637   0.91459   0.00000  Uiso   1.00
C1135  C     0.17673   0.36338   0.89919   0.00000  Uiso   1.00
H1136  H     0.17858   0.40259   0.88972   0.00000  Uiso   1.00
H1137  H     0.15895   0.33459   0.86005   0.00000  Uiso   1.00
H1138  H     0.15690   0.36695   0.93932   0.00000  Uiso   1.00
H1139  H     0.21788   0.65194   0.94460   0.00000  Uiso   1.00
H1140  H     0.24453   0.37834   0.94509   0.00000  Uiso   1.00
C1141  C     0.75053   0.40028   0.81819   0.00000  Uiso   1.00
C1142  C     0.75124   0.59982   0.84861   0.00000  Uiso   1.00
C1143  C     0.51278   0.41327   0.77382   0.00000  Uiso   1.00
C1144  C     0.98705   0.59360   0.89782   0.00000  Uiso   1.00
C1145  C     0.75867   0.34593   0.81168   0.00000  Uiso   1.00
C1146  C     0.74634   0.65475   0.85658   0.00000  Uiso   1.00
C1147  C     0.66451   0.49928   0.83417   0.00000  Uiso   1.00
C1148  C     0.83544   0.50460   0.83305   0.00000  Uiso   1.00
C1149  C     0.91067   0.55242   0.86784   0.00000  Uiso   1.00
C1150  C     0.58902   0.45284   0.80616   0.00000  Uiso   1.00
C1151  C     0.88381   0.50929   0.83173   0.00000  Uiso   1.00
C1152  C     0.61622   0.49783   0.83563   0.00000  Uiso   1.00
C1153  C     0.90315   0.46772   0.79497   0.00000  Uiso   1.00
C1154  C     0.59755   0.54338   0.86487   0.00000  Uiso   1.00
C1155  C     0.94893   0.46416   0.79825   0.00000  Uiso   1.00
C1156  C     0.55148   0.54593   0.86492   0.00000  Uiso   1.00
C1157  C     0.97673   0.50621   0.83261   0.00000  Uiso   1.00
C1158  C     0.52347   0.50278   0.83348   0.00000  Uiso   1.00
C1159  C     0.95790   0.55140   0.86617   0.00000  Uiso   1.00
C1160  C     0.54200   0.45590   0.80391   0.00000  Uiso   1.00
C1161  C     0.96699   0.41810   0.76910   0.00000  Uiso   1.00
C1162  C     0.53307   0.59119   0.89599   0.00000  Uiso   1.00
Cu1163 Cu    0.75501   0.50579   0.89479   0.00000  Uiso   1.00
Cu1164 Cu    0.74500   0.49421   0.77187   0.00000  Uiso   1.00
H1165  H     0.88227   0.43665   0.76547   0.00000  Uiso   1.00
H1166  H     0.61924   0.57714   0.88725   0.00000  Uiso   1.00
H1167  H     0.94551   0.38501   0.74419   0.00000  Uiso   1.00
H1168  H     0.55428   0.62479   0.91973   0.00000  Uiso   1.00
H1169  H     0.52449   0.37575   0.75320   0.00000  Uiso   1.00
H1170  H     0.97509   0.62918   0.92403   0.00000  Uiso   1.00
H1171  H     0.71320   0.46221   0.98353   0.00000  Uiso   1.00
H1172  H     0.78652   0.53821   0.68328   0.00000  Uiso   1.00
N1173  N     0.73745   0.48547   0.67951   0.00000  Uiso   1.00
N1174  N     0.76256   0.51453   0.98716   0.00000  Uiso   1.00
O1175  O     0.75326   0.42871   0.87326   0.00000  Uiso   1.00
O1176  O     0.74675   0.57129   0.79341   0.00000  Uiso   1.00
O1177  O     0.74480   0.41892   0.76945   0.00000  Uiso   1.00
O1178  O     0.75520   0.58108   0.89721   0.00000  Uiso   1.00
O1179  O     0.68936   0.50488   0.88524   0.00000  Uiso   1.00
O1180  O     0.81065   0.49512   0.78143   0.00000  Uiso   1.00
O1181  O     0.68090   0.49510   0.78143   0.00000  Uiso   1.00
O1182  O     0.81910   0.50490   0.88523   0.00000  Uiso   1.00
C1183  C     0.88948   0.59895   0.90686   0.00000  Uiso   1.00
C1184  C     0.88728   0.64456   0.87460   0.00000  Uiso   1.00
C1185  C     0.86919   0.35885   0.91593   0.00000  Uiso   1.00
H1186  H     0.89098   0.37155   0.95938   0.00000  Uiso   1.00
H1187  H     0.86843   0.39152   0.89200   0.00000  Uiso   1.00
H1188  H     0.83474   0.34964   0.92711   0.00000  Uiso   1.00
H1189  H     0.92074   0.65565   0.86163   0.00000  Uiso   1.00
H1190  H     0.86508   0.63236   0.83165   0.00000  Uiso   1.00
H1191  H     0.85517   0.58910   0.91728   0.00000  Uiso   1.00
H1192  H     0.90816   0.61110   0.95285   0.00000  Uiso   1.00
C1193  C     0.60989   0.40088   0.78485   0.00000  Uiso   1.00
C1194  C     0.60975   0.38219   0.71489   0.00000  Uiso   1.00
C1195  C     0.62334   0.65904   0.69919   0.00000  Uiso   1.00
H1196  H     0.65816   0.65658   0.71806   0.00000  Uiso   1.00
H1197  H     0.60052   0.63369   0.71862   0.00000  Uiso   1.00
H1198  H     0.62132   0.64379   0.98211   0.00000  Uiso   1.00
H1199  H     0.57667   0.38466   0.69095   0.00000  Uiso   1.00
H1200  H     0.63402   0.40761   0.69794   0.00000  Uiso   1.00
H1201  H     0.64522   0.40310   0.80220   0.00000  Uiso   1.00
H1202  H     0.59287   0.37128   0.80538   0.00000  Uiso   1.00
C1203  C     0.78346   0.65338   0.75547   0.00000  Uiso   1.00
C1204  C     0.82187   0.35403   0.74107   0.00000  Uiso   1.00
H1205  H     0.80970   0.38513   0.71903   0.00000  Uiso   1.00
H1206  H     0.84264   0.37105   0.78424   0.00000  Uiso   1.00
H1207  H     0.84307   0.66316   0.70841   0.00000  Uiso   1.00
H1208  H     0.80047   0.61876   0.76301   0.00000  Uiso   1.00
H1209  H     0.75929   0.64157   0.71430   0.00000  Uiso   1.00
C1210  C     0.72317   0.34637   0.91459   0.00000  Uiso   1.00
C1211  C     0.67673   0.36338   0.89919   0.00000  Uiso   1.00
H1212  H     0.67858   0.40259   0.88972   0.00000  Uiso   1.00
H1213  H     0.65895   0.33459   0.86005   0.00000  Uiso   1.00
H1214  H     0.65690   0.36695   0.93932   0.00000  Uiso   1.00
H1215  H     0.71788   0.65194   0.94460   0.00000  Uiso   1.00
H1216  H     0.74453   0.37834   0.94509   0.00000  Uiso   1.00
C1217  C     0.25053   0.73362   0.81819   0.00000  Uiso   1.00
C1218  C     0.25124   0.93315   0.84861   0.00000  Uiso   1.00
C1219  C     0.01278   0.74660   0.77382   0.00000  Uiso   1.00
C1220  C     0.48705   0.92693   0.89782   0.00000  Uiso   1.00
C1221  C     0.25867   0.67927   0.81168   0.00000  Uiso   1.00
C1222  C     0.24634   0.98808   0.85658   0.00000  Uiso   1.00
C1223  C     0.16451   0.83261   0.83417   0.00000  Uiso   1.00
C1224  C     0.33544   0.83793   0.83305   0.00000  Uiso   1.00
C1225  C     0.41067   0.88575   0.86784   0.00000  Uiso   1.00
C1226  C     0.08902   0.78618   0.80616   0.00000  Uiso   1.00
C1227  C     0.38381   0.84263   0.83173   0.00000  Uiso   1.00
C1228  C     0.11622   0.83117   0.83563   0.00000  Uiso   1.00
C1229  C     0.40315   0.80105   0.79497   0.00000  Uiso   1.00
C1230  C     0.09755   0.87672   0.86487   0.00000  Uiso   1.00
C1231  C     0.44893   0.79749   0.79825   0.00000  Uiso   1.00
C1232  C     0.05148   0.87927   0.86492   0.00000  Uiso   1.00
C1233  C     0.47673   0.83955   0.83261   0.00000  Uiso   1.00
C1234  C     0.02347   0.83611   0.83348   0.00000  Uiso   1.00
C1235  C     0.45790   0.88473   0.86617   0.00000  Uiso   1.00
C1236  C     0.04200   0.78923   0.80391   0.00000  Uiso   1.00
C1237  C     0.46699   0.75143   0.76910   0.00000  Uiso   1.00
C1238  C     0.03307   0.92453   0.89599   0.00000  Uiso   1.00
Cu1239 Cu    0.25501   0.83913   0.89479   0.00000  Uiso   1.00
Cu1240 Cu    0.24500   0.82754   0.77187   0.00000  Uiso   1.00
H1241  H     0.38227   0.76998   0.76547   0.00000  Uiso   1.00
H1242  H     0.11924   0.91047   0.88725   0.00000  Uiso   1.00
H1243  H     0.44551   0.71835   0.74419   0.00000  Uiso   1.00
H1244  H     0.05428   0.95812   0.91973   0.00000  Uiso   1.00
H1245  H     0.02449   0.70909   0.75320   0.00000  Uiso   1.00
H1246  H     0.47509   0.96251   0.92403   0.00000  Uiso   1.00
H1247  H     0.21320   0.79554   0.98353   0.00000  Uiso   1.00
H1248  H     0.28652   0.87154   0.68328   0.00000  Uiso   1.00
N1249  N     0.23745   0.81881   0.67951   0.00000  Uiso   1.00
N1250  N     0.26256   0.84786   0.98716   0.00000  Uiso   1.00
O1251  O     0.25326   0.76204   0.87326   0.00000  Uiso   1.00
O1252  O     0.24675   0.90462   0.79341   0.00000  Uiso   1.00
O1253  O     0.24480   0.75226   0.76945   0.00000  Uiso   1.00
O1254  O     0.25520   0.91441   0.89721   0.00000  Uiso   1.00
O1255  O     0.18936   0.83821   0.88524   0.00000  Uiso   1.00
O1256  O     0.31065   0.82845   0.78143   0.00000  Uiso   1.00
O1257  O     0.18090   0.82843   0.78143   0.00000  Uiso   1.00
O1258  O     0.31910   0.83824   0.88523   0.00000  Uiso   1.00
C1259  C     0.38948   0.93228   0.90686   0.00000  Uiso   1.00
C1260  C     0.38728   0.97790   0.87460   0.00000  Uiso   1.00
C1261  C     0.36919   0.69218   0.91593   0.00000  Uiso   1.00
H1262  H     0.39098   0.70489   0.95938   0.00000  Uiso   1.00
H1263  H     0.36843   0.72486   0.89200   0.00000  Uiso   1.00
H1264  H     0.33474   0.68297   0.92711   0.00000  Uiso   1.00
H1265  H     0.42074   0.98899   0.86163   0.00000  Uiso   1.00
H1266  H     0.36508   0.96569   0.83165   0.00000  Uiso   1.00
H1267  H     0.35517   0.92244   0.91728   0.00000  Uiso   1.00
H1268  H     0.40816   0.94443   0.95285   0.00000  Uiso   1.00
C1269  C     0.10989   0.73421   0.78485   0.00000  Uiso   1.00
C1270  C     0.10975   0.71552   0.71489   0.00000  Uiso   1.00
C1271  C     0.12334   0.99238   0.69919   0.00000  Uiso   1.00
H1272  H     0.15816   0.98991   0.71806   0.00000  Uiso   1.00
H1273  H     0.10052   0.96703   0.71862   0.00000  Uiso   1.00
H1274  H     0.12132   0.97712   0.98211   0.00000  Uiso   1.00
H1275  H     0.07667   0.71799   0.69095   0.00000  Uiso   1.00
H1276  H     0.13402   0.74094   0.69794   0.00000  Uiso   1.00
H1277  H     0.14522   0.73644   0.80220   0.00000  Uiso   1.00
H1278  H     0.09287   0.70461   0.80538   0.00000  Uiso   1.00
C1279  C     0.28346   0.98671   0.75547   0.00000  Uiso   1.00
C1280  C     0.32187   0.68737   0.74107   0.00000  Uiso   1.00
H1281  H     0.30970   0.71846   0.71903   0.00000  Uiso   1.00
H1282  H     0.34264   0.70438   0.78424   0.00000  Uiso   1.00
H1283  H     0.34307   0.99649   0.70841   0.00000  Uiso   1.00
H1284  H     0.30047   0.95209   0.76301   0.00000  Uiso   1.00
H1285  H     0.25929   0.97490   0.71430   0.00000  Uiso   1.00
C1286  C     0.22317   0.67971   0.91459   0.00000  Uiso   1.00
C1287  C     0.17673   0.69671   0.89919   0.00000  Uiso   1.00
H1288  H     0.17858   0.73592   0.88972   0.00000  Uiso   1.00
H1289  H     0.15895   0.66793   0.86005   0.00000  Uiso   1.00
H1290  H     0.15690   0.70029   0.93932   0.00000  Uiso   1.00
H1291  H     0.21788   0.98528   0.94460   0.00000  Uiso   1.00
H1292  H     0.24453   0.71168   0.94509   0.00000  Uiso   1.00
C1293  C     0.75053   0.73362   0.81819   0.00000  Uiso   1.00
C1294  C     0.75124   0.93315   0.84861   0.00000  Uiso   1.00
C1295  C     0.51278   0.74660   0.77382   0.00000  Uiso   1.00
C1296  C     0.98705   0.92693   0.89782   0.00000  Uiso   1.00
C1297  C     0.75867   0.67927   0.81168   0.00000  Uiso   1.00
C1298  C     0.74634   0.98808   0.85658   0.00000  Uiso   1.00
C1299  C     0.66451   0.83261   0.83417   0.00000  Uiso   1.00
C1300  C     0.83544   0.83793   0.83305   0.00000  Uiso   1.00
C1301  C     0.91067   0.88575   0.86784   0.00000  Uiso   1.00
C1302  C     0.58902   0.78618   0.80616   0.00000  Uiso   1.00
C1303  C     0.88381   0.84263   0.83173   0.00000  Uiso   1.00
C1304  C     0.61622   0.83117   0.83563   0.00000  Uiso   1.00
C1305  C     0.90315   0.80105   0.79497   0.00000  Uiso   1.00
C1306  C     0.59755   0.87672   0.86487   0.00000  Uiso   1.00
C1307  C     0.94893   0.79749   0.79825   0.00000  Uiso   1.00
C1308  C     0.55148   0.87927   0.86492   0.00000  Uiso   1.00
C1309  C     0.97673   0.83955   0.83261   0.00000  Uiso   1.00
C1310  C     0.52347   0.83611   0.83348   0.00000  Uiso   1.00
C1311  C     0.95790   0.88473   0.86617   0.00000  Uiso   1.00
C1312  C     0.54200   0.78923   0.80391   0.00000  Uiso   1.00
C1313  C     0.96699   0.75143   0.76910   0.00000  Uiso   1.00
C1314  C     0.53307   0.92453   0.89599   0.00000  Uiso   1.00
Cu1315 Cu    0.75501   0.83913   0.89479   0.00000  Uiso   1.00
Cu1316 Cu    0.74500   0.82754   0.77187   0.00000  Uiso   1.00
H1317  H     0.88227   0.76998   0.76547   0.00000  Uiso   1.00
H1318  H     0.61924   0.91047   0.88725   0.00000  Uiso   1.00
H1319  H     0.94551   0.71835   0.74419   0.00000  Uiso   1.00
H1320  H     0.55428   0.95812   0.91973   0.00000  Uiso   1.00
H1321  H     0.52449   0.70909   0.75320   0.00000  Uiso   1.00
H1322  H     0.97509   0.96251   0.92403   0.00000  Uiso   1.00
H1323  H     0.71320   0.79554   0.98353   0.00000  Uiso   1.00
H1324  H     0.78652   0.87154   0.68328   0.00000  Uiso   1.00
N1325  N     0.73745   0.81881   0.67951   0.00000  Uiso   1.00
N1326  N     0.76256   0.84786   0.98716   0.00000  Uiso   1.00
O1327  O     0.75326   0.76204   0.87326   0.00000  Uiso   1.00
O1328  O     0.74675   0.90462   0.79341   0.00000  Uiso   1.00
O1329  O     0.74480   0.75226   0.76945   0.00000  Uiso   1.00
O1330  O     0.75520   0.91441   0.89721   0.00000  Uiso   1.00
O1331  O     0.68936   0.83821   0.88524   0.00000  Uiso   1.00
O1332  O     0.81065   0.82845   0.78143   0.00000  Uiso   1.00
O1333  O     0.68090   0.82843   0.78143   0.00000  Uiso   1.00
O1334  O     0.81910   0.83824   0.88523   0.00000  Uiso   1.00
C1335  C     0.88948   0.93228   0.90686   0.00000  Uiso   1.00
C1336  C     0.88728   0.97790   0.87460   0.00000  Uiso   1.00
C1337  C     0.86919   0.69218   0.91593   0.00000  Uiso   1.00
H1338  H     0.89098   0.70489   0.95938   0.00000  Uiso   1.00
H1339  H     0.86843   0.72486   0.89200   0.00000  Uiso   1.00
H1340  H     0.83474   0.68297   0.92711   0.00000  Uiso   1.00
H1341  H     0.92074   0.98899   0.86163   0.00000  Uiso   1.00
H1342  H     0.86508   0.96569   0.83165   0.00000  Uiso   1.00
H1343  H     0.85517   0.92244   0.91728   0.00000  Uiso   1.00
H1344  H     0.90816   0.94443   0.95285   0.00000  Uiso   1.00
C1345  C     0.60989   0.73421   0.78485   0.00000  Uiso   1.00
C1346  C     0.60975   0.71552   0.71489   0.00000  Uiso   1.00
C1347  C     0.62334   0.99238   0.69919   0.00000  Uiso   1.00
H1348  H     0.65816   0.98991   0.71806   0.00000  Uiso   1.00
H1349  H     0.60052   0.96703   0.71862   0.00000  Uiso   1.00
H1350  H     0.62132   0.97712   0.98211   0.00000  Uiso   1.00
H1351  H     0.57667   0.71799   0.69095   0.00000  Uiso   1.00
H1352  H     0.63402   0.74094   0.69794   0.00000  Uiso   1.00
H1353  H     0.64522   0.73644   0.80220   0.00000  Uiso   1.00
H1354  H     0.59287   0.70461   0.80538   0.00000  Uiso   1.00
C1355  C     0.78346   0.98671   0.75547   0.00000  Uiso   1.00
C1356  C     0.82187   0.68737   0.74107   0.00000  Uiso   1.00
H1357  H     0.80970   0.71846   0.71903   0.00000  Uiso   1.00
H1358  H     0.84264   0.70438   0.78424   0.00000  Uiso   1.00
H1359  H     0.84307   0.99649   0.70841   0.00000  Uiso   1.00
H1360  H     0.80047   0.95209   0.76301   0.00000  Uiso   1.00
H1361  H     0.75929   0.97490   0.71430   0.00000  Uiso   1.00
C1362  C     0.72317   0.67971   0.91459   0.00000  Uiso   1.00
C1363  C     0.67673   0.69671   0.89919   0.00000  Uiso   1.00
H1364  H     0.67858   0.73592   0.88972   0.00000  Uiso   1.00
H1365  H     0.65895   0.66793   0.86005   0.00000  Uiso   1.00
H1366  H     0.65690   0.70029   0.93932   0.00000  Uiso   1.00
H1367  H     0.71788   0.98528   0.94460   0.00000  Uiso   1.00
H1368  H     0.74453   0.71168   0.94509   0.00000  Uiso   1.00
loop_
_geom_bond_atom_site_label_1
_geom_bond_atom_site_label_2
_geom_bond_distance
_geom_bond_site_symmetry_2
_ccdc_geom_bond_type
C1     C5      1.441   .     S
C1     O37     1.294   .     A
C1     O35     1.286   .     A
C2     C6      1.435   .     S
C2     O38     1.289   .     A
C2     O36     1.289   .     A
C3     H29     1.079   .     S
C3     C20     1.410   .     A
C3     C97     1.386   1_455 S
C4     C19     1.411   .     A
C4     H30     1.079   .     S
C4     C98     1.390   .     S
C5     C310    1.370   1_545 S
C5     C367    1.544   1_545 S
C6     C157    1.370   .     S
C6     C222    1.541   .     S
C7     C12     1.453   .     S
C7     O41     1.290   .     A
C7     O39     1.297   .     A
C8     O42     1.292   .     A
C8     C11     1.456   .     S
C8     O40     1.299   .     A
C9     C19     1.423   .     A
C9     C43     1.528   .     S
C9     C11     1.423   .     A
C10    C53     1.523   .     S
C10    C20     1.417   .     A
C10    C12     1.417   .     A
C11    C13     1.390   .     A
C12    C14     1.394   .     A
C13    H25     1.077   .     S
C13    C15     1.381   .     A
C14    H26     1.085   .     S
C14    C16     1.389   .     A
C15    C17     1.405   .     A
C15    C21     1.395   .     A
C16    C22     1.397   .     A
C16    C18     1.408   .     A
C17    C19     1.421   .     A
C17    C94     1.410   .     S
C18    C20     1.421   .     A
C18    C93     1.410   1_455 S
C21    H27     1.085   .     S
C21    C79     1.386   .     S
C22    H28     1.082   .     S
C22    C80     1.390   1_455 S
Cu23   O42     1.952   .     S
Cu23   Cu24    2.688   .     S
Cu23   N34     2.020   .     S
Cu23   O35     1.980   .     S
Cu23   O38     1.974   .     S
Cu23   O39     1.968   .     S
Cu24   O36     1.980   .     S
Cu24   O40     1.968   .     S
Cu24   O41     1.952   .     S
Cu24   O37     1.974   .     S
Cu24   N33     2.020   .     S
H31    N489    1.028   .     S
H32    N946    1.028   1_554 S
N33    H943    1.028   1_554 S
N33    N946    1.299   1_554 S
N34    N489    1.299   .     S
N34    H488    1.028   .     S
C43    H52     1.111   .     S
C43    C44     1.534   .     S
C43    H51     1.105   .     S
C44    H49     1.110   .     S
C44    H50     1.108   .     S
C44    C197    1.528   .     S
C45    H47     1.110   .     S
C45    H46     1.111   .     S
C45    H48     1.110   .     S
C45    C348    1.528   1_545 S
C53    C54     1.530   .     S
C53    H61     1.100   .     S
C53    H62     1.112   .     S
C54    H60     1.110   .     S
C54    H59     1.108   .     S
C54    C359    1.532   1_545 S
C55    H56     1.112   .     S
C55    H57     1.111   .     S
C55    C206    1.532   .     S
C55    H970    1.105   1_554 S
H58    C511    1.105   .     S
C63    H68     1.104   .     S
C63    H69     1.111   .     S
C63    C157    1.544   .     S
C63    C216    1.526   .     S
C64    H66     1.106   .     S
C64    H65     1.108   .     S
C64    C367    1.526   1_545 S
C64    H371    1.111   1_545 S
H67    C216    1.111   .     S
C70    C71     1.525   .     S
C70    H76     1.108   .     S
C70    C310    1.541   1_545 S
C70    H379    1.110   1_545 S
C71    H73     1.111   .     S
C71    H74     1.098   .     S
C71    H72     1.100   .     S
H75    C222    1.110   .     S
C77    C81     1.441   .     S
C77    O113    1.294   .     A
C77    O111    1.286   .     A
C78    C82     1.435   .     S
C78    O114    1.289   .     A
C78    O112    1.289   .     A
C79    H105    1.079   .     S
C79    C96     1.410   .     A
C80    C95     1.411   .     A
C80    H106    1.079   .     S
C80    C22     1.390   1_655 S
C81    C386    1.370   1_545 S
C81    C443    1.544   1_545 S
C82    C233    1.370   .     S
C82    C298    1.541   .     S
C83    C88     1.453   .     S
C83    O117    1.290   .     A
C83    O115    1.297   .     A
C84    O118    1.292   .     A
C84    C87     1.456   .     S
C84    O116    1.299   .     A
C85    C95     1.423   .     A
C85    C119    1.528   .     S
C85    C87     1.423   .     A
C86    C129    1.523   .     S
C86    C96     1.417   .     A
C86    C88     1.417   .     A
C87    C89     1.390   .     A
C88    C90     1.394   .     A
C89    H101    1.077   .     S
C89    C91     1.381   .     A
C90    H102    1.085   .     S
C90    C92     1.389   .     A
C91    C93     1.405   .     A
C91    C97     1.395   .     A
C92    C98     1.397   .     A
C92    C94     1.408   .     A
C93    C95     1.421   .     A
C93    C18     1.410   1_655 S
C94    C96     1.421   .     A
C97    H103    1.085   .     S
C97    C3      1.386   1_655 S
C98    H104    1.082   .     S
Cu99   O118    1.952   .     S
Cu99   Cu100   2.688   .     S
Cu99   N110    2.020   .     S
Cu99   O111    1.980   .     S
Cu99   O114    1.974   .     S
Cu99   O115    1.968   .     S
Cu100  O112    1.980   .     S
Cu100  O116    1.968   .     S
Cu100  O117    1.952   .     S
Cu100  O113    1.974   .     S
Cu100  N109    2.020   .     S
H107   N565    1.028   .     S
H108   N1022   1.028   1_554 S
N109   H1019   1.028   1_554 S
N109   N1022   1.299   1_554 S
N110   N565    1.299   .     S
N110   H564    1.028   .     S
C119   H128    1.111   .     S
C119   C120    1.534   .     S
C119   H127    1.105   .     S
C120   H125    1.110   .     S
C120   H126    1.108   .     S
C120   C273    1.528   .     S
C121   H123    1.110   .     S
C121   H122    1.111   .     S
C121   H124    1.110   .     S
C121   C424    1.528   1_545 S
C129   C130    1.530   .     S
C129   H137    1.100   .     S
C129   H138    1.112   .     S
C130   H136    1.110   .     S
C130   H135    1.108   .     S
C130   C435    1.532   1_545 S
C131   H132    1.112   .     S
C131   H133    1.111   .     S
C131   C282    1.532   .     S
C131   H1046   1.105   1_554 S
H134   C587    1.105   .     S
C139   H144    1.104   .     S
C139   H145    1.111   .     S
C139   C233    1.544   .     S
C139   C292    1.526   .     S
C140   H142    1.106   .     S
C140   H141    1.108   .     S
C140   C443    1.526   1_545 S
C140   H447    1.111   1_545 S
H143   C292    1.111   .     S
C146   C147    1.525   .     S
C146   H152    1.108   .     S
C146   C386    1.541   1_545 S
C146   H455    1.110   1_545 S
C147   H149    1.111   .     S
C147   H150    1.098   .     S
C147   H148    1.100   .     S
H151   C298    1.110   .     S
C153   C157    1.441   .     S
C153   O189    1.294   .     A
C153   O187    1.286   .     A
C154   C158    1.435   .     S
C154   O190    1.289   .     A
C154   O188    1.289   .     A
C155   H181    1.079   .     S
C155   C172    1.410   .     A
C155   C249    1.386   1_455 S
C156   C171    1.411   .     A
C156   H182    1.079   .     S
C156   C250    1.390   .     S
C158   C309    1.370   .     S
C158   C374    1.541   .     S
C159   C164    1.453   .     S
C159   O193    1.290   .     A
C159   O191    1.297   .     A
C160   O194    1.292   .     A
C160   C163    1.456   .     S
C160   O192    1.299   .     A
C161   C171    1.423   .     A
C161   C195    1.528   .     S
C161   C163    1.423   .     A
C162   C205    1.523   .     S
C162   C172    1.417   .     A
C162   C164    1.417   .     A
C163   C165    1.390   .     A
C164   C166    1.394   .     A
C165   H177    1.077   .     S
C165   C167    1.381   .     A
C166   H178    1.085   .     S
C166   C168    1.389   .     A
C167   C169    1.405   .     A
C167   C173    1.395   .     A
C168   C174    1.397   .     A
C168   C170    1.408   .     A
C169   C171    1.421   .     A
C169   C246    1.410   .     S
C170   C172    1.421   .     A
C170   C245    1.410   1_455 S
C173   H179    1.085   .     S
C173   C231    1.386   .     S
C174   H180    1.082   .     S
C174   C232    1.390   1_455 S
Cu175  O194    1.952   .     S
Cu175  Cu176   2.688   .     S
Cu175  N186    2.020   .     S
Cu175  O187    1.980   .     S
Cu175  O190    1.974   .     S
Cu175  O191    1.968   .     S
Cu176  O188    1.980   .     S
Cu176  O192    1.968   .     S
Cu176  O193    1.952   .     S
Cu176  O189    1.974   .     S
Cu176  N185    2.020   .     S
H183   N641    1.028   .     S
H184   N1098   1.028   1_554 S
N185   H1095   1.028   1_554 S
N185   N1098   1.299   1_554 S
N186   N641    1.299   .     S
N186   H640    1.028   .     S
C195   H204    1.111   .     S
C195   C196    1.534   .     S
C195   H203    1.105   .     S
C196   H201    1.110   .     S
C196   H202    1.108   .     S
C196   C349    1.528   .     S
C197   H199    1.110   .     S
C197   H198    1.111   .     S
C197   H200    1.110   .     S
C205   C206    1.530   .     S
C205   H213    1.100   .     S
C205   H214    1.112   .     S
C206   H212    1.110   .     S
C206   H211    1.108   .     S
C207   H208    1.112   .     S
C207   H209    1.111   .     S
C207   C358    1.532   .     S
C207   H1122   1.105   1_554 S
H210   C663    1.105   .     S
C215   H220    1.104   .     S
C215   H221    1.111   .     S
C215   C309    1.544   .     S
C215   C368    1.526   .     S
C216   H218    1.106   .     S
C216   H217    1.108   .     S
H219   C368    1.111   .     S
C222   C223    1.525   .     S
C222   H228    1.108   .     S
C223   H225    1.111   .     S
C223   H226    1.098   .     S
C223   H224    1.100   .     S
H227   C374    1.110   .     S
C229   C233    1.441   .     S
C229   O265    1.294   .     A
C229   O263    1.286   .     A
C230   C234    1.435   .     S
C230   O266    1.289   .     A
C230   O264    1.289   .     A
C231   H257    1.079   .     S
C231   C248    1.410   .     A
C232   C247    1.411   .     A
C232   H258    1.079   .     S
C232   C174    1.390   1_655 S
C234   C385    1.370   .     S
C234   C450    1.541   .     S
C235   C240    1.453   .     S
C235   O269    1.290   .     A
C235   O267    1.297   .     A
C236   O270    1.292   .     A
C236   C239    1.456   .     S
C236   O268    1.299   .     A
C237   C247    1.423   .     A
C237   C271    1.528   .     S
C237   C239    1.423   .     A
C238   C281    1.523   .     S
C238   C248    1.417   .     A
C238   C240    1.417   .     A
C239   C241    1.390   .     A
C240   C242    1.394   .     A
C241   H253    1.077   .     S
C241   C243    1.381   .     A
C242   H254    1.085   .     S
C242   C244    1.389   .     A
C243   C245    1.405   .     A
C243   C249    1.395   .     A
C244   C250    1.397   .     A
C244   C246    1.408   .     A
C245   C247    1.421   .     A
C245   C170    1.410   1_655 S
C246   C248    1.421   .     A
C249   H255    1.085   .     S
C249   C155    1.386   1_655 S
C250   H256    1.082   .     S
Cu251  O270    1.952   .     S
Cu251  Cu252   2.688   .     S
Cu251  N262    2.020   .     S
Cu251  O263    1.980   .     S
Cu251  O266    1.974   .     S
Cu251  O267    1.968   .     S
Cu252  O264    1.980   .     S
Cu252  O268    1.968   .     S
Cu252  O269    1.952   .     S
Cu252  O265    1.974   .     S
Cu252  N261    2.020   .     S
H259   N717    1.028   .     S
H260   N1174   1.028   1_554 S
N261   H1171   1.028   1_554 S
N261   N1174   1.299   1_554 S
N262   N717    1.299   .     S
N262   H716    1.028   .     S
C271   H280    1.111   .     S
C271   C272    1.534   .     S
C271   H279    1.105   .     S
C272   H277    1.110   .     S
C272   H278    1.108   .     S
C272   C425    1.528   .     S
C273   H275    1.110   .     S
C273   H274    1.111   .     S
C273   H276    1.110   .     S
C281   C282    1.530   .     S
C281   H289    1.100   .     S
C281   H290    1.112   .     S
C282   H288    1.110   .     S
C282   H287    1.108   .     S
C283   H284    1.112   .     S
C283   H285    1.111   .     S
C283   C434    1.532   .     S
C283   H1198   1.105   1_554 S
H286   C739    1.105   .     S
C291   H296    1.104   .     S
C291   H297    1.111   .     S
C291   C385    1.544   .     S
C291   C444    1.526   .     S
C292   H294    1.106   .     S
C292   H293    1.108   .     S
H295   C444    1.111   .     S
C298   C299    1.525   .     S
C298   H304    1.108   .     S
C299   H301    1.111   .     S
C299   H302    1.098   .     S
C299   H300    1.100   .     S
H303   C450    1.110   .     S
C305   C309    1.441   .     S
C305   O341    1.294   .     A
C305   O339    1.286   .     A
C306   C310    1.435   .     S
C306   O342    1.289   .     A
C306   O340    1.289   .     A
C307   H333    1.079   .     S
C307   C324    1.410   .     A
C307   C401    1.386   1_455 S
C308   C323    1.411   .     A
C308   H334    1.079   .     S
C308   C402    1.390   .     S
C310   C5      1.370   1_565 S
C310   C70     1.541   1_565 S
C311   C316    1.453   .     S
C311   O345    1.290   .     A
C311   O343    1.297   .     A
C312   O346    1.292   .     A
C312   C315    1.456   .     S
C312   O344    1.299   .     A
C313   C323    1.423   .     A
C313   C347    1.528   .     S
C313   C315    1.423   .     A
C314   C357    1.523   .     S
C314   C324    1.417   .     A
C314   C316    1.417   .     A
C315   C317    1.390   .     A
C316   C318    1.394   .     A
C317   H329    1.077   .     S
C317   C319    1.381   .     A
C318   H330    1.085   .     S
C318   C320    1.389   .     A
C319   C321    1.405   .     A
C319   C325    1.395   .     A
C320   C326    1.397   .     A
C320   C322    1.408   .     A
C321   C323    1.421   .     A
C321   C398    1.410   .     S
C322   C324    1.421   .     A
C322   C397    1.410   1_455 S
C325   H331    1.085   .     S
C325   C383    1.386   .     S
C326   H332    1.082   .     S
C326   C384    1.390   1_455 S
Cu327  O346    1.952   .     S
Cu327  Cu328   2.688   .     S
Cu327  N338    2.020   .     S
Cu327  O339    1.980   .     S
Cu327  O342    1.974   .     S
Cu327  O343    1.968   .     S
Cu328  O340    1.980   .     S
Cu328  O344    1.968   .     S
Cu328  O345    1.952   .     S
Cu328  O341    1.974   .     S
Cu328  N337    2.020   .     S
H335   N793    1.028   .     S
H336   N1250   1.028   1_554 S
N337   H1247   1.028   1_554 S
N337   N1250   1.299   1_554 S
N338   N793    1.299   .     S
N338   H792    1.028   .     S
C347   H356    1.111   .     S
C347   C348    1.534   .     S
C347   H355    1.105   .     S
C348   H353    1.110   .     S
C348   H354    1.108   .     S
C348   C45     1.528   1_565 S
C349   H351    1.110   .     S
C349   H350    1.111   .     S
C349   H352    1.110   .     S
C357   C358    1.530   .     S
C357   H365    1.100   .     S
C357   H366    1.112   .     S
C358   H364    1.110   .     S
C358   H363    1.108   .     S
C359   H360    1.112   .     S
C359   H361    1.111   .     S
C359   C54     1.532   1_565 S
C359   H1274   1.105   1_554 S
H362   C815    1.105   .     S
C367   H372    1.104   .     S
C367   H373    1.111   .     S
C367   C5      1.544   1_565 S
C367   C64     1.526   1_565 S
C368   H370    1.106   .     S
C368   H369    1.108   .     S
H371   C64     1.111   1_565 S
C374   C375    1.525   .     S
C374   H380    1.108   .     S
C375   H377    1.111   .     S
C375   H378    1.098   .     S
C375   H376    1.100   .     S
H379   C70     1.110   1_565 S
C381   C385    1.441   .     S
C381   O417    1.294   .     A
C381   O415    1.286   .     A
C382   C386    1.435   .     S
C382   O418    1.289   .     A
C382   O416    1.289   .     A
C383   H409    1.079   .     S
C383   C400    1.410   .     A
C384   C399    1.411   .     A
C384   H410    1.079   .     S
C384   C326    1.390   1_655 S
C386   C81     1.370   1_565 S
C386   C146    1.541   1_565 S
C387   C392    1.453   .     S
C387   O421    1.290   .     A
C387   O419    1.297   .     A
C388   O422    1.292   .     A
C388   C391    1.456   .     S
C388   O420    1.299   .     A
C389   C399    1.423   .     A
C389   C423    1.528   .     S
C389   C391    1.423   .     A
C390   C433    1.523   .     S
C390   C400    1.417   .     A
C390   C392    1.417   .     A
C391   C393    1.390   .     A
C392   C394    1.394   .     A
C393   H405    1.077   .     S
C393   C395    1.381   .     A
C394   H406    1.085   .     S
C394   C396    1.389   .     A
C395   C397    1.405   .     A
C395   C401    1.395   .     A
C396   C402    1.397   .     A
C396   C398    1.408   .     A
C397   C399    1.421   .     A
C397   C322    1.410   1_655 S
C398   C400    1.421   .     A
C401   H407    1.085   .     S
C401   C307    1.386   1_655 S
C402   H408    1.082   .     S
Cu403  O422    1.952   .     S
Cu403  Cu404   2.688   .     S
Cu403  N414    2.020   .     S
Cu403  O415    1.980   .     S
Cu403  O418    1.974   .     S
Cu403  O419    1.968   .     S
Cu404  O416    1.980   .     S
Cu404  O420    1.968   .     S
Cu404  O421    1.952   .     S
Cu404  O417    1.974   .     S
Cu404  N413    2.020   .     S
H411   N869    1.028   .     S
H412   N1326   1.028   1_554 S
N413   H1323   1.028   1_554 S
N413   N1326   1.299   1_554 S
N414   N869    1.299   .     S
N414   H868    1.028   .     S
C423   H432    1.111   .     S
C423   C424    1.534   .     S
C423   H431    1.105   .     S
C424   H429    1.110   .     S
C424   H430    1.108   .     S
C424   C121    1.528   1_565 S
C425   H427    1.110   .     S
C425   H426    1.111   .     S
C425   H428    1.110   .     S
C433   C434    1.530   .     S
C433   H441    1.100   .     S
C433   H442    1.112   .     S
C434   H440    1.110   .     S
C434   H439    1.108   .     S
C435   H436    1.112   .     S
C435   H437    1.111   .     S
C435   C130    1.532   1_565 S
C435   H1350   1.105   1_554 S
H438   C891    1.105   .     S
C443   H448    1.104   .     S
C443   H449    1.111   .     S
C443   C81     1.544   1_565 S
C443   C140    1.526   1_565 S
C444   H446    1.106   .     S
C444   H445    1.108   .     S
H447   C140    1.111   1_565 S
C450   C451    1.525   .     S
C450   H456    1.108   .     S
C451   H453    1.111   .     S
C451   H454    1.098   .     S
C451   H452    1.100   .     S
H455   C146    1.110   1_565 S
C457   C461    1.441   .     S
C457   O493    1.294   .     A
C457   O491    1.286   .     A
C458   C462    1.435   .     S
C458   O494    1.289   .     A
C458   O492    1.289   .     A
C459   H485    1.079   .     S
C459   C476    1.410   .     A
C459   C553    1.386   1_455 S
C460   C475    1.411   .     A
C460   H486    1.079   .     S
C460   C554    1.390   .     S
C461   C766    1.370   1_545 S
C461   C823    1.544   1_545 S
C462   C613    1.370   .     S
C462   C678    1.541   .     S
C463   C468    1.453   .     S
C463   O497    1.290   .     A
C463   O495    1.297   .     A
C464   O498    1.292   .     A
C464   C467    1.456   .     S
C464   O496    1.299   .     A
C465   C475    1.423   .     A
C465   C499    1.528   .     S
C465   C467    1.423   .     A
C466   C509    1.523   .     S
C466   C476    1.417   .     A
C466   C468    1.417   .     A
C467   C469    1.390   .     A
C468   C470    1.394   .     A
C469   H481    1.077   .     S
C469   C471    1.381   .     A
C470   H482    1.085   .     S
C470   C472    1.389   .     A
C471   C473    1.405   .     A
C471   C477    1.395   .     A
C472   C478    1.397   .     A
C472   C474    1.408   .     A
C473   C475    1.421   .     A
C473   C550    1.410   .     S
C474   C476    1.421   .     A
C474   C549    1.410   1_455 S
C477   H483    1.085   .     S
C477   C535    1.386   .     S
C478   H484    1.082   .     S
C478   C536    1.390   1_455 S
Cu479  O498    1.952   .     S
Cu479  Cu480   2.688   .     S
Cu479  N490    2.020   .     S
Cu479  O491    1.980   .     S
Cu479  O494    1.974   .     S
Cu479  O495    1.968   .     S
Cu480  O492    1.980   .     S
Cu480  O496    1.968   .     S
Cu480  O497    1.952   .     S
Cu480  O493    1.974   .     S
Cu480  N489    2.020   .     S
H487   N945    1.028   .     S
N490   N945    1.299   .     S
N490   H944    1.028   .     S
C499   H508    1.111   .     S
C499   C500    1.534   .     S
C499   H507    1.105   .     S
C500   H505    1.110   .     S
C500   H506    1.108   .     S
C500   C653    1.528   .     S
C501   H503    1.110   .     S
C501   H502    1.111   .     S
C501   H504    1.110   .     S
C501   C804    1.528   1_545 S
C509   C510    1.530   .     S
C509   H517    1.100   .     S
C509   H518    1.112   .     S
C510   H516    1.110   .     S
C510   H515    1.108   .     S
C510   C815    1.532   1_545 S
C511   H512    1.112   .     S
C511   H513    1.111   .     S
C511   C662    1.532   .     S
H514   C967    1.105   .     S
C519   H524    1.104   .     S
C519   H525    1.111   .     S
C519   C613    1.544   .     S
C519   C672    1.526   .     S
C520   H522    1.106   .     S
C520   H521    1.108   .     S
C520   C823    1.526   1_545 S
C520   H827    1.111   1_545 S
H523   C672    1.111   .     S
C526   C527    1.525   .     S
C526   H532    1.108   .     S
C526   C766    1.541   1_545 S
C526   H835    1.110   1_545 S
C527   H529    1.111   .     S
C527   H530    1.098   .     S
C527   H528    1.100   .     S
H531   C678    1.110   .     S
C533   C537    1.441   .     S
C533   O569    1.294   .     A
C533   O567    1.286   .     A
C534   C538    1.435   .     S
C534   O570    1.289   .     A
C534   O568    1.289   .     A
C535   H561    1.079   .     S
C535   C552    1.410   .     A
C536   C551    1.411   .     A
C536   H562    1.079   .     S
C536   C478    1.390   1_655 S
C537   C842    1.370   1_545 S
C537   C899    1.544   1_545 S
C538   C689    1.370   .     S
C538   C754    1.541   .     S
C539   C544    1.453   .     S
C539   O573    1.290   .     A
C539   O571    1.297   .     A
C540   O574    1.292   .     A
C540   C543    1.456   .     S
C540   O572    1.299   .     A
C541   C551    1.423   .     A
C541   C575    1.528   .     S
C541   C543    1.423   .     A
C542   C585    1.523   .     S
C542   C552    1.417   .     A
C542   C544    1.417   .     A
C543   C545    1.390   .     A
C544   C546    1.394   .     A
C545   H557    1.077   .     S
C545   C547    1.381   .     A
C546   H558    1.085   .     S
C546   C548    1.389   .     A
C547   C549    1.405   .     A
C547   C553    1.395   .     A
C548   C554    1.397   .     A
C548   C550    1.408   .     A
C549   C551    1.421   .     A
C549   C474    1.410   1_655 S
C550   C552    1.421   .     A
C553   H559    1.085   .     S
C553   C459    1.386   1_655 S
C554   H560    1.082   .     S
Cu555  O574    1.952   .     S
Cu555  Cu556   2.688   .     S
Cu555  N566    2.020   .     S
Cu555  O567    1.980   .     S
Cu555  O570    1.974   .     S
Cu555  O571    1.968   .     S
Cu556  O568    1.980   .     S
Cu556  O572    1.968   .     S
Cu556  O573    1.952   .     S
Cu556  O569    1.974   .     S
Cu556  N565    2.020   .     S
H563   N1021   1.028   .     S
N566   N1021   1.299   .     S
N566   H1020   1.028   .     S
C575   H584    1.111   .     S
C575   C576    1.534   .     S
C575   H583    1.105   .     S
C576   H581    1.110   .     S
C576   H582    1.108   .     S
C576   C729    1.528   .     S
C577   H579    1.110   .     S
C577   H578    1.111   .     S
C577   H580    1.110   .     S
C577   C880    1.528   1_545 S
C585   C586    1.530   .     S
C585   H593    1.100   .     S
C585   H594    1.112   .     S
C586   H592    1.110   .     S
C586   H591    1.108   .     S
C586   C891    1.532   1_545 S
C587   H588    1.112   .     S
C587   H589    1.111   .     S
C587   C738    1.532   .     S
H590   C1043   1.105   .     S
C595   H600    1.104   .     S
C595   H601    1.111   .     S
C595   C689    1.544   .     S
C595   C748    1.526   .     S
C596   H598    1.106   .     S
C596   H597    1.108   .     S
C596   C899    1.526   1_545 S
C596   H903    1.111   1_545 S
H599   C748    1.111   .     S
C602   C603    1.525   .     S
C602   H608    1.108   .     S
C602   C842    1.541   1_545 S
C602   H911    1.110   1_545 S
C603   H605    1.111   .     S
C603   H606    1.098   .     S
C603   H604    1.100   .     S
H607   C754    1.110   .     S
C609   C613    1.441   .     S
C609   O645    1.294   .     A
C609   O643    1.286   .     A
C610   C614    1.435   .     S
C610   O646    1.289   .     A
C610   O644    1.289   .     A
C611   H637    1.079   .     S
C611   C628    1.410   .     A
C611   C705    1.386   1_455 S
C612   C627    1.411   .     A
C612   H638    1.079   .     S
C612   C706    1.390   .     S
C614   C765    1.370   .     S
C614   C830    1.541   .     S
C615   C620    1.453   .     S
C615   O649    1.290   .     A
C615   O647    1.297   .     A
C616   O650    1.292   .     A
C616   C619    1.456   .     S
C616   O648    1.299   .     A
C617   C627    1.423   .     A
C617   C651    1.528   .     S
C617   C619    1.423   .     A
C618   C661    1.523   .     S
C618   C628    1.417   .     A
C618   C620    1.417   .     A
C619   C621    1.390   .     A
C620   C622    1.394   .     A
C621   H633    1.077   .     S
C621   C623    1.381   .     A
C622   H634    1.085   .     S
C622   C624    1.389   .     A
C623   C625    1.405   .     A
C623   C629    1.395   .     A
C624   C630    1.397   .     A
C624   C626    1.408   .     A
C625   C627    1.421   .     A
C625   C702    1.410   .     S
C626   C628    1.421   .     A
C626   C701    1.410   1_455 S
C629   H635    1.085   .     S
C629   C687    1.386   .     S
C630   H636    1.082   .     S
C630   C688    1.390   1_455 S
Cu631  O650    1.952   .     S
Cu631  Cu632   2.688   .     S
Cu631  N642    2.020   .     S
Cu631  O643    1.980   .     S
Cu631  O646    1.974   .     S
Cu631  O647    1.968   .     S
Cu632  O644    1.980   .     S
Cu632  O648    1.968   .     S
Cu632  O649    1.952   .     S
Cu632  O645    1.974   .     S
Cu632  N641    2.020   .     S
H639   N1097   1.028   .     S
N642   N1097   1.299   .     S
N642   H1096   1.028   .     S
C651   H660    1.111   .     S
C651   C652    1.534   .     S
C651   H659    1.105   .     S
C652   H657    1.110   .     S
C652   H658    1.108   .     S
C652   C805    1.528   .     S
C653   H655    1.110   .     S
C653   H654    1.111   .     S
C653   H656    1.110   .     S
C661   C662    1.530   .     S
C661   H669    1.100   .     S
C661   H670    1.112   .     S
C662   H668    1.110   .     S
C662   H667    1.108   .     S
C663   H664    1.112   .     S
C663   H665    1.111   .     S
C663   C814    1.532   .     S
H666   C1119   1.105   .     S
C671   H676    1.104   .     S
C671   H677    1.111   .     S
C671   C765    1.544   .     S
C671   C824    1.526   .     S
C672   H674    1.106   .     S
C672   H673    1.108   .     S
H675   C824    1.111   .     S
C678   C679    1.525   .     S
C678   H684    1.108   .     S
C679   H681    1.111   .     S
C679   H682    1.098   .     S
C679   H680    1.100   .     S
H683   C830    1.110   .     S
C685   C689    1.441   .     S
C685   O721    1.294   .     A
C685   O719    1.286   .     A
C686   C690    1.435   .     S
C686   O722    1.289   .     A
C686   O720    1.289   .     A
C687   H713    1.079   .     S
C687   C704    1.410   .     A
C688   C703    1.411   .     A
C688   H714    1.079   .     S
C688   C630    1.390   1_655 S
C690   C841    1.370   .     S
C690   C906    1.541   .     S
C691   C696    1.453   .     S
C691   O725    1.290   .     A
C691   O723    1.297   .     A
C692   O726    1.292   .     A
C692   C695    1.456   .     S
C692   O724    1.299   .     A
C693   C703    1.423   .     A
C693   C727    1.528   .     S
C693   C695    1.423   .     A
C694   C737    1.523   .     S
C694   C704    1.417   .     A
C694   C696    1.417   .     A
C695   C697    1.390   .     A
C696   C698    1.394   .     A
C697   H709    1.077   .     S
C697   C699    1.381   .     A
C698   H710    1.085   .     S
C698   C700    1.389   .     A
C699   C701    1.405   .     A
C699   C705    1.395   .     A
C700   C706    1.397   .     A
C700   C702    1.408   .     A
C701   C703    1.421   .     A
C701   C626    1.410   1_655 S
C702   C704    1.421   .     A
C705   H711    1.085   .     S
C705   C611    1.386   1_655 S
C706   H712    1.082   .     S
Cu707  O726    1.952   .     S
Cu707  Cu708   2.688   .     S
Cu707  N718    2.020   .     S
Cu707  O719    1.980   .     S
Cu707  O722    1.974   .     S
Cu707  O723    1.968   .     S
Cu708  O720    1.980   .     S
Cu708  O724    1.968   .     S
Cu708  O725    1.952   .     S
Cu708  O721    1.974   .     S
Cu708  N717    2.020   .     S
H715   N1173   1.028   .     S
N718   N1173   1.299   .     S
N718   H1172   1.028   .     S
C727   H736    1.111   .     S
C727   C728    1.534   .     S
C727   H735    1.105   .     S
C728   H733    1.110   .     S
C728   H734    1.108   .     S
C728   C881    1.528   .     S
C729   H731    1.110   .     S
C729   H730    1.111   .     S
C729   H732    1.110   .     S
C737   C738    1.530   .     S
C737   H745    1.100   .     S
C737   H746    1.112   .     S
C738   H744    1.110   .     S
C738   H743    1.108   .     S
C739   H740    1.112   .     S
C739   H741    1.111   .     S
C739   C890    1.532   .     S
H742   C1195   1.105   .     S
C747   H752    1.104   .     S
C747   H753    1.111   .     S
C747   C841    1.544   .     S
C747   C900    1.526   .     S
C748   H750    1.106   .     S
C748   H749    1.108   .     S
H751   C900    1.111   .     S
C754   C755    1.525   .     S
C754   H760    1.108   .     S
C755   H757    1.111   .     S
C755   H758    1.098   .     S
C755   H756    1.100   .     S
H759   C906    1.110   .     S
C761   C765    1.441   .     S
C761   O797    1.294   .     A
C761   O795    1.286   .     A
C762   C766    1.435   .     S
C762   O798    1.289   .     A
C762   O796    1.289   .     A
C763   H789    1.079   .     S
C763   C780    1.410   .     A
C763   C857    1.386   1_455 S
C764   C779    1.411   .     A
C764   H790    1.079   .     S
C764   C858    1.390   .     S
C766   C461    1.370   1_565 S
C766   C526    1.541   1_565 S
C767   C772    1.453   .     S
C767   O801    1.290   .     A
C767   O799    1.297   .     A
C768   O802    1.292   .     A
C768   C771    1.456   .     S
C768   O800    1.299   .     A
C769   C779    1.423   .     A
C769   C803    1.528   .     S
C769   C771    1.423   .     A
C770   C813    1.523   .     S
C770   C780    1.417   .     A
C770   C772    1.417   .     A
C771   C773    1.390   .     A
C772   C774    1.394   .     A
C773   H785    1.077   .     S
C773   C775    1.381   .     A
C774   H786    1.085   .     S
C774   C776    1.389   .     A
C775   C777    1.405   .     A
C775   C781    1.395   .     A
C776   C782    1.397   .     A
C776   C778    1.408   .     A
C777   C779    1.421   .     A
C777   C854    1.410   .     S
C778   C780    1.421   .     A
C778   C853    1.410   1_455 S
C781   H787    1.085   .     S
C781   C839    1.386   .     S
C782   H788    1.082   .     S
C782   C840    1.390   1_455 S
Cu783  O802    1.952   .     S
Cu783  Cu784   2.688   .     S
Cu783  N794    2.020   .     S
Cu783  O795    1.980   .     S
Cu783  O798    1.974   .     S
Cu783  O799    1.968   .     S
Cu784  O796    1.980   .     S
Cu784  O800    1.968   .     S
Cu784  O801    1.952   .     S
Cu784  O797    1.974   .     S
Cu784  N793    2.020   .     S
H791   N1249   1.028   .     S
N794   N1249   1.299   .     S
N794   H1248   1.028   .     S
C803   H812    1.111   .     S
C803   C804    1.534   .     S
C803   H811    1.105   .     S
C804   H809    1.110   .     S
C804   H810    1.108   .     S
C804   C501    1.528   1_565 S
C805   H807    1.110   .     S
C805   H806    1.111   .     S
C805   H808    1.110   .     S
C813   C814    1.530   .     S
C813   H821    1.100   .     S
C813   H822    1.112   .     S
C814   H820    1.110   .     S
C814   H819    1.108   .     S
C815   H816    1.112   .     S
C815   H817    1.111   .     S
C815   C510    1.532   1_565 S
H818   C1271   1.105   .     S
C823   H828    1.104   .     S
C823   H829    1.111   .     S
C823   C461    1.544   1_565 S
C823   C520    1.526   1_565 S
C824   H826    1.106   .     S
C824   H825    1.108   .     S
H827   C520    1.111   1_565 S
C830   C831    1.525   .     S
C830   H836    1.108   .     S
C831   H833    1.111   .     S
C831   H834    1.098   .     S
C831   H832    1.100   .     S
H835   C526    1.110   1_565 S
C837   C841    1.441   .     S
C837   O873    1.294   .     A
C837   O871    1.286   .     A
C838   C842    1.435   .     S
C838   O874    1.289   .     A
C838   O872    1.289   .     A
C839   H865    1.079   .     S
C839   C856    1.410   .     A
C840   C855    1.411   .     A
C840   H866    1.079   .     S
C840   C782    1.390   1_655 S
C842   C537    1.370   1_565 S
C842   C602    1.541   1_565 S
C843   C848    1.453   .     S
C843   O877    1.290   .     A
C843   O875    1.297   .     A
C844   O878    1.292   .     A
C844   C847    1.456   .     S
C844   O876    1.299   .     A
C845   C855    1.423   .     A
C845   C879    1.528   .     S
C845   C847    1.423   .     A
C846   C889    1.523   .     S
C846   C856    1.417   .     A
C846   C848    1.417   .     A
C847   C849    1.390   .     A
C848   C850    1.394   .     A
C849   H861    1.077   .     S
C849   C851    1.381   .     A
C850   H862    1.085   .     S
C850   C852    1.389   .     A
C851   C853    1.405   .     A
C851   C857    1.395   .     A
C852   C858    1.397   .     A
C852   C854    1.408   .     A
C853   C855    1.421   .     A
C853   C778    1.410   1_655 S
C854   C856    1.421   .     A
C857   H863    1.085   .     S
C857   C763    1.386   1_655 S
C858   H864    1.082   .     S
Cu859  O878    1.952   .     S
Cu859  Cu860   2.688   .     S
Cu859  N870    2.020   .     S
Cu859  O871    1.980   .     S
Cu859  O874    1.974   .     S
Cu859  O875    1.968   .     S
Cu860  O872    1.980   .     S
Cu860  O876    1.968   .     S
Cu860  O877    1.952   .     S
Cu860  O873    1.974   .     S
Cu860  N869    2.020   .     S
H867   N1325   1.028   .     S
N870   N1325   1.299   .     S
N870   H1324   1.028   .     S
C879   H888    1.111   .     S
C879   C880    1.534   .     S
C879   H887    1.105   .     S
C880   H885    1.110   .     S
C880   H886    1.108   .     S
C880   C577    1.528   1_565 S
C881   H883    1.110   .     S
C881   H882    1.111   .     S
C881   H884    1.110   .     S
C889   C890    1.530   .     S
C889   H897    1.100   .     S
C889   H898    1.112   .     S
C890   H896    1.110   .     S
C890   H895    1.108   .     S
C891   H892    1.112   .     S
C891   H893    1.111   .     S
C891   C586    1.532   1_565 S
H894   C1347   1.105   .     S
C899   H904    1.104   .     S
C899   H905    1.111   .     S
C899   C537    1.544   1_565 S
C899   C596    1.526   1_565 S
C900   H902    1.106   .     S
C900   H901    1.108   .     S
H903   C596    1.111   1_565 S
C906   C907    1.525   .     S
C906   H912    1.108   .     S
C907   H909    1.111   .     S
C907   H910    1.098   .     S
C907   H908    1.100   .     S
H911   C602    1.110   1_565 S
C913   C917    1.441   .     S
C913   O949    1.294   .     A
C913   O947    1.286   .     A
C914   C918    1.435   .     S
C914   O950    1.289   .     A
C914   O948    1.289   .     A
C915   H941    1.079   .     S
C915   C932    1.410   .     A
C915   C1009   1.386   1_455 S
C916   C931    1.411   .     A
C916   H942    1.079   .     S
C916   C1010   1.390   .     S
C917   C1222   1.370   1_545 S
C917   C1279   1.544   1_545 S
C918   C1069   1.370   .     S
C918   C1134   1.541   .     S
C919   C924    1.453   .     S
C919   O953    1.290   .     A
C919   O951    1.297   .     A
C920   O954    1.292   .     A
C920   C923    1.456   .     S
C920   O952    1.299   .     A
C921   C931    1.423   .     A
C921   C955    1.528   .     S
C921   C923    1.423   .     A
C922   C965    1.523   .     S
C922   C932    1.417   .     A
C922   C924    1.417   .     A
C923   C925    1.390   .     A
C924   C926    1.394   .     A
C925   H937    1.077   .     S
C925   C927    1.381   .     A
C926   H938    1.085   .     S
C926   C928    1.389   .     A
C927   C929    1.405   .     A
C927   C933    1.395   .     A
C928   C934    1.397   .     A
C928   C930    1.408   .     A
C929   C931    1.421   .     A
C929   C1006   1.410   .     S
C930   C932    1.421   .     A
C930   C1005   1.410   1_455 S
C933   H939    1.085   .     S
C933   C991    1.386   .     S
C934   H940    1.082   .     S
C934   C992    1.390   1_455 S
Cu935  O954    1.952   .     S
Cu935  Cu936   2.688   .     S
Cu935  N946    2.020   .     S
Cu935  O947    1.980   .     S
Cu935  O950    1.974   .     S
Cu935  O951    1.968   .     S
Cu936  O948    1.980   .     S
Cu936  O952    1.968   .     S
Cu936  O953    1.952   .     S
Cu936  O949    1.974   .     S
Cu936  N945    2.020   .     S
H943   N33     1.028   1_556 S
N946   N33     1.299   1_556 S
N946   H32     1.028   1_556 S
C955   H964    1.111   .     S
C955   C956    1.534   .     S
C955   H963    1.105   .     S
C956   H961    1.110   .     S
C956   H962    1.108   .     S
C956   C1109   1.528   .     S
C957   H959    1.110   .     S
C957   H958    1.111   .     S
C957   H960    1.110   .     S
C957   C1260   1.528   1_545 S
C965   C966    1.530   .     S
C965   H973    1.100   .     S
C965   H974    1.112   .     S
C966   H972    1.110   .     S
C966   H971    1.108   .     S
C966   C1271   1.532   1_545 S
C967   H968    1.112   .     S
C967   H969    1.111   .     S
C967   C1118   1.532   .     S
H970   C55     1.105   1_556 S
C975   H980    1.104   .     S
C975   H981    1.111   .     S
C975   C1069   1.544   .     S
C975   C1128   1.526   .     S
C976   H978    1.106   .     S
C976   H977    1.108   .     S
C976   C1279   1.526   1_545 S
C976   H1283   1.111   1_545 S
H979   C1128   1.111   .     S
C982   C983    1.525   .     S
C982   H988    1.108   .     S
C982   C1222   1.541   1_545 S
C982   H1291   1.110   1_545 S
C983   H985    1.111   .     S
C983   H986    1.098   .     S
C983   H984    1.100   .     S
H987   C1134   1.110   .     S
C989   C993    1.441   .     S
C989   O1025   1.294   .     A
C989   O1023   1.286   .     A
C990   C994    1.435   .     S
C990   O1026   1.289   .     A
C990   O1024   1.289   .     A
C991   H1017   1.079   .     S
C991   C1008   1.410   .     A
C992   C1007   1.411   .     A
C992   H1018   1.079   .     S
C992   C934    1.390   1_655 S
C993   C1298   1.370   1_545 S
C993   C1355   1.544   1_545 S
C994   C1145   1.370   .     S
C994   C1210   1.541   .     S
C995   C1000   1.453   .     S
C995   O1029   1.290   .     A
C995   O1027   1.297   .     A
C996   O1030   1.292   .     A
C996   C999    1.456   .     S
C996   O1028   1.299   .     A
C997   C1007   1.423   .     A
C997   C1031   1.528   .     S
C997   C999    1.423   .     A
C998   C1041   1.523   .     S
C998   C1008   1.417   .     A
C998   C1000   1.417   .     A
C999   C1001   1.390   .     A
C1000  C1002   1.394   .     A
C1001  H1013   1.077   .     S
C1001  C1003   1.381   .     A
C1002  H1014   1.085   .     S
C1002  C1004   1.389   .     A
C1003  C1005   1.405   .     A
C1003  C1009   1.395   .     A
C1004  C1010   1.397   .     A
C1004  C1006   1.408   .     A
C1005  C1007   1.421   .     A
C1005  C930    1.410   1_655 S
C1006  C1008   1.421   .     A
C1009  H1015   1.085   .     S
C1009  C915    1.386   1_655 S
C1010  H1016   1.082   .     S
Cu1011 O1030   1.952   .     S
Cu1011 Cu1012  2.688   .     S
Cu1011 N1022   2.020   .     S
Cu1011 O1023   1.980   .     S
Cu1011 O1026   1.974   .     S
Cu1011 O1027   1.968   .     S
Cu1012 O1024   1.980   .     S
Cu1012 O1028   1.968   .     S
Cu1012 O1029   1.952   .     S
Cu1012 O1025   1.974   .     S
Cu1012 N1021   2.020   .     S
H1019  N109    1.028   1_556 S
N1022  N109    1.299   1_556 S
N1022  H108    1.028   1_556 S
C1031  H1040   1.111   .     S
C1031  C1032   1.534   .     S
C1031  H1039   1.105   .     S
C1032  H1037   1.110   .     S
C1032  H1038   1.108   .     S
C1032  C1185   1.528   .     S
C1033  H1035   1.110   .     S
C1033  H1034   1.111   .     S
C1033  H1036   1.110   .     S
C1033  C1336   1.528   1_545 S
C1041  C1042   1.530   .     S
C1041  H1049   1.100   .     S
C1041  H1050   1.112   .     S
C1042  H1048   1.110   .     S
C1042  H1047   1.108   .     S
C1042  C1347   1.532   1_545 S
C1043  H1044   1.112   .     S
C1043  H1045   1.111   .     S
C1043  C1194   1.532   .     S
H1046  C131    1.105   1_556 S
C1051  H1056   1.104   .     S
C1051  H1057   1.111   .     S
C1051  C1145   1.544   .     S
C1051  C1204   1.526   .     S
C1052  H1054   1.106   .     S
C1052  H1053   1.108   .     S
C1052  C1355   1.526   1_545 S
C1052  H1359   1.111   1_545 S
H1055  C1204   1.111   .     S
C1058  C1059   1.525   .     S
C1058  H1064   1.108   .     S
C1058  C1298   1.541   1_545 S
C1058  H1367   1.110   1_545 S
C1059  H1061   1.111   .     S
C1059  H1062   1.098   .     S
C1059  H1060   1.100   .     S
H1063  C1210   1.110   .     S
C1065  C1069   1.441   .     S
C1065  O1101   1.294   .     A
C1065  O1099   1.286   .     A
C1066  C1070   1.435   .     S
C1066  O1102   1.289   .     A
C1066  O1100   1.289   .     A
C1067  H1093   1.079   .     S
C1067  C1084   1.410   .     A
C1067  C1161   1.386   1_455 S
C1068  C1083   1.411   .     A
C1068  H1094   1.079   .     S
C1068  C1162   1.390   .     S
C1070  C1221   1.370   .     S
C1070  C1286   1.541   .     S
C1071  C1076   1.453   .     S
C1071  O1105   1.290   .     A
C1071  O1103   1.297   .     A
C1072  O1106   1.292   .     A
C1072  C1075   1.456   .     S
C1072  O1104   1.299   .     A
C1073  C1083   1.423   .     A
C1073  C1107   1.528   .     S
C1073  C1075   1.423   .     A
C1074  C1117   1.523   .     S
C1074  C1084   1.417   .     A
C1074  C1076   1.417   .     A
C1075  C1077   1.390   .     A
C1076  C1078   1.394   .     A
C1077  H1089   1.077   .     S
C1077  C1079   1.381   .     A
C1078  H1090   1.085   .     S
C1078  C1080   1.389   .     A
C1079  C1081   1.405   .     A
C1079  C1085   1.395   .     A
C1080  C1086   1.397   .     A
C1080  C1082   1.408   .     A
C1081  C1083   1.421   .     A
C1081  C1158   1.410   .     S
C1082  C1084   1.421   .     A
C1082  C1157   1.410   1_455 S
C1085  H1091   1.085   .     S
C1085  C1143   1.386   .     S
C1086  H1092   1.082   .     S
C1086  C1144   1.390   1_455 S
Cu1087 O1106   1.952   .     S
Cu1087 Cu1088  2.688   .     S
Cu1087 N1098   2.020   .     S
Cu1087 O1099   1.980   .     S
Cu1087 O1102   1.974   .     S
Cu1087 O1103   1.968   .     S
Cu1088 O1100   1.980   .     S
Cu1088 O1104   1.968   .     S
Cu1088 O1105   1.952   .     S
Cu1088 O1101   1.974   .     S
Cu1088 N1097   2.020   .     S
H1095  N185    1.028   1_556 S
N1098  N185    1.299   1_556 S
N1098  H184    1.028   1_556 S
C1107  H1116   1.111   .     S
C1107  C1108   1.534   .     S
C1107  H1115   1.105   .     S
C1108  H1113   1.110   .     S
C1108  H1114   1.108   .     S
C1108  C1261   1.528   .     S
C1109  H1111   1.110   .     S
C1109  H1110   1.111   .     S
C1109  H1112   1.110   .     S
C1117  C1118   1.530   .     S
C1117  H1125   1.100   .     S
C1117  H1126   1.112   .     S
C1118  H1124   1.110   .     S
C1118  H1123   1.108   .     S
C1119  H1120   1.112   .     S
C1119  H1121   1.111   .     S
C1119  C1270   1.532   .     S
H1122  C207    1.105   1_556 S
C1127  H1132   1.104   .     S
C1127  H1133   1.111   .     S
C1127  C1221   1.544   .     S
C1127  C1280   1.526   .     S
C1128  H1130   1.106   .     S
C1128  H1129   1.108   .     S
H1131  C1280   1.111   .     S
C1134  C1135   1.525   .     S
C1134  H1140   1.108   .     S
C1135  H1137   1.111   .     S
C1135  H1138   1.098   .     S
C1135  H1136   1.100   .     S
H1139  C1286   1.110   .     S
C1141  C1145   1.441   .     S
C1141  O1177   1.294   .     A
C1141  O1175   1.286   .     A
C1142  C1146   1.435   .     S
C1142  O1178   1.289   .     A
C1142  O1176   1.289   .     A
C1143  H1169   1.079   .     S
C1143  C1160   1.410   .     A
C1144  C1159   1.411   .     A
C1144  H1170   1.079   .     S
C1144  C1086   1.390   1_655 S
C1146  C1297   1.370   .     S
C1146  C1362   1.541   .     S
C1147  C1152   1.453   .     S
C1147  O1181   1.290   .     A
C1147  O1179   1.297   .     A
C1148  O1182   1.292   .     A
C1148  C1151   1.456   .     S
C1148  O1180   1.299   .     A
C1149  C1159   1.423   .     A
C1149  C1183   1.528   .     S
C1149  C1151   1.423   .     A
C1150  C1193   1.523   .     S
C1150  C1160   1.417   .     A
C1150  C1152   1.417   .     A
C1151  C1153   1.390   .     A
C1152  C1154   1.394   .     A
C1153  H1165   1.077   .     S
C1153  C1155   1.381   .     A
C1154  H1166   1.085   .     S
C1154  C1156   1.389   .     A
C1155  C1157   1.405   .     A
C1155  C1161   1.395   .     A
C1156  C1162   1.397   .     A
C1156  C1158   1.408   .     A
C1157  C1159   1.421   .     A
C1157  C1082   1.410   1_655 S
C1158  C1160   1.421   .     A
C1161  H1167   1.085   .     S
C1161  C1067   1.386   1_655 S
C1162  H1168   1.082   .     S
Cu1163 O1182   1.952   .     S
Cu1163 Cu1164  2.688   .     S
Cu1163 N1174   2.020   .     S
Cu1163 O1175   1.980   .     S
Cu1163 O1178   1.974   .     S
Cu1163 O1179   1.968   .     S
Cu1164 O1176   1.980   .     S
Cu1164 O1180   1.968   .     S
Cu1164 O1181   1.952   .     S
Cu1164 O1177   1.974   .     S
Cu1164 N1173   2.020   .     S
H1171  N261    1.028   1_556 S
N1174  N261    1.299   1_556 S
N1174  H260    1.028   1_556 S
C1183  H1192   1.111   .     S
C1183  C1184   1.534   .     S
C1183  H1191   1.105   .     S
C1184  H1189   1.110   .     S
C1184  H1190   1.108   .     S
C1184  C1337   1.528   .     S
C1185  H1187   1.110   .     S
C1185  H1186   1.111   .     S
C1185  H1188   1.110   .     S
C1193  C1194   1.530   .     S
C1193  H1201   1.100   .     S
C1193  H1202   1.112   .     S
C1194  H1200   1.110   .     S
C1194  H1199   1.108   .     S
C1195  H1196   1.112   .     S
C1195  H1197   1.111   .     S
C1195  C1346   1.532   .     S
H1198  C283    1.105   1_556 S
C1203  H1208   1.104   .     S
C1203  H1209   1.111   .     S
C1203  C1297   1.544   .     S
C1203  C1356   1.526   .     S
C1204  H1206   1.106   .     S
C1204  H1205   1.108   .     S
H1207  C1356   1.111   .     S
C1210  C1211   1.525   .     S
C1210  H1216   1.108   .     S
C1211  H1213   1.111   .     S
C1211  H1214   1.098   .     S
C1211  H1212   1.100   .     S
H1215  C1362   1.110   .     S
C1217  C1221   1.441   .     S
C1217  O1253   1.294   .     A
C1217  O1251   1.286   .     A
C1218  C1222   1.435   .     S
C1218  O1254   1.289   .     A
C1218  O1252   1.289   .     A
C1219  H1245   1.079   .     S
C1219  C1236   1.410   .     A
C1219  C1313   1.386   1_455 S
C1220  C1235   1.411   .     A
C1220  H1246   1.079   .     S
C1220  C1314   1.390   .     S
C1222  C917    1.370   1_565 S
C1222  C982    1.541   1_565 S
C1223  C1228   1.453   .     S
C1223  O1257   1.290   .     A
C1223  O1255   1.297   .     A
C1224  O1258   1.292   .     A
C1224  C1227   1.456   .     S
C1224  O1256   1.299   .     A
C1225  C1235   1.423   .     A
C1225  C1259   1.528   .     S
C1225  C1227   1.423   .     A
C1226  C1269   1.523   .     S
C1226  C1236   1.417   .     A
C1226  C1228   1.417   .     A
C1227  C1229   1.390   .     A
C1228  C1230   1.394   .     A
C1229  H1241   1.077   .     S
C1229  C1231   1.381   .     A
C1230  H1242   1.085   .     S
C1230  C1232   1.389   .     A
C1231  C1233   1.405   .     A
C1231  C1237   1.395   .     A
C1232  C1238   1.397   .     A
C1232  C1234   1.408   .     A
C1233  C1235   1.421   .     A
C1233  C1310   1.410   .     S
C1234  C1236   1.421   .     A
C1234  C1309   1.410   1_455 S
C1237  H1243   1.085   .     S
C1237  C1295   1.386   .     S
C1238  H1244   1.082   .     S
C1238  C1296   1.390   1_455 S
Cu1239 O1258   1.952   .     S
Cu1239 Cu1240  2.688   .     S
Cu1239 N1250   2.020   .     S
Cu1239 O1251   1.980   .     S
Cu1239 O1254   1.974   .     S
Cu1239 O1255   1.968   .     S
Cu1240 O1252   1.980   .     S
Cu1240 O1256   1.968   .     S
Cu1240 O1257   1.952   .     S
Cu1240 O1253   1.974   .     S
Cu1240 N1249   2.020   .     S
H1247  N337    1.028   1_556 S
N1250  N337    1.299   1_556 S
N1250  H336    1.028   1_556 S
C1259  H1268   1.111   .     S
C1259  C1260   1.534   .     S
C1259  H1267   1.105   .     S
C1260  H1265   1.110   .     S
C1260  H1266   1.108   .     S
C1260  C957    1.528   1_565 S
C1261  H1263   1.110   .     S
C1261  H1262   1.111   .     S
C1261  H1264   1.110   .     S
C1269  C1270   1.530   .     S
C1269  H1277   1.100   .     S
C1269  H1278   1.112   .     S
C1270  H1276   1.110   .     S
C1270  H1275   1.108   .     S
C1271  H1272   1.112   .     S
C1271  H1273   1.111   .     S
C1271  C966    1.532   1_565 S
H1274  C359    1.105   1_556 S
C1279  H1284   1.104   .     S
C1279  H1285   1.111   .     S
C1279  C917    1.544   1_565 S
C1279  C976    1.526   1_565 S
C1280  H1282   1.106   .     S
C1280  H1281   1.108   .     S
H1283  C976    1.111   1_565 S
C1286  C1287   1.525   .     S
C1286  H1292   1.108   .     S
C1287  H1289   1.111   .     S
C1287  H1290   1.098   .     S
C1287  H1288   1.100   .     S
H1291  C982    1.110   1_565 S
C1293  C1297   1.441   .     S
C1293  O1329   1.294   .     A
C1293  O1327   1.286   .     A
C1294  C1298   1.435   .     S
C1294  O1330   1.289   .     A
C1294  O1328   1.289   .     A
C1295  H1321   1.079   .     S
C1295  C1312   1.410   .     A
C1296  C1311   1.411   .     A
C1296  H1322   1.079   .     S
C1296  C1238   1.390   1_655 S
C1298  C993    1.370   1_565 S
C1298  C1058   1.541   1_565 S
C1299  C1304   1.453   .     S
C1299  O1333   1.290   .     A
C1299  O1331   1.297   .     A
C1300  O1334   1.292   .     A
C1300  C1303   1.456   .     S
C1300  O1332   1.299   .     A
C1301  C1311   1.423   .     A
C1301  C1335   1.528   .     S
C1301  C1303   1.423   .     A
C1302  C1345   1.523   .     S
C1302  C1312   1.417   .     A
C1302  C1304   1.417   .     A
C1303  C1305   1.390   .     A
C1304  C1306   1.394   .     A
C1305  H1317   1.077   .     S
C1305  C1307   1.381   .     A
C1306  H1318   1.085   .     S
C1306  C1308   1.389   .     A
C1307  C1309   1.405   .     A
C1307  C1313   1.395   .     A
C1308  C1314   1.397   .     A
C1308  C1310   1.408   .     A
C1309  C1311   1.421   .     A
C1309  C1234   1.410   1_655 S
C1310  C1312   1.421   .     A
C1313  H1319   1.085   .     S
C1313  C1219   1.386   1_655 S
C1314  H1320   1.082   .     S
Cu1315 O1334   1.952   .     S
Cu1315 Cu1316  2.688   .     S
Cu1315 N1326   2.020   .     S
Cu1315 O1327   1.980   .     S
Cu1315 O1330   1.974   .     S
Cu1315 O1331   1.968   .     S
Cu1316 O1328   1.980   .     S
Cu1316 O1332   1.968   .     S
Cu1316 O1333   1.952   .     S
Cu1316 O1329   1.974   .     S
Cu1316 N1325   2.020   .     S
H1323  N413    1.028   1_556 S
N1326  N413    1.299   1_556 S
N1326  H412    1.028   1_556 S
C1335  H1344   1.111   .     S
C1335  C1336   1.534   .     S
C1335  H1343   1.105   .     S
C1336  H1341   1.110   .     S
C1336  H1342   1.108   .     S
C1336  C1033   1.528   1_565 S
C1337  H1339   1.110   .     S
C1337  H1338   1.111   .     S
C1337  H1340   1.110   .     S
C1345  C1346   1.530   .     S
C1345  H1353   1.100   .     S
C1345  H1354   1.112   .     S
C1346  H1352   1.110   .     S
C1346  H1351   1.108   .     S
C1347  H1348   1.112   .     S
C1347  H1349   1.111   .     S
C1347  C1042   1.532   1_565 S
H1350  C435    1.105   1_556 S
C1355  H1360   1.104   .     S
C1355  H1361   1.111   .     S
C1355  C993    1.544   1_565 S
C1355  C1052   1.526   1_565 S
C1356  H1358   1.106   .     S
C1356  H1357   1.108   .     S
H1359  C1052   1.111   1_565 S
C1362  C1363   1.525   .     S
C1362  H1368   1.108   .     S
C1363  H1365   1.111   .     S
C1363  H1366   1.098   .     S
C1363  H1364   1.100   .     S
H1367  C1058   1.110   1_565 S
