data_str_m2_o10_o18_pcu_sym.48
_audit_creation_date              2020-01-03
_audit_creation_method            'Materials Studio'
_symmetry_space_group_name_H-M    'P1'
_symmetry_Int_Tables_number       1
_symmetry_cell_setting            triclinic
loop_
_symmetry_equiv_pos_as_xyz
  x,y,z
_cell_length_a                    22.5336
_cell_length_b                    26.0386
_cell_length_c                    31.1024
_cell_angle_alpha                 95.5178
_cell_angle_beta                  76.2509
_cell_angle_gamma                 103.1065
loop_
_atom_site_label
_atom_site_type_symbol
_atom_site_fract_x
_atom_site_fract_y
_atom_site_fract_z
_atom_site_U_iso_or_equiv
_atom_site_adp_type
_atom_site_occupancy
C1     C     0.18140   0.26665   0.25184   0.00000  Uiso   1.00
C2     C     0.20498   0.17226   0.16656   0.00000  Uiso   1.00
C3     C     0.10538   0.14120   0.37892   0.00000  Uiso   1.00
C4     C     0.22901   0.17786   0.11772   0.00000  Uiso   1.00
C5     C     0.04066   0.07783   0.43351   0.00000  Uiso   1.00
C6     C     0.31284   0.20755   0.05308   0.00000  Uiso   1.00
C7     C     0.05404   0.09828   0.39078   0.00000  Uiso   1.00
C8     C     0.29102   0.20478   0.09972   0.00000  Uiso   1.00
C9     C     0.14295   0.16150   0.40916   0.00000  Uiso   1.00
C10    C     0.18881   0.15669   0.08901   0.00000  Uiso   1.00
C11    C     0.13969   0.13188   0.44599   0.00000  Uiso   1.00
C12    C     0.15197   0.06669   0.24812   0.00000  Uiso   1.00
C13    C     0.21249   0.15335   0.04248   0.00000  Uiso   1.00
C14    C     0.08546   0.09224   0.46019   0.00000  Uiso   1.00
C15    C     0.27383   0.18160   0.02433   0.00000  Uiso   1.00
C16    C     0.18827   0.14195   0.46966   0.00000  Uiso   1.00
C17    C     0.17432   0.12606   0.01337   0.00000  Uiso   1.00
C18    C     0.33143   0.23378   0.12959   0.00000  Uiso   1.00
C19    C     0.01670   0.07172   0.35828   0.00000  Uiso   1.00
C20    C     0.00609   0.22270   0.28946   0.00000  Uiso   1.00
C21    C     0.32795   0.11238   0.20882   0.00000  Uiso   1.00
C22    C     0.12365   0.08257   0.02580   0.00000  Uiso   1.00
C23    C     0.25151   0.16425   0.45036   0.00000  Uiso   1.00
C24    C     0.07808   0.06702   0.00014   0.00000  Uiso   1.00
C25    C     0.29402   0.18491   0.47764   0.00000  Uiso   1.00
C26    C     0.18858   0.32267   0.25446   0.00000  Uiso   1.00
C27    C     0.14489   0.01070   0.24541   0.00000  Uiso   1.00
C28    C     0.12828   0.15907   0.33289   0.00000  Uiso   1.00
Cu29   Cu    0.10737   0.16108   0.24517   0.00000  Uiso   1.00
Cu30   Cu    0.22596   0.17225   0.25484   0.00000  Uiso   1.00
H31    H     0.22965   0.01301   0.26463   0.00000  Uiso   1.00
H32    H     0.04829   0.26812   0.05415   0.00000  Uiso   1.00
H33    H     0.16276   0.05565   0.06576   0.00000  Uiso   1.00
H34    H     0.24843   0.13187   0.39184   0.00000  Uiso   1.00
H35    H     0.02511   0.26148   0.27641   0.00000  Uiso   1.00
H36    H     0.30665   0.07325   0.22058   0.00000  Uiso   1.00
H37    H     0.10395   0.32039   0.23509   0.00000  Uiso   1.00
H38    H     0.02235   0.01884   0.04433   0.00000  Uiso   1.00
H39    H     0.02694   0.21471   0.42757   0.00000  Uiso   1.00
H40    H     0.10277   0.15282   0.08689   0.00000  Uiso   1.00
H41    H     0.18854   0.22741   0.43077   0.00000  Uiso   1.00
H42    H     0.31167   0.25603   0.15869   0.00000  Uiso   1.00
H43    H     0.00078   0.09425   0.33747   0.00000  Uiso   1.00
H44    H     0.28599   0.04857   0.43472   0.00000  Uiso   1.00
N45    N     0.31506   0.18068   0.26212   0.00000  Uiso   1.00
N46    N     0.01827   0.15265   0.23788   0.00000  Uiso   1.00
O47    O     0.12815   0.23809   0.24686   0.00000  Uiso   1.00
O48    O     0.02185   0.20878   0.45932   0.00000  Uiso   1.00
O49    O     0.12556   0.14244   0.10711   0.00000  Uiso   1.00
O50    O     0.18208   0.21058   0.40180   0.00000  Uiso   1.00
O51    O     0.05345   0.23261   0.12236   0.00000  Uiso   1.00
O52    O     0.00288   0.02361   0.35475   0.00000  Uiso   1.00
O53    O     0.31857   0.04257   0.44901   0.00000  Uiso   1.00
O54    O     0.03832   0.23635   0.03490   0.00000  Uiso   1.00
O55    O     0.12026   0.05167   0.06043   0.00000  Uiso   1.00
O56    O     0.27441   0.16230   0.40509   0.00000  Uiso   1.00
O57    O     0.33279   0.21708   0.32887   0.00000  Uiso   1.00
O58    O     0.20518   0.09524   0.25314   0.00000  Uiso   1.00
O59    O     0.00423   0.11982   0.16942   0.00000  Uiso   1.00
O60    O     0.22829   0.24753   0.25503   0.00000  Uiso   1.00
O61    O     0.10504   0.08580   0.24498   0.00000  Uiso   1.00
O62    O     0.08851   0.15930   0.30855   0.00000  Uiso   1.00
O63    O     0.24482   0.17403   0.19146   0.00000  Uiso   1.00
O64    O     0.18866   0.16874   0.31671   0.00000  Uiso   1.00
O65    O     0.14468   0.16460   0.18329   0.00000  Uiso   1.00
O66    O     0.02700   0.02635   0.01297   0.00000  Uiso   1.00
C67    C     0.51474   0.26665   0.25184   0.00000  Uiso   1.00
C68    C     0.53831   0.17226   0.16656   0.00000  Uiso   1.00
C69    C     0.43871   0.14120   0.37892   0.00000  Uiso   1.00
C70    C     0.56234   0.17786   0.11772   0.00000  Uiso   1.00
C71    C     0.37399   0.07783   0.43351   0.00000  Uiso   1.00
C72    C     0.64618   0.20755   0.05308   0.00000  Uiso   1.00
C73    C     0.38737   0.09828   0.39078   0.00000  Uiso   1.00
C74    C     0.62435   0.20478   0.09972   0.00000  Uiso   1.00
C75    C     0.47628   0.16150   0.40916   0.00000  Uiso   1.00
C76    C     0.52215   0.15669   0.08901   0.00000  Uiso   1.00
C77    C     0.47302   0.13188   0.44599   0.00000  Uiso   1.00
C78    C     0.48530   0.06669   0.24812   0.00000  Uiso   1.00
C79    C     0.54582   0.15335   0.04248   0.00000  Uiso   1.00
C80    C     0.41880   0.09224   0.46019   0.00000  Uiso   1.00
C81    C     0.60716   0.18160   0.02433   0.00000  Uiso   1.00
C82    C     0.52160   0.14195   0.46966   0.00000  Uiso   1.00
C83    C     0.50765   0.12606   0.01337   0.00000  Uiso   1.00
C84    C     0.66477   0.23378   0.12959   0.00000  Uiso   1.00
C85    C     0.35003   0.07172   0.35828   0.00000  Uiso   1.00
C86    C     0.33942   0.22270   0.28946   0.00000  Uiso   1.00
C87    C     0.66129   0.11238   0.20882   0.00000  Uiso   1.00
C88    C     0.45699   0.08257   0.02580   0.00000  Uiso   1.00
C89    C     0.58484   0.16425   0.45036   0.00000  Uiso   1.00
C90    C     0.41141   0.06702   0.00014   0.00000  Uiso   1.00
C91    C     0.62735   0.18491   0.47764   0.00000  Uiso   1.00
C92    C     0.52192   0.32267   0.25446   0.00000  Uiso   1.00
C93    C     0.47822   0.01070   0.24541   0.00000  Uiso   1.00
C94    C     0.46161   0.15907   0.33289   0.00000  Uiso   1.00
Cu95   Cu    0.44071   0.16108   0.24517   0.00000  Uiso   1.00
Cu96   Cu    0.55929   0.17225   0.25484   0.00000  Uiso   1.00
H97    H     0.56299   0.01301   0.26463   0.00000  Uiso   1.00
H98    H     0.38163   0.26812   0.05415   0.00000  Uiso   1.00
H99    H     0.49609   0.05565   0.06576   0.00000  Uiso   1.00
H100   H     0.58176   0.13187   0.39184   0.00000  Uiso   1.00
H101   H     0.35844   0.26148   0.27641   0.00000  Uiso   1.00
H102   H     0.63998   0.07325   0.22058   0.00000  Uiso   1.00
H103   H     0.43728   0.32039   0.23509   0.00000  Uiso   1.00
H104   H     0.35568   0.01884   0.04433   0.00000  Uiso   1.00
H105   H     0.36028   0.21471   0.42757   0.00000  Uiso   1.00
H106   H     0.43611   0.15282   0.08689   0.00000  Uiso   1.00
H107   H     0.52187   0.22741   0.43077   0.00000  Uiso   1.00
H108   H     0.64500   0.25603   0.15869   0.00000  Uiso   1.00
H109   H     0.33411   0.09425   0.33747   0.00000  Uiso   1.00
H110   H     0.61932   0.04857   0.43472   0.00000  Uiso   1.00
N111   N     0.64839   0.18068   0.26212   0.00000  Uiso   1.00
N112   N     0.35161   0.15265   0.23788   0.00000  Uiso   1.00
O113   O     0.46148   0.23809   0.24686   0.00000  Uiso   1.00
O114   O     0.35518   0.20878   0.45932   0.00000  Uiso   1.00
O115   O     0.45889   0.14244   0.10711   0.00000  Uiso   1.00
O116   O     0.51542   0.21058   0.40180   0.00000  Uiso   1.00
O117   O     0.38679   0.23261   0.12236   0.00000  Uiso   1.00
O118   O     0.33621   0.02361   0.35475   0.00000  Uiso   1.00
O119   O     0.65191   0.04257   0.44901   0.00000  Uiso   1.00
O120   O     0.37165   0.23635   0.03490   0.00000  Uiso   1.00
O121   O     0.45360   0.05167   0.06043   0.00000  Uiso   1.00
O122   O     0.60774   0.16230   0.40509   0.00000  Uiso   1.00
O123   O     0.66612   0.21708   0.32887   0.00000  Uiso   1.00
O124   O     0.53852   0.09524   0.25314   0.00000  Uiso   1.00
O125   O     0.33757   0.11982   0.16942   0.00000  Uiso   1.00
O126   O     0.56163   0.24753   0.25503   0.00000  Uiso   1.00
O127   O     0.43837   0.08580   0.24498   0.00000  Uiso   1.00
O128   O     0.42185   0.15930   0.30855   0.00000  Uiso   1.00
O129   O     0.57815   0.17403   0.19146   0.00000  Uiso   1.00
O130   O     0.52199   0.16874   0.31671   0.00000  Uiso   1.00
O131   O     0.47801   0.16460   0.18329   0.00000  Uiso   1.00
O132   O     0.36033   0.02635   0.01297   0.00000  Uiso   1.00
C133   C     0.84807   0.26665   0.25184   0.00000  Uiso   1.00
C134   C     0.87165   0.17226   0.16656   0.00000  Uiso   1.00
C135   C     0.77204   0.14120   0.37892   0.00000  Uiso   1.00
C136   C     0.89567   0.17786   0.11772   0.00000  Uiso   1.00
C137   C     0.70733   0.07783   0.43351   0.00000  Uiso   1.00
C138   C     0.97951   0.20755   0.05308   0.00000  Uiso   1.00
C139   C     0.72070   0.09828   0.39078   0.00000  Uiso   1.00
C140   C     0.95769   0.20478   0.09972   0.00000  Uiso   1.00
C141   C     0.80961   0.16150   0.40916   0.00000  Uiso   1.00
C142   C     0.85548   0.15669   0.08901   0.00000  Uiso   1.00
C143   C     0.80636   0.13188   0.44599   0.00000  Uiso   1.00
C144   C     0.81863   0.06669   0.24812   0.00000  Uiso   1.00
C145   C     0.87916   0.15335   0.04248   0.00000  Uiso   1.00
C146   C     0.75213   0.09224   0.46019   0.00000  Uiso   1.00
C147   C     0.94049   0.18160   0.02433   0.00000  Uiso   1.00
C148   C     0.85493   0.14195   0.46966   0.00000  Uiso   1.00
C149   C     0.84099   0.12606   0.01337   0.00000  Uiso   1.00
C150   C     0.99810   0.23378   0.12959   0.00000  Uiso   1.00
C151   C     0.68336   0.07172   0.35828   0.00000  Uiso   1.00
C152   C     0.67275   0.22270   0.28946   0.00000  Uiso   1.00
C153   C     0.99462   0.11238   0.20882   0.00000  Uiso   1.00
C154   C     0.79032   0.08257   0.02580   0.00000  Uiso   1.00
C155   C     0.91817   0.16425   0.45036   0.00000  Uiso   1.00
C156   C     0.74475   0.06702   0.00014   0.00000  Uiso   1.00
C157   C     0.96069   0.18491   0.47764   0.00000  Uiso   1.00
C158   C     0.85525   0.32267   0.25446   0.00000  Uiso   1.00
C159   C     0.81155   0.01070   0.24541   0.00000  Uiso   1.00
C160   C     0.79495   0.15907   0.33289   0.00000  Uiso   1.00
Cu161  Cu    0.77404   0.16108   0.24517   0.00000  Uiso   1.00
Cu162  Cu    0.89263   0.17225   0.25484   0.00000  Uiso   1.00
H163   H     0.89632   0.01301   0.26463   0.00000  Uiso   1.00
H164   H     0.71496   0.26812   0.05415   0.00000  Uiso   1.00
H165   H     0.82943   0.05565   0.06576   0.00000  Uiso   1.00
H166   H     0.91510   0.13187   0.39184   0.00000  Uiso   1.00
H167   H     0.69178   0.26148   0.27641   0.00000  Uiso   1.00
H168   H     0.97332   0.07325   0.22058   0.00000  Uiso   1.00
H169   H     0.77062   0.32039   0.23509   0.00000  Uiso   1.00
H170   H     0.68902   0.01884   0.04433   0.00000  Uiso   1.00
H171   H     0.69361   0.21471   0.42757   0.00000  Uiso   1.00
H172   H     0.76944   0.15282   0.08689   0.00000  Uiso   1.00
H173   H     0.85520   0.22741   0.43077   0.00000  Uiso   1.00
H174   H     0.97833   0.25603   0.15869   0.00000  Uiso   1.00
H175   H     0.66745   0.09425   0.33747   0.00000  Uiso   1.00
H176   H     0.95265   0.04857   0.43472   0.00000  Uiso   1.00
N177   N     0.98173   0.18068   0.26212   0.00000  Uiso   1.00
N178   N     0.68494   0.15265   0.23788   0.00000  Uiso   1.00
O179   O     0.79482   0.23809   0.24686   0.00000  Uiso   1.00
O180   O     0.68852   0.20878   0.45932   0.00000  Uiso   1.00
O181   O     0.79223   0.14244   0.10711   0.00000  Uiso   1.00
O182   O     0.84875   0.21058   0.40180   0.00000  Uiso   1.00
O183   O     0.72012   0.23261   0.12236   0.00000  Uiso   1.00
O184   O     0.66955   0.02361   0.35475   0.00000  Uiso   1.00
O185   O     0.98524   0.04257   0.44901   0.00000  Uiso   1.00
O186   O     0.70499   0.23635   0.03490   0.00000  Uiso   1.00
O187   O     0.78693   0.05167   0.06043   0.00000  Uiso   1.00
O188   O     0.94108   0.16230   0.40509   0.00000  Uiso   1.00
O189   O     0.99946   0.21708   0.32887   0.00000  Uiso   1.00
O190   O     0.87185   0.09524   0.25314   0.00000  Uiso   1.00
O191   O     0.67090   0.11982   0.16942   0.00000  Uiso   1.00
O192   O     0.89496   0.24753   0.25503   0.00000  Uiso   1.00
O193   O     0.77171   0.08580   0.24498   0.00000  Uiso   1.00
O194   O     0.75518   0.15930   0.30855   0.00000  Uiso   1.00
O195   O     0.91149   0.17403   0.19146   0.00000  Uiso   1.00
O196   O     0.85532   0.16874   0.31671   0.00000  Uiso   1.00
O197   O     0.81134   0.16460   0.18329   0.00000  Uiso   1.00
O198   O     0.69366   0.02635   0.01297   0.00000  Uiso   1.00
C199   C     0.18140   0.59999   0.25184   0.00000  Uiso   1.00
C200   C     0.20498   0.50559   0.16656   0.00000  Uiso   1.00
C201   C     0.10538   0.47453   0.37892   0.00000  Uiso   1.00
C202   C     0.22901   0.51120   0.11772   0.00000  Uiso   1.00
C203   C     0.04066   0.41116   0.43351   0.00000  Uiso   1.00
C204   C     0.31284   0.54088   0.05308   0.00000  Uiso   1.00
C205   C     0.05404   0.43162   0.39078   0.00000  Uiso   1.00
C206   C     0.29102   0.53811   0.09972   0.00000  Uiso   1.00
C207   C     0.14295   0.49484   0.40916   0.00000  Uiso   1.00
C208   C     0.18881   0.49002   0.08901   0.00000  Uiso   1.00
C209   C     0.13969   0.46521   0.44599   0.00000  Uiso   1.00
C210   C     0.15197   0.40002   0.24812   0.00000  Uiso   1.00
C211   C     0.21249   0.48668   0.04248   0.00000  Uiso   1.00
C212   C     0.08546   0.42557   0.46019   0.00000  Uiso   1.00
C213   C     0.27383   0.51493   0.02433   0.00000  Uiso   1.00
C214   C     0.18827   0.47528   0.46966   0.00000  Uiso   1.00
C215   C     0.17432   0.45939   0.01337   0.00000  Uiso   1.00
C216   C     0.33143   0.56711   0.12959   0.00000  Uiso   1.00
C217   C     0.01670   0.40506   0.35828   0.00000  Uiso   1.00
C218   C     0.00609   0.55603   0.28946   0.00000  Uiso   1.00
C219   C     0.32795   0.44571   0.20882   0.00000  Uiso   1.00
C220   C     0.12365   0.41591   0.02580   0.00000  Uiso   1.00
C221   C     0.25151   0.49759   0.45036   0.00000  Uiso   1.00
C222   C     0.07808   0.40035   0.00014   0.00000  Uiso   1.00
C223   C     0.29402   0.51825   0.47764   0.00000  Uiso   1.00
C224   C     0.18858   0.65601   0.25446   0.00000  Uiso   1.00
C225   C     0.14489   0.34403   0.24541   0.00000  Uiso   1.00
C226   C     0.12828   0.49241   0.33289   0.00000  Uiso   1.00
Cu227  Cu    0.10737   0.49441   0.24517   0.00000  Uiso   1.00
Cu228  Cu    0.22596   0.50559   0.25484   0.00000  Uiso   1.00
H229   H     0.22965   0.34635   0.26463   0.00000  Uiso   1.00
H230   H     0.04829   0.60145   0.05415   0.00000  Uiso   1.00
H231   H     0.16276   0.38898   0.06576   0.00000  Uiso   1.00
H232   H     0.24843   0.46521   0.39184   0.00000  Uiso   1.00
H233   H     0.02511   0.59481   0.27641   0.00000  Uiso   1.00
H234   H     0.30665   0.40659   0.22058   0.00000  Uiso   1.00
H235   H     0.10395   0.65373   0.23509   0.00000  Uiso   1.00
H236   H     0.02235   0.35217   0.04433   0.00000  Uiso   1.00
H237   H     0.02694   0.54804   0.42757   0.00000  Uiso   1.00
H238   H     0.10277   0.48615   0.08689   0.00000  Uiso   1.00
H239   H     0.18854   0.56074   0.43077   0.00000  Uiso   1.00
H240   H     0.31167   0.58936   0.15869   0.00000  Uiso   1.00
H241   H     0.00078   0.42759   0.33747   0.00000  Uiso   1.00
H242   H     0.28599   0.38191   0.43472   0.00000  Uiso   1.00
N243   N     0.31506   0.51401   0.26212   0.00000  Uiso   1.00
N244   N     0.01827   0.48599   0.23788   0.00000  Uiso   1.00
O245   O     0.12815   0.57142   0.24686   0.00000  Uiso   1.00
O246   O     0.02185   0.54212   0.45932   0.00000  Uiso   1.00
O247   O     0.12556   0.47577   0.10711   0.00000  Uiso   1.00
O248   O     0.18208   0.54391   0.40180   0.00000  Uiso   1.00
O249   O     0.05345   0.56594   0.12236   0.00000  Uiso   1.00
O250   O     0.00288   0.35694   0.35475   0.00000  Uiso   1.00
O251   O     0.31857   0.37590   0.44901   0.00000  Uiso   1.00
O252   O     0.03832   0.56968   0.03490   0.00000  Uiso   1.00
O253   O     0.12026   0.38500   0.06043   0.00000  Uiso   1.00
O254   O     0.27441   0.49564   0.40509   0.00000  Uiso   1.00
O255   O     0.33279   0.55041   0.32887   0.00000  Uiso   1.00
O256   O     0.20518   0.42858   0.25314   0.00000  Uiso   1.00
O257   O     0.00423   0.45316   0.16942   0.00000  Uiso   1.00
O258   O     0.22829   0.58086   0.25503   0.00000  Uiso   1.00
O259   O     0.10504   0.41914   0.24498   0.00000  Uiso   1.00
O260   O     0.08851   0.49263   0.30855   0.00000  Uiso   1.00
O261   O     0.24482   0.50737   0.19146   0.00000  Uiso   1.00
O262   O     0.18866   0.50207   0.31671   0.00000  Uiso   1.00
O263   O     0.14468   0.49793   0.18329   0.00000  Uiso   1.00
O264   O     0.02700   0.35969   0.01297   0.00000  Uiso   1.00
C265   C     0.51474   0.59999   0.25184   0.00000  Uiso   1.00
C266   C     0.53831   0.50559   0.16656   0.00000  Uiso   1.00
C267   C     0.43871   0.47453   0.37892   0.00000  Uiso   1.00
C268   C     0.56234   0.51120   0.11772   0.00000  Uiso   1.00
C269   C     0.37399   0.41116   0.43351   0.00000  Uiso   1.00
C270   C     0.64618   0.54088   0.05308   0.00000  Uiso   1.00
C271   C     0.38737   0.43162   0.39078   0.00000  Uiso   1.00
C272   C     0.62435   0.53811   0.09972   0.00000  Uiso   1.00
C273   C     0.47628   0.49484   0.40916   0.00000  Uiso   1.00
C274   C     0.52215   0.49002   0.08901   0.00000  Uiso   1.00
C275   C     0.47302   0.46521   0.44599   0.00000  Uiso   1.00
C276   C     0.48530   0.40002   0.24812   0.00000  Uiso   1.00
C277   C     0.54582   0.48668   0.04248   0.00000  Uiso   1.00
C278   C     0.41880   0.42557   0.46019   0.00000  Uiso   1.00
C279   C     0.60716   0.51493   0.02433   0.00000  Uiso   1.00
C280   C     0.52160   0.47528   0.46966   0.00000  Uiso   1.00
C281   C     0.50765   0.45939   0.01337   0.00000  Uiso   1.00
C282   C     0.66477   0.56711   0.12959   0.00000  Uiso   1.00
C283   C     0.35003   0.40506   0.35828   0.00000  Uiso   1.00
C284   C     0.33942   0.55603   0.28946   0.00000  Uiso   1.00
C285   C     0.66129   0.44571   0.20882   0.00000  Uiso   1.00
C286   C     0.45699   0.41591   0.02580   0.00000  Uiso   1.00
C287   C     0.58484   0.49759   0.45036   0.00000  Uiso   1.00
C288   C     0.41141   0.40035   0.00014   0.00000  Uiso   1.00
C289   C     0.62735   0.51825   0.47764   0.00000  Uiso   1.00
C290   C     0.52192   0.65601   0.25446   0.00000  Uiso   1.00
C291   C     0.47822   0.34403   0.24541   0.00000  Uiso   1.00
C292   C     0.46161   0.49241   0.33289   0.00000  Uiso   1.00
Cu293  Cu    0.44071   0.49441   0.24517   0.00000  Uiso   1.00
Cu294  Cu    0.55929   0.50559   0.25484   0.00000  Uiso   1.00
H295   H     0.56299   0.34635   0.26463   0.00000  Uiso   1.00
H296   H     0.38163   0.60145   0.05415   0.00000  Uiso   1.00
H297   H     0.49609   0.38898   0.06576   0.00000  Uiso   1.00
H298   H     0.58176   0.46521   0.39184   0.00000  Uiso   1.00
H299   H     0.35844   0.59481   0.27641   0.00000  Uiso   1.00
H300   H     0.63998   0.40659   0.22058   0.00000  Uiso   1.00
H301   H     0.43728   0.65373   0.23509   0.00000  Uiso   1.00
H302   H     0.35568   0.35217   0.04433   0.00000  Uiso   1.00
H303   H     0.36028   0.54804   0.42757   0.00000  Uiso   1.00
H304   H     0.43611   0.48615   0.08689   0.00000  Uiso   1.00
H305   H     0.52187   0.56074   0.43077   0.00000  Uiso   1.00
H306   H     0.64500   0.58936   0.15869   0.00000  Uiso   1.00
H307   H     0.33411   0.42759   0.33747   0.00000  Uiso   1.00
H308   H     0.61932   0.38191   0.43472   0.00000  Uiso   1.00
N309   N     0.64839   0.51401   0.26212   0.00000  Uiso   1.00
N310   N     0.35161   0.48599   0.23788   0.00000  Uiso   1.00
O311   O     0.46148   0.57142   0.24686   0.00000  Uiso   1.00
O312   O     0.35518   0.54212   0.45932   0.00000  Uiso   1.00
O313   O     0.45889   0.47577   0.10711   0.00000  Uiso   1.00
O314   O     0.51542   0.54391   0.40180   0.00000  Uiso   1.00
O315   O     0.38679   0.56594   0.12236   0.00000  Uiso   1.00
O316   O     0.33621   0.35694   0.35475   0.00000  Uiso   1.00
O317   O     0.65191   0.37590   0.44901   0.00000  Uiso   1.00
O318   O     0.37165   0.56968   0.03490   0.00000  Uiso   1.00
O319   O     0.45360   0.38500   0.06043   0.00000  Uiso   1.00
O320   O     0.60774   0.49564   0.40509   0.00000  Uiso   1.00
O321   O     0.66612   0.55041   0.32887   0.00000  Uiso   1.00
O322   O     0.53852   0.42858   0.25314   0.00000  Uiso   1.00
O323   O     0.33757   0.45316   0.16942   0.00000  Uiso   1.00
O324   O     0.56163   0.58086   0.25503   0.00000  Uiso   1.00
O325   O     0.43837   0.41914   0.24498   0.00000  Uiso   1.00
O326   O     0.42185   0.49263   0.30855   0.00000  Uiso   1.00
O327   O     0.57815   0.50737   0.19146   0.00000  Uiso   1.00
O328   O     0.52199   0.50207   0.31671   0.00000  Uiso   1.00
O329   O     0.47801   0.49793   0.18329   0.00000  Uiso   1.00
O330   O     0.36033   0.35969   0.01297   0.00000  Uiso   1.00
C331   C     0.84807   0.59999   0.25184   0.00000  Uiso   1.00
C332   C     0.87165   0.50559   0.16656   0.00000  Uiso   1.00
C333   C     0.77204   0.47453   0.37892   0.00000  Uiso   1.00
C334   C     0.89567   0.51120   0.11772   0.00000  Uiso   1.00
C335   C     0.70733   0.41116   0.43351   0.00000  Uiso   1.00
C336   C     0.97951   0.54088   0.05308   0.00000  Uiso   1.00
C337   C     0.72070   0.43162   0.39078   0.00000  Uiso   1.00
C338   C     0.95769   0.53811   0.09972   0.00000  Uiso   1.00
C339   C     0.80961   0.49484   0.40916   0.00000  Uiso   1.00
C340   C     0.85548   0.49002   0.08901   0.00000  Uiso   1.00
C341   C     0.80636   0.46521   0.44599   0.00000  Uiso   1.00
C342   C     0.81863   0.40002   0.24812   0.00000  Uiso   1.00
C343   C     0.87916   0.48668   0.04248   0.00000  Uiso   1.00
C344   C     0.75213   0.42557   0.46019   0.00000  Uiso   1.00
C345   C     0.94049   0.51493   0.02433   0.00000  Uiso   1.00
C346   C     0.85493   0.47528   0.46966   0.00000  Uiso   1.00
C347   C     0.84099   0.45939   0.01337   0.00000  Uiso   1.00
C348   C     0.99810   0.56711   0.12959   0.00000  Uiso   1.00
C349   C     0.68336   0.40506   0.35828   0.00000  Uiso   1.00
C350   C     0.67275   0.55603   0.28946   0.00000  Uiso   1.00
C351   C     0.99462   0.44571   0.20882   0.00000  Uiso   1.00
C352   C     0.79032   0.41591   0.02580   0.00000  Uiso   1.00
C353   C     0.91817   0.49759   0.45036   0.00000  Uiso   1.00
C354   C     0.74475   0.40035   0.00014   0.00000  Uiso   1.00
C355   C     0.96069   0.51825   0.47764   0.00000  Uiso   1.00
C356   C     0.85525   0.65601   0.25446   0.00000  Uiso   1.00
C357   C     0.81155   0.34403   0.24541   0.00000  Uiso   1.00
C358   C     0.79495   0.49241   0.33289   0.00000  Uiso   1.00
Cu359  Cu    0.77404   0.49441   0.24517   0.00000  Uiso   1.00
Cu360  Cu    0.89263   0.50559   0.25484   0.00000  Uiso   1.00
H361   H     0.89632   0.34635   0.26463   0.00000  Uiso   1.00
H362   H     0.71496   0.60145   0.05415   0.00000  Uiso   1.00
H363   H     0.82943   0.38898   0.06576   0.00000  Uiso   1.00
H364   H     0.91510   0.46521   0.39184   0.00000  Uiso   1.00
H365   H     0.69178   0.59481   0.27641   0.00000  Uiso   1.00
H366   H     0.97332   0.40659   0.22058   0.00000  Uiso   1.00
H367   H     0.77062   0.65373   0.23509   0.00000  Uiso   1.00
H368   H     0.68902   0.35217   0.04433   0.00000  Uiso   1.00
H369   H     0.69361   0.54804   0.42757   0.00000  Uiso   1.00
H370   H     0.76944   0.48615   0.08689   0.00000  Uiso   1.00
H371   H     0.85520   0.56074   0.43077   0.00000  Uiso   1.00
H372   H     0.97833   0.58936   0.15869   0.00000  Uiso   1.00
H373   H     0.66745   0.42759   0.33747   0.00000  Uiso   1.00
H374   H     0.95265   0.38191   0.43472   0.00000  Uiso   1.00
N375   N     0.98173   0.51401   0.26212   0.00000  Uiso   1.00
N376   N     0.68494   0.48599   0.23788   0.00000  Uiso   1.00
O377   O     0.79482   0.57142   0.24686   0.00000  Uiso   1.00
O378   O     0.68852   0.54212   0.45932   0.00000  Uiso   1.00
O379   O     0.79223   0.47577   0.10711   0.00000  Uiso   1.00
O380   O     0.84875   0.54391   0.40180   0.00000  Uiso   1.00
O381   O     0.72012   0.56594   0.12236   0.00000  Uiso   1.00
O382   O     0.66955   0.35694   0.35475   0.00000  Uiso   1.00
O383   O     0.98524   0.37590   0.44901   0.00000  Uiso   1.00
O384   O     0.70499   0.56968   0.03490   0.00000  Uiso   1.00
O385   O     0.78693   0.38500   0.06043   0.00000  Uiso   1.00
O386   O     0.94108   0.49564   0.40509   0.00000  Uiso   1.00
O387   O     0.99946   0.55041   0.32887   0.00000  Uiso   1.00
O388   O     0.87185   0.42858   0.25314   0.00000  Uiso   1.00
O389   O     0.67090   0.45316   0.16942   0.00000  Uiso   1.00
O390   O     0.89496   0.58086   0.25503   0.00000  Uiso   1.00
O391   O     0.77171   0.41914   0.24498   0.00000  Uiso   1.00
O392   O     0.75518   0.49263   0.30855   0.00000  Uiso   1.00
O393   O     0.91149   0.50737   0.19146   0.00000  Uiso   1.00
O394   O     0.85532   0.50207   0.31671   0.00000  Uiso   1.00
O395   O     0.81134   0.49793   0.18329   0.00000  Uiso   1.00
O396   O     0.69366   0.35969   0.01297   0.00000  Uiso   1.00
C397   C     0.18140   0.93332   0.25184   0.00000  Uiso   1.00
C398   C     0.20498   0.83893   0.16656   0.00000  Uiso   1.00
C399   C     0.10538   0.80787   0.37892   0.00000  Uiso   1.00
C400   C     0.22901   0.84453   0.11772   0.00000  Uiso   1.00
C401   C     0.04066   0.74450   0.43351   0.00000  Uiso   1.00
C402   C     0.31284   0.87421   0.05308   0.00000  Uiso   1.00
C403   C     0.05404   0.76495   0.39078   0.00000  Uiso   1.00
C404   C     0.29102   0.87144   0.09972   0.00000  Uiso   1.00
C405   C     0.14295   0.82817   0.40916   0.00000  Uiso   1.00
C406   C     0.18881   0.82335   0.08901   0.00000  Uiso   1.00
C407   C     0.13969   0.79855   0.44599   0.00000  Uiso   1.00
C408   C     0.15197   0.73335   0.24812   0.00000  Uiso   1.00
C409   C     0.21249   0.82002   0.04248   0.00000  Uiso   1.00
C410   C     0.08546   0.75890   0.46019   0.00000  Uiso   1.00
C411   C     0.27383   0.84826   0.02433   0.00000  Uiso   1.00
C412   C     0.18827   0.80861   0.46966   0.00000  Uiso   1.00
C413   C     0.17432   0.79272   0.01337   0.00000  Uiso   1.00
C414   C     0.33143   0.90044   0.12959   0.00000  Uiso   1.00
C415   C     0.01670   0.73839   0.35828   0.00000  Uiso   1.00
C416   C     0.00609   0.88936   0.28946   0.00000  Uiso   1.00
C417   C     0.32795   0.77905   0.20882   0.00000  Uiso   1.00
C418   C     0.12365   0.74924   0.02580   0.00000  Uiso   1.00
C419   C     0.25151   0.83092   0.45036   0.00000  Uiso   1.00
C420   C     0.07808   0.73369   0.00014   0.00000  Uiso   1.00
C421   C     0.29402   0.85158   0.47764   0.00000  Uiso   1.00
C422   C     0.18858   0.98934   0.25446   0.00000  Uiso   1.00
C423   C     0.14489   0.67736   0.24541   0.00000  Uiso   1.00
C424   C     0.12828   0.82574   0.33289   0.00000  Uiso   1.00
Cu425  Cu    0.10737   0.82775   0.24517   0.00000  Uiso   1.00
Cu426  Cu    0.22596   0.83892   0.25484   0.00000  Uiso   1.00
H427   H     0.22965   0.67968   0.26463   0.00000  Uiso   1.00
H428   H     0.04829   0.93479   0.05415   0.00000  Uiso   1.00
H429   H     0.16276   0.72232   0.06576   0.00000  Uiso   1.00
H430   H     0.24843   0.79854   0.39184   0.00000  Uiso   1.00
H431   H     0.02511   0.92815   0.27641   0.00000  Uiso   1.00
H432   H     0.30665   0.73992   0.22058   0.00000  Uiso   1.00
H433   H     0.10395   0.98706   0.23509   0.00000  Uiso   1.00
H434   H     0.02235   0.68550   0.04433   0.00000  Uiso   1.00
H435   H     0.02694   0.88137   0.42757   0.00000  Uiso   1.00
H436   H     0.10277   0.81949   0.08689   0.00000  Uiso   1.00
H437   H     0.18854   0.89408   0.43077   0.00000  Uiso   1.00
H438   H     0.31167   0.92269   0.15869   0.00000  Uiso   1.00
H439   H     0.00078   0.76092   0.33747   0.00000  Uiso   1.00
H440   H     0.28599   0.71524   0.43472   0.00000  Uiso   1.00
N441   N     0.31506   0.84735   0.26212   0.00000  Uiso   1.00
N442   N     0.01827   0.81932   0.23788   0.00000  Uiso   1.00
O443   O     0.12815   0.90476   0.24686   0.00000  Uiso   1.00
O444   O     0.02185   0.87545   0.45932   0.00000  Uiso   1.00
O445   O     0.12556   0.80910   0.10711   0.00000  Uiso   1.00
O446   O     0.18208   0.87724   0.40180   0.00000  Uiso   1.00
O447   O     0.05345   0.89928   0.12236   0.00000  Uiso   1.00
O448   O     0.00288   0.69027   0.35475   0.00000  Uiso   1.00
O449   O     0.31857   0.70924   0.44901   0.00000  Uiso   1.00
O450   O     0.03832   0.90301   0.03490   0.00000  Uiso   1.00
O451   O     0.12026   0.71834   0.06043   0.00000  Uiso   1.00
O452   O     0.27441   0.82897   0.40509   0.00000  Uiso   1.00
O453   O     0.33279   0.88374   0.32887   0.00000  Uiso   1.00
O454   O     0.20518   0.76191   0.25314   0.00000  Uiso   1.00
O455   O     0.00423   0.78649   0.16942   0.00000  Uiso   1.00
O456   O     0.22829   0.91420   0.25503   0.00000  Uiso   1.00
O457   O     0.10504   0.75247   0.24498   0.00000  Uiso   1.00
O458   O     0.08851   0.82597   0.30855   0.00000  Uiso   1.00
O459   O     0.24482   0.84070   0.19146   0.00000  Uiso   1.00
O460   O     0.18866   0.83540   0.31671   0.00000  Uiso   1.00
O461   O     0.14468   0.83126   0.18329   0.00000  Uiso   1.00
O462   O     0.02700   0.69302   0.01297   0.00000  Uiso   1.00
C463   C     0.51474   0.93332   0.25184   0.00000  Uiso   1.00
C464   C     0.53831   0.83893   0.16656   0.00000  Uiso   1.00
C465   C     0.43871   0.80787   0.37892   0.00000  Uiso   1.00
C466   C     0.56234   0.84453   0.11772   0.00000  Uiso   1.00
C467   C     0.37399   0.74450   0.43351   0.00000  Uiso   1.00
C468   C     0.64618   0.87421   0.05308   0.00000  Uiso   1.00
C469   C     0.38737   0.76495   0.39078   0.00000  Uiso   1.00
C470   C     0.62435   0.87144   0.09972   0.00000  Uiso   1.00
C471   C     0.47628   0.82817   0.40916   0.00000  Uiso   1.00
C472   C     0.52215   0.82335   0.08901   0.00000  Uiso   1.00
C473   C     0.47302   0.79855   0.44599   0.00000  Uiso   1.00
C474   C     0.48530   0.73335   0.24812   0.00000  Uiso   1.00
C475   C     0.54582   0.82002   0.04248   0.00000  Uiso   1.00
C476   C     0.41880   0.75890   0.46019   0.00000  Uiso   1.00
C477   C     0.60716   0.84826   0.02433   0.00000  Uiso   1.00
C478   C     0.52160   0.80861   0.46966   0.00000  Uiso   1.00
C479   C     0.50765   0.79272   0.01337   0.00000  Uiso   1.00
C480   C     0.66477   0.90044   0.12959   0.00000  Uiso   1.00
C481   C     0.35003   0.73839   0.35828   0.00000  Uiso   1.00
C482   C     0.33942   0.88936   0.28946   0.00000  Uiso   1.00
C483   C     0.66129   0.77905   0.20882   0.00000  Uiso   1.00
C484   C     0.45699   0.74924   0.02580   0.00000  Uiso   1.00
C485   C     0.58484   0.83092   0.45036   0.00000  Uiso   1.00
C486   C     0.41141   0.73369   0.00014   0.00000  Uiso   1.00
C487   C     0.62735   0.85158   0.47764   0.00000  Uiso   1.00
C488   C     0.52192   0.98934   0.25446   0.00000  Uiso   1.00
C489   C     0.47822   0.67736   0.24541   0.00000  Uiso   1.00
C490   C     0.46161   0.82574   0.33289   0.00000  Uiso   1.00
Cu491  Cu    0.44071   0.82775   0.24517   0.00000  Uiso   1.00
Cu492  Cu    0.55929   0.83892   0.25484   0.00000  Uiso   1.00
H493   H     0.56299   0.67968   0.26463   0.00000  Uiso   1.00
H494   H     0.38163   0.93479   0.05415   0.00000  Uiso   1.00
H495   H     0.49609   0.72232   0.06576   0.00000  Uiso   1.00
H496   H     0.58176   0.79854   0.39184   0.00000  Uiso   1.00
H497   H     0.35844   0.92815   0.27641   0.00000  Uiso   1.00
H498   H     0.63998   0.73992   0.22058   0.00000  Uiso   1.00
H499   H     0.43728   0.98706   0.23509   0.00000  Uiso   1.00
H500   H     0.35568   0.68550   0.04433   0.00000  Uiso   1.00
H501   H     0.36028   0.88137   0.42757   0.00000  Uiso   1.00
H502   H     0.43611   0.81949   0.08689   0.00000  Uiso   1.00
H503   H     0.52187   0.89408   0.43077   0.00000  Uiso   1.00
H504   H     0.64500   0.92269   0.15869   0.00000  Uiso   1.00
H505   H     0.33411   0.76092   0.33747   0.00000  Uiso   1.00
H506   H     0.61932   0.71524   0.43472   0.00000  Uiso   1.00
N507   N     0.64839   0.84735   0.26212   0.00000  Uiso   1.00
N508   N     0.35161   0.81932   0.23788   0.00000  Uiso   1.00
O509   O     0.46148   0.90476   0.24686   0.00000  Uiso   1.00
O510   O     0.35518   0.87545   0.45932   0.00000  Uiso   1.00
O511   O     0.45889   0.80910   0.10711   0.00000  Uiso   1.00
O512   O     0.51542   0.87724   0.40180   0.00000  Uiso   1.00
O513   O     0.38679   0.89928   0.12236   0.00000  Uiso   1.00
O514   O     0.33621   0.69027   0.35475   0.00000  Uiso   1.00
O515   O     0.65191   0.70924   0.44901   0.00000  Uiso   1.00
O516   O     0.37165   0.90301   0.03490   0.00000  Uiso   1.00
O517   O     0.45360   0.71834   0.06043   0.00000  Uiso   1.00
O518   O     0.60774   0.82897   0.40509   0.00000  Uiso   1.00
O519   O     0.66612   0.88374   0.32887   0.00000  Uiso   1.00
O520   O     0.53852   0.76191   0.25314   0.00000  Uiso   1.00
O521   O     0.33757   0.78649   0.16942   0.00000  Uiso   1.00
O522   O     0.56163   0.91420   0.25503   0.00000  Uiso   1.00
O523   O     0.43837   0.75247   0.24498   0.00000  Uiso   1.00
O524   O     0.42185   0.82597   0.30855   0.00000  Uiso   1.00
O525   O     0.57815   0.84070   0.19146   0.00000  Uiso   1.00
O526   O     0.52199   0.83540   0.31671   0.00000  Uiso   1.00
O527   O     0.47801   0.83126   0.18329   0.00000  Uiso   1.00
O528   O     0.36033   0.69302   0.01297   0.00000  Uiso   1.00
C529   C     0.84807   0.93332   0.25184   0.00000  Uiso   1.00
C530   C     0.87165   0.83893   0.16656   0.00000  Uiso   1.00
C531   C     0.77204   0.80787   0.37892   0.00000  Uiso   1.00
C532   C     0.89567   0.84453   0.11772   0.00000  Uiso   1.00
C533   C     0.70733   0.74450   0.43351   0.00000  Uiso   1.00
C534   C     0.97951   0.87421   0.05308   0.00000  Uiso   1.00
C535   C     0.72070   0.76495   0.39078   0.00000  Uiso   1.00
C536   C     0.95769   0.87144   0.09972   0.00000  Uiso   1.00
C537   C     0.80961   0.82817   0.40916   0.00000  Uiso   1.00
C538   C     0.85548   0.82335   0.08901   0.00000  Uiso   1.00
C539   C     0.80636   0.79855   0.44599   0.00000  Uiso   1.00
C540   C     0.81863   0.73335   0.24812   0.00000  Uiso   1.00
C541   C     0.87916   0.82002   0.04248   0.00000  Uiso   1.00
C542   C     0.75213   0.75890   0.46019   0.00000  Uiso   1.00
C543   C     0.94049   0.84826   0.02433   0.00000  Uiso   1.00
C544   C     0.85493   0.80861   0.46966   0.00000  Uiso   1.00
C545   C     0.84099   0.79272   0.01337   0.00000  Uiso   1.00
C546   C     0.99810   0.90044   0.12959   0.00000  Uiso   1.00
C547   C     0.68336   0.73839   0.35828   0.00000  Uiso   1.00
C548   C     0.67275   0.88936   0.28946   0.00000  Uiso   1.00
C549   C     0.99462   0.77905   0.20882   0.00000  Uiso   1.00
C550   C     0.79032   0.74924   0.02580   0.00000  Uiso   1.00
C551   C     0.91817   0.83092   0.45036   0.00000  Uiso   1.00
C552   C     0.74475   0.73369   0.00014   0.00000  Uiso   1.00
C553   C     0.96069   0.85158   0.47764   0.00000  Uiso   1.00
C554   C     0.85525   0.98934   0.25446   0.00000  Uiso   1.00
C555   C     0.81155   0.67736   0.24541   0.00000  Uiso   1.00
C556   C     0.79495   0.82574   0.33289   0.00000  Uiso   1.00
Cu557  Cu    0.77404   0.82775   0.24517   0.00000  Uiso   1.00
Cu558  Cu    0.89263   0.83892   0.25484   0.00000  Uiso   1.00
H559   H     0.89632   0.67968   0.26463   0.00000  Uiso   1.00
H560   H     0.71496   0.93479   0.05415   0.00000  Uiso   1.00
H561   H     0.82943   0.72232   0.06576   0.00000  Uiso   1.00
H562   H     0.91510   0.79854   0.39184   0.00000  Uiso   1.00
H563   H     0.69178   0.92815   0.27641   0.00000  Uiso   1.00
H564   H     0.97332   0.73992   0.22058   0.00000  Uiso   1.00
H565   H     0.77062   0.98706   0.23509   0.00000  Uiso   1.00
H566   H     0.68902   0.68550   0.04433   0.00000  Uiso   1.00
H567   H     0.69361   0.88137   0.42757   0.00000  Uiso   1.00
H568   H     0.76944   0.81949   0.08689   0.00000  Uiso   1.00
H569   H     0.85520   0.89408   0.43077   0.00000  Uiso   1.00
H570   H     0.97833   0.92269   0.15869   0.00000  Uiso   1.00
H571   H     0.66745   0.76092   0.33747   0.00000  Uiso   1.00
H572   H     0.95265   0.71524   0.43472   0.00000  Uiso   1.00
N573   N     0.98173   0.84735   0.26212   0.00000  Uiso   1.00
N574   N     0.68494   0.81932   0.23788   0.00000  Uiso   1.00
O575   O     0.79482   0.90476   0.24686   0.00000  Uiso   1.00
O576   O     0.68852   0.87545   0.45932   0.00000  Uiso   1.00
O577   O     0.79223   0.80910   0.10711   0.00000  Uiso   1.00
O578   O     0.84875   0.87724   0.40180   0.00000  Uiso   1.00
O579   O     0.72012   0.89928   0.12236   0.00000  Uiso   1.00
O580   O     0.66955   0.69027   0.35475   0.00000  Uiso   1.00
O581   O     0.98524   0.70924   0.44901   0.00000  Uiso   1.00
O582   O     0.70499   0.90301   0.03490   0.00000  Uiso   1.00
O583   O     0.78693   0.71834   0.06043   0.00000  Uiso   1.00
O584   O     0.94108   0.82897   0.40509   0.00000  Uiso   1.00
O585   O     0.99946   0.88374   0.32887   0.00000  Uiso   1.00
O586   O     0.87185   0.76191   0.25314   0.00000  Uiso   1.00
O587   O     0.67090   0.78649   0.16942   0.00000  Uiso   1.00
O588   O     0.89496   0.91420   0.25503   0.00000  Uiso   1.00
O589   O     0.77171   0.75247   0.24498   0.00000  Uiso   1.00
O590   O     0.75518   0.82597   0.30855   0.00000  Uiso   1.00
O591   O     0.91149   0.84070   0.19146   0.00000  Uiso   1.00
O592   O     0.85532   0.83540   0.31671   0.00000  Uiso   1.00
O593   O     0.81134   0.83126   0.18329   0.00000  Uiso   1.00
O594   O     0.69366   0.69302   0.01297   0.00000  Uiso   1.00
C595   C     0.18140   0.26665   0.75184   0.00000  Uiso   1.00
C596   C     0.20498   0.17226   0.66656   0.00000  Uiso   1.00
C597   C     0.10538   0.14120   0.87892   0.00000  Uiso   1.00
C598   C     0.22901   0.17786   0.61772   0.00000  Uiso   1.00
C599   C     0.04066   0.07783   0.93351   0.00000  Uiso   1.00
C600   C     0.31284   0.20755   0.55308   0.00000  Uiso   1.00
C601   C     0.05404   0.09828   0.89078   0.00000  Uiso   1.00
C602   C     0.29102   0.20478   0.59972   0.00000  Uiso   1.00
C603   C     0.14295   0.16150   0.90916   0.00000  Uiso   1.00
C604   C     0.18881   0.15669   0.58901   0.00000  Uiso   1.00
C605   C     0.13969   0.13188   0.94599   0.00000  Uiso   1.00
C606   C     0.15197   0.06669   0.74812   0.00000  Uiso   1.00
C607   C     0.21249   0.15335   0.54248   0.00000  Uiso   1.00
C608   C     0.08546   0.09224   0.96019   0.00000  Uiso   1.00
C609   C     0.27383   0.18160   0.52433   0.00000  Uiso   1.00
C610   C     0.18827   0.14195   0.96966   0.00000  Uiso   1.00
C611   C     0.17432   0.12606   0.51337   0.00000  Uiso   1.00
C612   C     0.33143   0.23378   0.62959   0.00000  Uiso   1.00
C613   C     0.01670   0.07172   0.85828   0.00000  Uiso   1.00
C614   C     0.00609   0.22270   0.78946   0.00000  Uiso   1.00
C615   C     0.32795   0.11238   0.70882   0.00000  Uiso   1.00
C616   C     0.12365   0.08257   0.52580   0.00000  Uiso   1.00
C617   C     0.25151   0.16425   0.95036   0.00000  Uiso   1.00
C618   C     0.07808   0.06702   0.50014   0.00000  Uiso   1.00
C619   C     0.29402   0.18491   0.97764   0.00000  Uiso   1.00
C620   C     0.18858   0.32267   0.75446   0.00000  Uiso   1.00
C621   C     0.14489   0.01070   0.74541   0.00000  Uiso   1.00
C622   C     0.12828   0.15907   0.83289   0.00000  Uiso   1.00
Cu623  Cu    0.10737   0.16108   0.74517   0.00000  Uiso   1.00
Cu624  Cu    0.22596   0.17225   0.75484   0.00000  Uiso   1.00
H625   H     0.22965   0.01301   0.76463   0.00000  Uiso   1.00
H626   H     0.04829   0.26812   0.55415   0.00000  Uiso   1.00
H627   H     0.16276   0.05565   0.56576   0.00000  Uiso   1.00
H628   H     0.24843   0.13187   0.89184   0.00000  Uiso   1.00
H629   H     0.02511   0.26148   0.77641   0.00000  Uiso   1.00
H630   H     0.30665   0.07325   0.72058   0.00000  Uiso   1.00
H631   H     0.10395   0.32039   0.73509   0.00000  Uiso   1.00
H632   H     0.02235   0.01884   0.54433   0.00000  Uiso   1.00
H633   H     0.02694   0.21471   0.92757   0.00000  Uiso   1.00
H634   H     0.10277   0.15282   0.58689   0.00000  Uiso   1.00
H635   H     0.18854   0.22741   0.93077   0.00000  Uiso   1.00
H636   H     0.31167   0.25603   0.65869   0.00000  Uiso   1.00
H637   H     0.00078   0.09425   0.83747   0.00000  Uiso   1.00
H638   H     0.28599   0.04857   0.93472   0.00000  Uiso   1.00
N639   N     0.31506   0.18068   0.76212   0.00000  Uiso   1.00
N640   N     0.01827   0.15265   0.73788   0.00000  Uiso   1.00
O641   O     0.12815   0.23809   0.74686   0.00000  Uiso   1.00
O642   O     0.02185   0.20878   0.95932   0.00000  Uiso   1.00
O643   O     0.12556   0.14244   0.60711   0.00000  Uiso   1.00
O644   O     0.18208   0.21058   0.90180   0.00000  Uiso   1.00
O645   O     0.05345   0.23261   0.62236   0.00000  Uiso   1.00
O646   O     0.00288   0.02361   0.85475   0.00000  Uiso   1.00
O647   O     0.31857   0.04257   0.94901   0.00000  Uiso   1.00
O648   O     0.03832   0.23635   0.53490   0.00000  Uiso   1.00
O649   O     0.12026   0.05167   0.56043   0.00000  Uiso   1.00
O650   O     0.27441   0.16230   0.90509   0.00000  Uiso   1.00
O651   O     0.33279   0.21708   0.82887   0.00000  Uiso   1.00
O652   O     0.20518   0.09524   0.75314   0.00000  Uiso   1.00
O653   O     0.00423   0.11982   0.66942   0.00000  Uiso   1.00
O654   O     0.22829   0.24753   0.75503   0.00000  Uiso   1.00
O655   O     0.10504   0.08580   0.74498   0.00000  Uiso   1.00
O656   O     0.08851   0.15930   0.80855   0.00000  Uiso   1.00
O657   O     0.24482   0.17403   0.69146   0.00000  Uiso   1.00
O658   O     0.18866   0.16874   0.81671   0.00000  Uiso   1.00
O659   O     0.14468   0.16460   0.68329   0.00000  Uiso   1.00
O660   O     0.02700   0.02635   0.51297   0.00000  Uiso   1.00
C661   C     0.51474   0.26665   0.75184   0.00000  Uiso   1.00
C662   C     0.53831   0.17226   0.66656   0.00000  Uiso   1.00
C663   C     0.43871   0.14120   0.87892   0.00000  Uiso   1.00
C664   C     0.56234   0.17786   0.61772   0.00000  Uiso   1.00
C665   C     0.37399   0.07783   0.93351   0.00000  Uiso   1.00
C666   C     0.64618   0.20755   0.55308   0.00000  Uiso   1.00
C667   C     0.38737   0.09828   0.89078   0.00000  Uiso   1.00
C668   C     0.62435   0.20478   0.59972   0.00000  Uiso   1.00
C669   C     0.47628   0.16150   0.90916   0.00000  Uiso   1.00
C670   C     0.52215   0.15669   0.58901   0.00000  Uiso   1.00
C671   C     0.47302   0.13188   0.94599   0.00000  Uiso   1.00
C672   C     0.48530   0.06669   0.74812   0.00000  Uiso   1.00
C673   C     0.54582   0.15335   0.54248   0.00000  Uiso   1.00
C674   C     0.41880   0.09224   0.96019   0.00000  Uiso   1.00
C675   C     0.60716   0.18160   0.52433   0.00000  Uiso   1.00
C676   C     0.52160   0.14195   0.96966   0.00000  Uiso   1.00
C677   C     0.50765   0.12606   0.51337   0.00000  Uiso   1.00
C678   C     0.66477   0.23378   0.62959   0.00000  Uiso   1.00
C679   C     0.35003   0.07172   0.85828   0.00000  Uiso   1.00
C680   C     0.33942   0.22270   0.78946   0.00000  Uiso   1.00
C681   C     0.66129   0.11238   0.70882   0.00000  Uiso   1.00
C682   C     0.45699   0.08257   0.52580   0.00000  Uiso   1.00
C683   C     0.58484   0.16425   0.95036   0.00000  Uiso   1.00
C684   C     0.41141   0.06702   0.50014   0.00000  Uiso   1.00
C685   C     0.62735   0.18491   0.97764   0.00000  Uiso   1.00
C686   C     0.52192   0.32267   0.75446   0.00000  Uiso   1.00
C687   C     0.47822   0.01070   0.74541   0.00000  Uiso   1.00
C688   C     0.46161   0.15907   0.83289   0.00000  Uiso   1.00
Cu689  Cu    0.44071   0.16108   0.74517   0.00000  Uiso   1.00
Cu690  Cu    0.55929   0.17225   0.75484   0.00000  Uiso   1.00
H691   H     0.56299   0.01301   0.76463   0.00000  Uiso   1.00
H692   H     0.38163   0.26812   0.55415   0.00000  Uiso   1.00
H693   H     0.49609   0.05565   0.56576   0.00000  Uiso   1.00
H694   H     0.58176   0.13187   0.89184   0.00000  Uiso   1.00
H695   H     0.35844   0.26148   0.77641   0.00000  Uiso   1.00
H696   H     0.63998   0.07325   0.72058   0.00000  Uiso   1.00
H697   H     0.43728   0.32039   0.73509   0.00000  Uiso   1.00
H698   H     0.35568   0.01884   0.54433   0.00000  Uiso   1.00
H699   H     0.36028   0.21471   0.92757   0.00000  Uiso   1.00
H700   H     0.43611   0.15282   0.58689   0.00000  Uiso   1.00
H701   H     0.52187   0.22741   0.93077   0.00000  Uiso   1.00
H702   H     0.64500   0.25603   0.65869   0.00000  Uiso   1.00
H703   H     0.33411   0.09425   0.83747   0.00000  Uiso   1.00
H704   H     0.61932   0.04857   0.93472   0.00000  Uiso   1.00
N705   N     0.64839   0.18068   0.76212   0.00000  Uiso   1.00
N706   N     0.35161   0.15265   0.73788   0.00000  Uiso   1.00
O707   O     0.46148   0.23809   0.74686   0.00000  Uiso   1.00
O708   O     0.35518   0.20878   0.95932   0.00000  Uiso   1.00
O709   O     0.45889   0.14244   0.60711   0.00000  Uiso   1.00
O710   O     0.51542   0.21058   0.90180   0.00000  Uiso   1.00
O711   O     0.38679   0.23261   0.62236   0.00000  Uiso   1.00
O712   O     0.33621   0.02361   0.85475   0.00000  Uiso   1.00
O713   O     0.65191   0.04257   0.94901   0.00000  Uiso   1.00
O714   O     0.37165   0.23635   0.53490   0.00000  Uiso   1.00
O715   O     0.45360   0.05167   0.56043   0.00000  Uiso   1.00
O716   O     0.60774   0.16230   0.90509   0.00000  Uiso   1.00
O717   O     0.66612   0.21708   0.82887   0.00000  Uiso   1.00
O718   O     0.53852   0.09524   0.75314   0.00000  Uiso   1.00
O719   O     0.33757   0.11982   0.66942   0.00000  Uiso   1.00
O720   O     0.56163   0.24753   0.75503   0.00000  Uiso   1.00
O721   O     0.43837   0.08580   0.74498   0.00000  Uiso   1.00
O722   O     0.42185   0.15930   0.80855   0.00000  Uiso   1.00
O723   O     0.57815   0.17403   0.69146   0.00000  Uiso   1.00
O724   O     0.52199   0.16874   0.81671   0.00000  Uiso   1.00
O725   O     0.47801   0.16460   0.68329   0.00000  Uiso   1.00
O726   O     0.36033   0.02635   0.51297   0.00000  Uiso   1.00
C727   C     0.84807   0.26665   0.75184   0.00000  Uiso   1.00
C728   C     0.87165   0.17226   0.66656   0.00000  Uiso   1.00
C729   C     0.77204   0.14120   0.87892   0.00000  Uiso   1.00
C730   C     0.89567   0.17786   0.61772   0.00000  Uiso   1.00
C731   C     0.70733   0.07783   0.93351   0.00000  Uiso   1.00
C732   C     0.97951   0.20755   0.55308   0.00000  Uiso   1.00
C733   C     0.72070   0.09828   0.89078   0.00000  Uiso   1.00
C734   C     0.95769   0.20478   0.59972   0.00000  Uiso   1.00
C735   C     0.80961   0.16150   0.90916   0.00000  Uiso   1.00
C736   C     0.85548   0.15669   0.58901   0.00000  Uiso   1.00
C737   C     0.80636   0.13188   0.94599   0.00000  Uiso   1.00
C738   C     0.81863   0.06669   0.74812   0.00000  Uiso   1.00
C739   C     0.87916   0.15335   0.54248   0.00000  Uiso   1.00
C740   C     0.75213   0.09224   0.96019   0.00000  Uiso   1.00
C741   C     0.94049   0.18160   0.52433   0.00000  Uiso   1.00
C742   C     0.85493   0.14195   0.96966   0.00000  Uiso   1.00
C743   C     0.84099   0.12606   0.51337   0.00000  Uiso   1.00
C744   C     0.99810   0.23378   0.62959   0.00000  Uiso   1.00
C745   C     0.68336   0.07172   0.85828   0.00000  Uiso   1.00
C746   C     0.67275   0.22270   0.78946   0.00000  Uiso   1.00
C747   C     0.99462   0.11238   0.70882   0.00000  Uiso   1.00
C748   C     0.79032   0.08257   0.52580   0.00000  Uiso   1.00
C749   C     0.91817   0.16425   0.95036   0.00000  Uiso   1.00
C750   C     0.74475   0.06702   0.50014   0.00000  Uiso   1.00
C751   C     0.96069   0.18491   0.97764   0.00000  Uiso   1.00
C752   C     0.85525   0.32267   0.75446   0.00000  Uiso   1.00
C753   C     0.81155   0.01070   0.74541   0.00000  Uiso   1.00
C754   C     0.79495   0.15907   0.83289   0.00000  Uiso   1.00
Cu755  Cu    0.77404   0.16108   0.74517   0.00000  Uiso   1.00
Cu756  Cu    0.89263   0.17225   0.75484   0.00000  Uiso   1.00
H757   H     0.89632   0.01301   0.76463   0.00000  Uiso   1.00
H758   H     0.71496   0.26812   0.55415   0.00000  Uiso   1.00
H759   H     0.82943   0.05565   0.56576   0.00000  Uiso   1.00
H760   H     0.91510   0.13187   0.89184   0.00000  Uiso   1.00
H761   H     0.69178   0.26148   0.77641   0.00000  Uiso   1.00
H762   H     0.97332   0.07325   0.72058   0.00000  Uiso   1.00
H763   H     0.77062   0.32039   0.73509   0.00000  Uiso   1.00
H764   H     0.68902   0.01884   0.54433   0.00000  Uiso   1.00
H765   H     0.69361   0.21471   0.92757   0.00000  Uiso   1.00
H766   H     0.76944   0.15282   0.58689   0.00000  Uiso   1.00
H767   H     0.85520   0.22741   0.93077   0.00000  Uiso   1.00
H768   H     0.97833   0.25603   0.65869   0.00000  Uiso   1.00
H769   H     0.66745   0.09425   0.83747   0.00000  Uiso   1.00
H770   H     0.95265   0.04857   0.93472   0.00000  Uiso   1.00
N771   N     0.98173   0.18068   0.76212   0.00000  Uiso   1.00
N772   N     0.68494   0.15265   0.73788   0.00000  Uiso   1.00
O773   O     0.79482   0.23809   0.74686   0.00000  Uiso   1.00
O774   O     0.68852   0.20878   0.95932   0.00000  Uiso   1.00
O775   O     0.79223   0.14244   0.60711   0.00000  Uiso   1.00
O776   O     0.84875   0.21058   0.90180   0.00000  Uiso   1.00
O777   O     0.72012   0.23261   0.62236   0.00000  Uiso   1.00
O778   O     0.66955   0.02361   0.85475   0.00000  Uiso   1.00
O779   O     0.98524   0.04257   0.94901   0.00000  Uiso   1.00
O780   O     0.70499   0.23635   0.53490   0.00000  Uiso   1.00
O781   O     0.78693   0.05167   0.56043   0.00000  Uiso   1.00
O782   O     0.94108   0.16230   0.90509   0.00000  Uiso   1.00
O783   O     0.99946   0.21708   0.82887   0.00000  Uiso   1.00
O784   O     0.87185   0.09524   0.75314   0.00000  Uiso   1.00
O785   O     0.67090   0.11982   0.66942   0.00000  Uiso   1.00
O786   O     0.89496   0.24753   0.75503   0.00000  Uiso   1.00
O787   O     0.77171   0.08580   0.74498   0.00000  Uiso   1.00
O788   O     0.75518   0.15930   0.80855   0.00000  Uiso   1.00
O789   O     0.91149   0.17403   0.69146   0.00000  Uiso   1.00
O790   O     0.85532   0.16874   0.81671   0.00000  Uiso   1.00
O791   O     0.81134   0.16460   0.68329   0.00000  Uiso   1.00
O792   O     0.69366   0.02635   0.51297   0.00000  Uiso   1.00
C793   C     0.18140   0.59999   0.75184   0.00000  Uiso   1.00
C794   C     0.20498   0.50559   0.66656   0.00000  Uiso   1.00
C795   C     0.10538   0.47453   0.87892   0.00000  Uiso   1.00
C796   C     0.22901   0.51120   0.61772   0.00000  Uiso   1.00
C797   C     0.04066   0.41116   0.93351   0.00000  Uiso   1.00
C798   C     0.31284   0.54088   0.55308   0.00000  Uiso   1.00
C799   C     0.05404   0.43162   0.89078   0.00000  Uiso   1.00
C800   C     0.29102   0.53811   0.59972   0.00000  Uiso   1.00
C801   C     0.14295   0.49484   0.90916   0.00000  Uiso   1.00
C802   C     0.18881   0.49002   0.58901   0.00000  Uiso   1.00
C803   C     0.13969   0.46521   0.94599   0.00000  Uiso   1.00
C804   C     0.15197   0.40002   0.74812   0.00000  Uiso   1.00
C805   C     0.21249   0.48668   0.54248   0.00000  Uiso   1.00
C806   C     0.08546   0.42557   0.96019   0.00000  Uiso   1.00
C807   C     0.27383   0.51493   0.52433   0.00000  Uiso   1.00
C808   C     0.18827   0.47528   0.96966   0.00000  Uiso   1.00
C809   C     0.17432   0.45939   0.51337   0.00000  Uiso   1.00
C810   C     0.33143   0.56711   0.62959   0.00000  Uiso   1.00
C811   C     0.01670   0.40506   0.85828   0.00000  Uiso   1.00
C812   C     0.00609   0.55603   0.78946   0.00000  Uiso   1.00
C813   C     0.32795   0.44571   0.70882   0.00000  Uiso   1.00
C814   C     0.12365   0.41591   0.52580   0.00000  Uiso   1.00
C815   C     0.25151   0.49759   0.95036   0.00000  Uiso   1.00
C816   C     0.07808   0.40035   0.50014   0.00000  Uiso   1.00
C817   C     0.29402   0.51825   0.97764   0.00000  Uiso   1.00
C818   C     0.18858   0.65601   0.75446   0.00000  Uiso   1.00
C819   C     0.14489   0.34403   0.74541   0.00000  Uiso   1.00
C820   C     0.12828   0.49241   0.83289   0.00000  Uiso   1.00
Cu821  Cu    0.10737   0.49441   0.74517   0.00000  Uiso   1.00
Cu822  Cu    0.22596   0.50559   0.75484   0.00000  Uiso   1.00
H823   H     0.22965   0.34635   0.76463   0.00000  Uiso   1.00
H824   H     0.04829   0.60145   0.55415   0.00000  Uiso   1.00
H825   H     0.16276   0.38898   0.56576   0.00000  Uiso   1.00
H826   H     0.24843   0.46521   0.89184   0.00000  Uiso   1.00
H827   H     0.02511   0.59481   0.77641   0.00000  Uiso   1.00
H828   H     0.30665   0.40659   0.72058   0.00000  Uiso   1.00
H829   H     0.10395   0.65373   0.73509   0.00000  Uiso   1.00
H830   H     0.02235   0.35217   0.54433   0.00000  Uiso   1.00
H831   H     0.02694   0.54804   0.92757   0.00000  Uiso   1.00
H832   H     0.10277   0.48615   0.58689   0.00000  Uiso   1.00
H833   H     0.18854   0.56074   0.93077   0.00000  Uiso   1.00
H834   H     0.31167   0.58936   0.65869   0.00000  Uiso   1.00
H835   H     0.00078   0.42759   0.83747   0.00000  Uiso   1.00
H836   H     0.28599   0.38191   0.93472   0.00000  Uiso   1.00
N837   N     0.31506   0.51401   0.76212   0.00000  Uiso   1.00
N838   N     0.01827   0.48599   0.73788   0.00000  Uiso   1.00
O839   O     0.12815   0.57142   0.74686   0.00000  Uiso   1.00
O840   O     0.02185   0.54212   0.95932   0.00000  Uiso   1.00
O841   O     0.12556   0.47577   0.60711   0.00000  Uiso   1.00
O842   O     0.18208   0.54391   0.90180   0.00000  Uiso   1.00
O843   O     0.05345   0.56594   0.62236   0.00000  Uiso   1.00
O844   O     0.00288   0.35694   0.85475   0.00000  Uiso   1.00
O845   O     0.31857   0.37590   0.94901   0.00000  Uiso   1.00
O846   O     0.03832   0.56968   0.53490   0.00000  Uiso   1.00
O847   O     0.12026   0.38500   0.56043   0.00000  Uiso   1.00
O848   O     0.27441   0.49564   0.90509   0.00000  Uiso   1.00
O849   O     0.33279   0.55041   0.82887   0.00000  Uiso   1.00
O850   O     0.20518   0.42858   0.75314   0.00000  Uiso   1.00
O851   O     0.00423   0.45316   0.66942   0.00000  Uiso   1.00
O852   O     0.22829   0.58086   0.75503   0.00000  Uiso   1.00
O853   O     0.10504   0.41914   0.74498   0.00000  Uiso   1.00
O854   O     0.08851   0.49263   0.80855   0.00000  Uiso   1.00
O855   O     0.24482   0.50737   0.69146   0.00000  Uiso   1.00
O856   O     0.18866   0.50207   0.81671   0.00000  Uiso   1.00
O857   O     0.14468   0.49793   0.68329   0.00000  Uiso   1.00
O858   O     0.02700   0.35969   0.51297   0.00000  Uiso   1.00
C859   C     0.51474   0.59999   0.75184   0.00000  Uiso   1.00
C860   C     0.53831   0.50559   0.66656   0.00000  Uiso   1.00
C861   C     0.43871   0.47453   0.87892   0.00000  Uiso   1.00
C862   C     0.56234   0.51120   0.61772   0.00000  Uiso   1.00
C863   C     0.37399   0.41116   0.93351   0.00000  Uiso   1.00
C864   C     0.64618   0.54088   0.55308   0.00000  Uiso   1.00
C865   C     0.38737   0.43162   0.89078   0.00000  Uiso   1.00
C866   C     0.62435   0.53811   0.59972   0.00000  Uiso   1.00
C867   C     0.47628   0.49484   0.90916   0.00000  Uiso   1.00
C868   C     0.52215   0.49002   0.58901   0.00000  Uiso   1.00
C869   C     0.47302   0.46521   0.94599   0.00000  Uiso   1.00
C870   C     0.48530   0.40002   0.74812   0.00000  Uiso   1.00
C871   C     0.54582   0.48668   0.54248   0.00000  Uiso   1.00
C872   C     0.41880   0.42557   0.96019   0.00000  Uiso   1.00
C873   C     0.60716   0.51493   0.52433   0.00000  Uiso   1.00
C874   C     0.52160   0.47528   0.96966   0.00000  Uiso   1.00
C875   C     0.50765   0.45939   0.51337   0.00000  Uiso   1.00
C876   C     0.66477   0.56711   0.62959   0.00000  Uiso   1.00
C877   C     0.35003   0.40506   0.85828   0.00000  Uiso   1.00
C878   C     0.33942   0.55603   0.78946   0.00000  Uiso   1.00
C879   C     0.66129   0.44571   0.70882   0.00000  Uiso   1.00
C880   C     0.45699   0.41591   0.52580   0.00000  Uiso   1.00
C881   C     0.58484   0.49759   0.95036   0.00000  Uiso   1.00
C882   C     0.41141   0.40035   0.50014   0.00000  Uiso   1.00
C883   C     0.62735   0.51825   0.97764   0.00000  Uiso   1.00
C884   C     0.52192   0.65601   0.75446   0.00000  Uiso   1.00
C885   C     0.47822   0.34403   0.74541   0.00000  Uiso   1.00
C886   C     0.46161   0.49241   0.83289   0.00000  Uiso   1.00
Cu887  Cu    0.44071   0.49441   0.74517   0.00000  Uiso   1.00
Cu888  Cu    0.55929   0.50559   0.75484   0.00000  Uiso   1.00
H889   H     0.56299   0.34635   0.76463   0.00000  Uiso   1.00
H890   H     0.38163   0.60145   0.55415   0.00000  Uiso   1.00
H891   H     0.49609   0.38898   0.56576   0.00000  Uiso   1.00
H892   H     0.58176   0.46521   0.89184   0.00000  Uiso   1.00
H893   H     0.35844   0.59481   0.77641   0.00000  Uiso   1.00
H894   H     0.63998   0.40659   0.72058   0.00000  Uiso   1.00
H895   H     0.43728   0.65373   0.73509   0.00000  Uiso   1.00
H896   H     0.35568   0.35217   0.54433   0.00000  Uiso   1.00
H897   H     0.36028   0.54804   0.92757   0.00000  Uiso   1.00
H898   H     0.43611   0.48615   0.58689   0.00000  Uiso   1.00
H899   H     0.52187   0.56074   0.93077   0.00000  Uiso   1.00
H900   H     0.64500   0.58936   0.65869   0.00000  Uiso   1.00
H901   H     0.33411   0.42759   0.83747   0.00000  Uiso   1.00
H902   H     0.61932   0.38191   0.93472   0.00000  Uiso   1.00
N903   N     0.64839   0.51401   0.76212   0.00000  Uiso   1.00
N904   N     0.35161   0.48599   0.73788   0.00000  Uiso   1.00
O905   O     0.46148   0.57142   0.74686   0.00000  Uiso   1.00
O906   O     0.35518   0.54212   0.95932   0.00000  Uiso   1.00
O907   O     0.45889   0.47577   0.60711   0.00000  Uiso   1.00
O908   O     0.51542   0.54391   0.90180   0.00000  Uiso   1.00
O909   O     0.38679   0.56594   0.62236   0.00000  Uiso   1.00
O910   O     0.33621   0.35694   0.85475   0.00000  Uiso   1.00
O911   O     0.65191   0.37590   0.94901   0.00000  Uiso   1.00
O912   O     0.37165   0.56968   0.53490   0.00000  Uiso   1.00
O913   O     0.45360   0.38500   0.56043   0.00000  Uiso   1.00
O914   O     0.60774   0.49564   0.90509   0.00000  Uiso   1.00
O915   O     0.66612   0.55041   0.82887   0.00000  Uiso   1.00
O916   O     0.53852   0.42858   0.75314   0.00000  Uiso   1.00
O917   O     0.33757   0.45316   0.66942   0.00000  Uiso   1.00
O918   O     0.56163   0.58086   0.75503   0.00000  Uiso   1.00
O919   O     0.43837   0.41914   0.74498   0.00000  Uiso   1.00
O920   O     0.42185   0.49263   0.80855   0.00000  Uiso   1.00
O921   O     0.57815   0.50737   0.69146   0.00000  Uiso   1.00
O922   O     0.52199   0.50207   0.81671   0.00000  Uiso   1.00
O923   O     0.47801   0.49793   0.68329   0.00000  Uiso   1.00
O924   O     0.36033   0.35969   0.51297   0.00000  Uiso   1.00
C925   C     0.84807   0.59999   0.75184   0.00000  Uiso   1.00
C926   C     0.87165   0.50559   0.66656   0.00000  Uiso   1.00
C927   C     0.77204   0.47453   0.87892   0.00000  Uiso   1.00
C928   C     0.89567   0.51120   0.61772   0.00000  Uiso   1.00
C929   C     0.70733   0.41116   0.93351   0.00000  Uiso   1.00
C930   C     0.97951   0.54088   0.55308   0.00000  Uiso   1.00
C931   C     0.72070   0.43162   0.89078   0.00000  Uiso   1.00
C932   C     0.95769   0.53811   0.59972   0.00000  Uiso   1.00
C933   C     0.80961   0.49484   0.90916   0.00000  Uiso   1.00
C934   C     0.85548   0.49002   0.58901   0.00000  Uiso   1.00
C935   C     0.80636   0.46521   0.94599   0.00000  Uiso   1.00
C936   C     0.81863   0.40002   0.74812   0.00000  Uiso   1.00
C937   C     0.87916   0.48668   0.54248   0.00000  Uiso   1.00
C938   C     0.75213   0.42557   0.96019   0.00000  Uiso   1.00
C939   C     0.94049   0.51493   0.52433   0.00000  Uiso   1.00
C940   C     0.85493   0.47528   0.96966   0.00000  Uiso   1.00
C941   C     0.84099   0.45939   0.51337   0.00000  Uiso   1.00
C942   C     0.99810   0.56711   0.62959   0.00000  Uiso   1.00
C943   C     0.68336   0.40506   0.85828   0.00000  Uiso   1.00
C944   C     0.67275   0.55603   0.78946   0.00000  Uiso   1.00
C945   C     0.99462   0.44571   0.70882   0.00000  Uiso   1.00
C946   C     0.79032   0.41591   0.52580   0.00000  Uiso   1.00
C947   C     0.91817   0.49759   0.95036   0.00000  Uiso   1.00
C948   C     0.74475   0.40035   0.50014   0.00000  Uiso   1.00
C949   C     0.96069   0.51825   0.97764   0.00000  Uiso   1.00
C950   C     0.85525   0.65601   0.75446   0.00000  Uiso   1.00
C951   C     0.81155   0.34403   0.74541   0.00000  Uiso   1.00
C952   C     0.79495   0.49241   0.83289   0.00000  Uiso   1.00
Cu953  Cu    0.77404   0.49441   0.74517   0.00000  Uiso   1.00
Cu954  Cu    0.89263   0.50559   0.75484   0.00000  Uiso   1.00
H955   H     0.89632   0.34635   0.76463   0.00000  Uiso   1.00
H956   H     0.71496   0.60145   0.55415   0.00000  Uiso   1.00
H957   H     0.82943   0.38898   0.56576   0.00000  Uiso   1.00
H958   H     0.91510   0.46521   0.89184   0.00000  Uiso   1.00
H959   H     0.69178   0.59481   0.77641   0.00000  Uiso   1.00
H960   H     0.97332   0.40659   0.72058   0.00000  Uiso   1.00
H961   H     0.77062   0.65373   0.73509   0.00000  Uiso   1.00
H962   H     0.68902   0.35217   0.54433   0.00000  Uiso   1.00
H963   H     0.69361   0.54804   0.92757   0.00000  Uiso   1.00
H964   H     0.76944   0.48615   0.58689   0.00000  Uiso   1.00
H965   H     0.85520   0.56074   0.93077   0.00000  Uiso   1.00
H966   H     0.97833   0.58936   0.65869   0.00000  Uiso   1.00
H967   H     0.66745   0.42759   0.83747   0.00000  Uiso   1.00
H968   H     0.95265   0.38191   0.93472   0.00000  Uiso   1.00
N969   N     0.98173   0.51401   0.76212   0.00000  Uiso   1.00
N970   N     0.68494   0.48599   0.73788   0.00000  Uiso   1.00
O971   O     0.79482   0.57142   0.74686   0.00000  Uiso   1.00
O972   O     0.68852   0.54212   0.95932   0.00000  Uiso   1.00
O973   O     0.79223   0.47577   0.60711   0.00000  Uiso   1.00
O974   O     0.84875   0.54391   0.90180   0.00000  Uiso   1.00
O975   O     0.72012   0.56594   0.62236   0.00000  Uiso   1.00
O976   O     0.66955   0.35694   0.85475   0.00000  Uiso   1.00
O977   O     0.98524   0.37590   0.94901   0.00000  Uiso   1.00
O978   O     0.70499   0.56968   0.53490   0.00000  Uiso   1.00
O979   O     0.78693   0.38500   0.56043   0.00000  Uiso   1.00
O980   O     0.94108   0.49564   0.90509   0.00000  Uiso   1.00
O981   O     0.99946   0.55041   0.82887   0.00000  Uiso   1.00
O982   O     0.87185   0.42858   0.75314   0.00000  Uiso   1.00
O983   O     0.67090   0.45316   0.66942   0.00000  Uiso   1.00
O984   O     0.89496   0.58086   0.75503   0.00000  Uiso   1.00
O985   O     0.77171   0.41914   0.74498   0.00000  Uiso   1.00
O986   O     0.75518   0.49263   0.80855   0.00000  Uiso   1.00
O987   O     0.91149   0.50737   0.69146   0.00000  Uiso   1.00
O988   O     0.85532   0.50207   0.81671   0.00000  Uiso   1.00
O989   O     0.81134   0.49793   0.68329   0.00000  Uiso   1.00
O990   O     0.69366   0.35969   0.51297   0.00000  Uiso   1.00
C991   C     0.18140   0.93332   0.75184   0.00000  Uiso   1.00
C992   C     0.20498   0.83893   0.66656   0.00000  Uiso   1.00
C993   C     0.10538   0.80787   0.87892   0.00000  Uiso   1.00
C994   C     0.22901   0.84453   0.61772   0.00000  Uiso   1.00
C995   C     0.04066   0.74450   0.93351   0.00000  Uiso   1.00
C996   C     0.31284   0.87421   0.55308   0.00000  Uiso   1.00
C997   C     0.05404   0.76495   0.89078   0.00000  Uiso   1.00
C998   C     0.29102   0.87144   0.59972   0.00000  Uiso   1.00
C999   C     0.14295   0.82817   0.90916   0.00000  Uiso   1.00
C1000  C     0.18881   0.82335   0.58901   0.00000  Uiso   1.00
C1001  C     0.13969   0.79855   0.94599   0.00000  Uiso   1.00
C1002  C     0.15197   0.73335   0.74812   0.00000  Uiso   1.00
C1003  C     0.21249   0.82002   0.54248   0.00000  Uiso   1.00
C1004  C     0.08546   0.75890   0.96019   0.00000  Uiso   1.00
C1005  C     0.27383   0.84826   0.52433   0.00000  Uiso   1.00
C1006  C     0.18827   0.80861   0.96966   0.00000  Uiso   1.00
C1007  C     0.17432   0.79272   0.51337   0.00000  Uiso   1.00
C1008  C     0.33143   0.90044   0.62959   0.00000  Uiso   1.00
C1009  C     0.01670   0.73839   0.85828   0.00000  Uiso   1.00
C1010  C     0.00609   0.88936   0.78946   0.00000  Uiso   1.00
C1011  C     0.32795   0.77905   0.70882   0.00000  Uiso   1.00
C1012  C     0.12365   0.74924   0.52580   0.00000  Uiso   1.00
C1013  C     0.25151   0.83092   0.95036   0.00000  Uiso   1.00
C1014  C     0.07808   0.73369   0.50014   0.00000  Uiso   1.00
C1015  C     0.29402   0.85158   0.97764   0.00000  Uiso   1.00
C1016  C     0.18858   0.98934   0.75446   0.00000  Uiso   1.00
C1017  C     0.14489   0.67736   0.74541   0.00000  Uiso   1.00
C1018  C     0.12828   0.82574   0.83289   0.00000  Uiso   1.00
Cu1019 Cu    0.10737   0.82775   0.74517   0.00000  Uiso   1.00
Cu1020 Cu    0.22596   0.83892   0.75484   0.00000  Uiso   1.00
H1021  H     0.22965   0.67968   0.76463   0.00000  Uiso   1.00
H1022  H     0.04829   0.93479   0.55415   0.00000  Uiso   1.00
H1023  H     0.16276   0.72232   0.56576   0.00000  Uiso   1.00
H1024  H     0.24843   0.79854   0.89184   0.00000  Uiso   1.00
H1025  H     0.02511   0.92815   0.77641   0.00000  Uiso   1.00
H1026  H     0.30665   0.73992   0.72058   0.00000  Uiso   1.00
H1027  H     0.10395   0.98706   0.73509   0.00000  Uiso   1.00
H1028  H     0.02235   0.68550   0.54433   0.00000  Uiso   1.00
H1029  H     0.02694   0.88137   0.92757   0.00000  Uiso   1.00
H1030  H     0.10277   0.81949   0.58689   0.00000  Uiso   1.00
H1031  H     0.18854   0.89408   0.93077   0.00000  Uiso   1.00
H1032  H     0.31167   0.92269   0.65869   0.00000  Uiso   1.00
H1033  H     0.00078   0.76092   0.83747   0.00000  Uiso   1.00
H1034  H     0.28599   0.71524   0.93472   0.00000  Uiso   1.00
N1035  N     0.31506   0.84735   0.76212   0.00000  Uiso   1.00
N1036  N     0.01827   0.81932   0.73788   0.00000  Uiso   1.00
O1037  O     0.12815   0.90476   0.74686   0.00000  Uiso   1.00
O1038  O     0.02185   0.87545   0.95932   0.00000  Uiso   1.00
O1039  O     0.12556   0.80910   0.60711   0.00000  Uiso   1.00
O1040  O     0.18208   0.87724   0.90180   0.00000  Uiso   1.00
O1041  O     0.05345   0.89928   0.62236   0.00000  Uiso   1.00
O1042  O     0.00288   0.69027   0.85475   0.00000  Uiso   1.00
O1043  O     0.31857   0.70924   0.94901   0.00000  Uiso   1.00
O1044  O     0.03832   0.90301   0.53490   0.00000  Uiso   1.00
O1045  O     0.12026   0.71834   0.56043   0.00000  Uiso   1.00
O1046  O     0.27441   0.82897   0.90509   0.00000  Uiso   1.00
O1047  O     0.33279   0.88374   0.82887   0.00000  Uiso   1.00
O1048  O     0.20518   0.76191   0.75314   0.00000  Uiso   1.00
O1049  O     0.00423   0.78649   0.66942   0.00000  Uiso   1.00
O1050  O     0.22829   0.91420   0.75503   0.00000  Uiso   1.00
O1051  O     0.10504   0.75247   0.74498   0.00000  Uiso   1.00
O1052  O     0.08851   0.82597   0.80855   0.00000  Uiso   1.00
O1053  O     0.24482   0.84070   0.69146   0.00000  Uiso   1.00
O1054  O     0.18866   0.83540   0.81671   0.00000  Uiso   1.00
O1055  O     0.14468   0.83126   0.68329   0.00000  Uiso   1.00
O1056  O     0.02700   0.69302   0.51297   0.00000  Uiso   1.00
C1057  C     0.51474   0.93332   0.75184   0.00000  Uiso   1.00
C1058  C     0.53831   0.83893   0.66656   0.00000  Uiso   1.00
C1059  C     0.43871   0.80787   0.87892   0.00000  Uiso   1.00
C1060  C     0.56234   0.84453   0.61772   0.00000  Uiso   1.00
C1061  C     0.37399   0.74450   0.93351   0.00000  Uiso   1.00
C1062  C     0.64618   0.87421   0.55308   0.00000  Uiso   1.00
C1063  C     0.38737   0.76495   0.89078   0.00000  Uiso   1.00
C1064  C     0.62435   0.87144   0.59972   0.00000  Uiso   1.00
C1065  C     0.47628   0.82817   0.90916   0.00000  Uiso   1.00
C1066  C     0.52215   0.82335   0.58901   0.00000  Uiso   1.00
C1067  C     0.47302   0.79855   0.94599   0.00000  Uiso   1.00
C1068  C     0.48530   0.73335   0.74812   0.00000  Uiso   1.00
C1069  C     0.54582   0.82002   0.54248   0.00000  Uiso   1.00
C1070  C     0.41880   0.75890   0.96019   0.00000  Uiso   1.00
C1071  C     0.60716   0.84826   0.52433   0.00000  Uiso   1.00
C1072  C     0.52160   0.80861   0.96966   0.00000  Uiso   1.00
C1073  C     0.50765   0.79272   0.51337   0.00000  Uiso   1.00
C1074  C     0.66477   0.90044   0.62959   0.00000  Uiso   1.00
C1075  C     0.35003   0.73839   0.85828   0.00000  Uiso   1.00
C1076  C     0.33942   0.88936   0.78946   0.00000  Uiso   1.00
C1077  C     0.66129   0.77905   0.70882   0.00000  Uiso   1.00
C1078  C     0.45699   0.74924   0.52580   0.00000  Uiso   1.00
C1079  C     0.58484   0.83092   0.95036   0.00000  Uiso   1.00
C1080  C     0.41141   0.73369   0.50014   0.00000  Uiso   1.00
C1081  C     0.62735   0.85158   0.97764   0.00000  Uiso   1.00
C1082  C     0.52192   0.98934   0.75446   0.00000  Uiso   1.00
C1083  C     0.47822   0.67736   0.74541   0.00000  Uiso   1.00
C1084  C     0.46161   0.82574   0.83289   0.00000  Uiso   1.00
Cu1085 Cu    0.44071   0.82775   0.74517   0.00000  Uiso   1.00
Cu1086 Cu    0.55929   0.83892   0.75484   0.00000  Uiso   1.00
H1087  H     0.56299   0.67968   0.76463   0.00000  Uiso   1.00
H1088  H     0.38163   0.93479   0.55415   0.00000  Uiso   1.00
H1089  H     0.49609   0.72232   0.56576   0.00000  Uiso   1.00
H1090  H     0.58176   0.79854   0.89184   0.00000  Uiso   1.00
H1091  H     0.35844   0.92815   0.77641   0.00000  Uiso   1.00
H1092  H     0.63998   0.73992   0.72058   0.00000  Uiso   1.00
H1093  H     0.43728   0.98706   0.73509   0.00000  Uiso   1.00
H1094  H     0.35568   0.68550   0.54433   0.00000  Uiso   1.00
H1095  H     0.36028   0.88137   0.92757   0.00000  Uiso   1.00
H1096  H     0.43611   0.81949   0.58689   0.00000  Uiso   1.00
H1097  H     0.52187   0.89408   0.93077   0.00000  Uiso   1.00
H1098  H     0.64500   0.92269   0.65869   0.00000  Uiso   1.00
H1099  H     0.33411   0.76092   0.83747   0.00000  Uiso   1.00
H1100  H     0.61932   0.71524   0.93472   0.00000  Uiso   1.00
N1101  N     0.64839   0.84735   0.76212   0.00000  Uiso   1.00
N1102  N     0.35161   0.81932   0.73788   0.00000  Uiso   1.00
O1103  O     0.46148   0.90476   0.74686   0.00000  Uiso   1.00
O1104  O     0.35518   0.87545   0.95932   0.00000  Uiso   1.00
O1105  O     0.45889   0.80910   0.60711   0.00000  Uiso   1.00
O1106  O     0.51542   0.87724   0.90180   0.00000  Uiso   1.00
O1107  O     0.38679   0.89928   0.62236   0.00000  Uiso   1.00
O1108  O     0.33621   0.69027   0.85475   0.00000  Uiso   1.00
O1109  O     0.65191   0.70924   0.94901   0.00000  Uiso   1.00
O1110  O     0.37165   0.90301   0.53490   0.00000  Uiso   1.00
O1111  O     0.45360   0.71834   0.56043   0.00000  Uiso   1.00
O1112  O     0.60774   0.82897   0.90509   0.00000  Uiso   1.00
O1113  O     0.66612   0.88374   0.82887   0.00000  Uiso   1.00
O1114  O     0.53852   0.76191   0.75314   0.00000  Uiso   1.00
O1115  O     0.33757   0.78649   0.66942   0.00000  Uiso   1.00
O1116  O     0.56163   0.91420   0.75503   0.00000  Uiso   1.00
O1117  O     0.43837   0.75247   0.74498   0.00000  Uiso   1.00
O1118  O     0.42185   0.82597   0.80855   0.00000  Uiso   1.00
O1119  O     0.57815   0.84070   0.69146   0.00000  Uiso   1.00
O1120  O     0.52199   0.83540   0.81671   0.00000  Uiso   1.00
O1121  O     0.47801   0.83126   0.68329   0.00000  Uiso   1.00
O1122  O     0.36033   0.69302   0.51297   0.00000  Uiso   1.00
C1123  C     0.84807   0.93332   0.75184   0.00000  Uiso   1.00
C1124  C     0.87165   0.83893   0.66656   0.00000  Uiso   1.00
C1125  C     0.77204   0.80787   0.87892   0.00000  Uiso   1.00
C1126  C     0.89567   0.84453   0.61772   0.00000  Uiso   1.00
C1127  C     0.70733   0.74450   0.93351   0.00000  Uiso   1.00
C1128  C     0.97951   0.87421   0.55308   0.00000  Uiso   1.00
C1129  C     0.72070   0.76495   0.89078   0.00000  Uiso   1.00
C1130  C     0.95769   0.87144   0.59972   0.00000  Uiso   1.00
C1131  C     0.80961   0.82817   0.90916   0.00000  Uiso   1.00
C1132  C     0.85548   0.82335   0.58901   0.00000  Uiso   1.00
C1133  C     0.80636   0.79855   0.94599   0.00000  Uiso   1.00
C1134  C     0.81863   0.73335   0.74812   0.00000  Uiso   1.00
C1135  C     0.87916   0.82002   0.54248   0.00000  Uiso   1.00
C1136  C     0.75213   0.75890   0.96019   0.00000  Uiso   1.00
C1137  C     0.94049   0.84826   0.52433   0.00000  Uiso   1.00
C1138  C     0.85493   0.80861   0.96966   0.00000  Uiso   1.00
C1139  C     0.84099   0.79272   0.51337   0.00000  Uiso   1.00
C1140  C     0.99810   0.90044   0.62959   0.00000  Uiso   1.00
C1141  C     0.68336   0.73839   0.85828   0.00000  Uiso   1.00
C1142  C     0.67275   0.88936   0.78946   0.00000  Uiso   1.00
C1143  C     0.99462   0.77905   0.70882   0.00000  Uiso   1.00
C1144  C     0.79032   0.74924   0.52580   0.00000  Uiso   1.00
C1145  C     0.91817   0.83092   0.95036   0.00000  Uiso   1.00
C1146  C     0.74475   0.73369   0.50014   0.00000  Uiso   1.00
C1147  C     0.96069   0.85158   0.97764   0.00000  Uiso   1.00
C1148  C     0.85525   0.98934   0.75446   0.00000  Uiso   1.00
C1149  C     0.81155   0.67736   0.74541   0.00000  Uiso   1.00
C1150  C     0.79495   0.82574   0.83289   0.00000  Uiso   1.00
Cu1151 Cu    0.77404   0.82775   0.74517   0.00000  Uiso   1.00
Cu1152 Cu    0.89263   0.83892   0.75484   0.00000  Uiso   1.00
H1153  H     0.89632   0.67968   0.76463   0.00000  Uiso   1.00
H1154  H     0.71496   0.93479   0.55415   0.00000  Uiso   1.00
H1155  H     0.82943   0.72232   0.56576   0.00000  Uiso   1.00
H1156  H     0.91510   0.79854   0.89184   0.00000  Uiso   1.00
H1157  H     0.69178   0.92815   0.77641   0.00000  Uiso   1.00
H1158  H     0.97332   0.73992   0.72058   0.00000  Uiso   1.00
H1159  H     0.77062   0.98706   0.73509   0.00000  Uiso   1.00
H1160  H     0.68902   0.68550   0.54433   0.00000  Uiso   1.00
H1161  H     0.69361   0.88137   0.92757   0.00000  Uiso   1.00
H1162  H     0.76944   0.81949   0.58689   0.00000  Uiso   1.00
H1163  H     0.85520   0.89408   0.93077   0.00000  Uiso   1.00
H1164  H     0.97833   0.92269   0.65869   0.00000  Uiso   1.00
H1165  H     0.66745   0.76092   0.83747   0.00000  Uiso   1.00
H1166  H     0.95265   0.71524   0.93472   0.00000  Uiso   1.00
N1167  N     0.98173   0.84735   0.76212   0.00000  Uiso   1.00
N1168  N     0.68494   0.81932   0.73788   0.00000  Uiso   1.00
O1169  O     0.79482   0.90476   0.74686   0.00000  Uiso   1.00
O1170  O     0.68852   0.87545   0.95932   0.00000  Uiso   1.00
O1171  O     0.79223   0.80910   0.60711   0.00000  Uiso   1.00
O1172  O     0.84875   0.87724   0.90180   0.00000  Uiso   1.00
O1173  O     0.72012   0.89928   0.62236   0.00000  Uiso   1.00
O1174  O     0.66955   0.69027   0.85475   0.00000  Uiso   1.00
O1175  O     0.98524   0.70924   0.94901   0.00000  Uiso   1.00
O1176  O     0.70499   0.90301   0.53490   0.00000  Uiso   1.00
O1177  O     0.78693   0.71834   0.56043   0.00000  Uiso   1.00
O1178  O     0.94108   0.82897   0.90509   0.00000  Uiso   1.00
O1179  O     0.99946   0.88374   0.82887   0.00000  Uiso   1.00
O1180  O     0.87185   0.76191   0.75314   0.00000  Uiso   1.00
O1181  O     0.67090   0.78649   0.66942   0.00000  Uiso   1.00
O1182  O     0.89496   0.91420   0.75503   0.00000  Uiso   1.00
O1183  O     0.77171   0.75247   0.74498   0.00000  Uiso   1.00
O1184  O     0.75518   0.82597   0.80855   0.00000  Uiso   1.00
O1185  O     0.91149   0.84070   0.69146   0.00000  Uiso   1.00
O1186  O     0.85532   0.83540   0.81671   0.00000  Uiso   1.00
O1187  O     0.81134   0.83126   0.68329   0.00000  Uiso   1.00
O1188  O     0.69366   0.69302   0.51297   0.00000  Uiso   1.00
loop_
_geom_bond_atom_site_label_1
_geom_bond_atom_site_label_2
_geom_bond_distance
_geom_bond_site_symmetry_2
_ccdc_geom_bond_type
C1     C26     1.427   .     S
C1     O60     1.293   .     A
C1     O47     1.296   .     A
C2     C4      1.496   .     S
C2     O65     1.311   .     A
C2     O63     1.309   .     A
C3     C9      1.400   .     A
C3     C7      1.419   .     A
C3     C28     1.483   .     S
C4     C8      1.420   .     A
C4     C10     1.409   .     A
C5     C14     1.420   .     A
C5     C7      1.419   .     A
C5     O185    1.383   1_455 S
C6     C8      1.420   .     A
C6     C15     1.420   .     A
C6     O120    1.383   .     S
C7     C19     1.488   .     S
C8     C18     1.489   .     S
C9     C11     1.420   .     A
C9     O50     1.383   .     S
C10    O49     1.380   .     S
C10    C13     1.420   .     A
C11    C16     1.423   .     A
C11    C14     1.419   .     A
C12    O58     1.295   .     A
C12    O61     1.293   .     A
C12    C27     1.427   .     S
C13    C15     1.421   .     A
C13    C17     1.426   .     A
C14    C618    1.418   .     S
C15    C619    1.420   1_554 S
C16    C23     1.419   .     A
C16    C611    1.402   .     S
C17    C22     1.422   .     A
C17    C610    1.402   1_554 S
C18    H42     1.085   .     S
C18    O117    1.221   .     S
C19    H43     1.082   .     S
C19    O52     1.221   .     D
C20    H35     1.081   .     S
C20    N177    1.411   1_455 S
C20    O189    1.218   1_455 S
C21    H36     1.081   .     S
C21    N112    1.412   .     S
C21    O125    1.219   .     S
C22    O55     1.383   .     S
C22    C24     1.412   .     A
C23    C25     1.411   .     A
C23    O56     1.380   .     S
C24    O66     1.384   .     S
C24    C608    1.418   1_554 S
C25    C609    1.420   .     S
C25    O114    1.384   .     S
C26    C225    1.330   .     S
C26    H229    1.086   .     S
C27    C422    1.330   1_545 S
C27    H433    1.085   1_545 S
C28    O64     1.308   .     A
C28    O62     1.305   .     A
Cu29   N46     2.034   .     S
Cu29   Cu30    2.707   .     S
Cu29   O47     1.952   .     S
Cu29   O65     1.910   .     S
Cu29   O61     1.948   .     S
Cu29   O62     1.918   .     S
Cu30   O64     1.910   .     S
Cu30   N45     2.034   .     S
Cu30   O63     1.918   .     S
Cu30   O58     1.952   .     S
Cu30   O60     1.948   .     S
H31    C422    1.086   1_545 S
H32    O54     0.989   .     S
H33    O55     0.991   .     S
H34    O56     0.991   .     S
H37    C225    1.085   .     S
H38    O66     0.990   .     S
H39    O48     0.990   .     S
H40    O49     0.991   .     S
H41    O50     0.991   .     S
H44    O53     0.991   .     S
N45    C86     1.411   .     S
N45    N112    1.285   .     S
N46    C153    1.412   1_455 S
N46    N177    1.285   1_455 S
O48    C157    1.384   1_455 S
O51    C150    1.221   1_455 S
O53    C71     1.383   .     S
O54    C138    1.383   1_455 S
O57    C86     1.218   .     S
O59    C153    1.219   1_455 S
C67    C92     1.427   .     S
C67    O126    1.293   .     A
C67    O113    1.296   .     A
C68    C70     1.496   .     S
C68    O131    1.311   .     A
C68    O129    1.309   .     A
C69    C75     1.400   .     A
C69    C73     1.419   .     A
C69    C94     1.483   .     S
C70    C74     1.420   .     A
C70    C76     1.409   .     A
C71    C80     1.420   .     A
C71    C73     1.419   .     A
C72    C74     1.420   .     A
C72    C81     1.420   .     A
C72    O186    1.383   .     S
C73    C85     1.488   .     S
C74    C84     1.489   .     S
C75    C77     1.420   .     A
C75    O116    1.383   .     S
C76    O115    1.380   .     S
C76    C79     1.420   .     A
C77    C82     1.423   .     A
C77    C80     1.419   .     A
C78    O124    1.295   .     A
C78    O127    1.293   .     A
C78    C93     1.427   .     S
C79    C81     1.421   .     A
C79    C83     1.426   .     A
C80    C684    1.418   .     S
C81    C685    1.420   1_554 S
C82    C89     1.419   .     A
C82    C677    1.402   .     S
C83    C88     1.422   .     A
C83    C676    1.402   1_554 S
C84    H108    1.085   .     S
C84    O183    1.221   .     S
C85    H109    1.082   .     S
C85    O118    1.221   .     D
C86    H101    1.081   .     S
C87    H102    1.081   .     S
C87    N178    1.412   .     S
C87    O191    1.219   .     S
C88    O121    1.383   .     S
C88    C90     1.412   .     A
C89    C91     1.411   .     A
C89    O122    1.380   .     S
C90    O132    1.384   .     S
C90    C674    1.418   1_554 S
C91    C675    1.420   .     S
C91    O180    1.384   .     S
C92    C291    1.330   .     S
C92    H295    1.086   .     S
C93    C488    1.330   1_545 S
C93    H499    1.085   1_545 S
C94    O130    1.308   .     A
C94    O128    1.305   .     A
Cu95   N112    2.034   .     S
Cu95   Cu96    2.707   .     S
Cu95   O113    1.952   .     S
Cu95   O131    1.910   .     S
Cu95   O127    1.948   .     S
Cu95   O128    1.918   .     S
Cu96   O130    1.910   .     S
Cu96   N111    2.034   .     S
Cu96   O129    1.918   .     S
Cu96   O124    1.952   .     S
Cu96   O126    1.948   .     S
H97    C488    1.086   1_545 S
H98    O120    0.989   .     S
H99    O121    0.991   .     S
H100   O122    0.991   .     S
H103   C291    1.085   .     S
H104   O132    0.990   .     S
H105   O114    0.990   .     S
H106   O115    0.991   .     S
H107   O116    0.991   .     S
H110   O119    0.991   .     S
N111   C152    1.411   .     S
N111   N178    1.285   .     S
O119   C137    1.383   .     S
O123   C152    1.218   .     S
C133   C158    1.427   .     S
C133   O192    1.293   .     A
C133   O179    1.296   .     A
C134   C136    1.496   .     S
C134   O197    1.311   .     A
C134   O195    1.309   .     A
C135   C141    1.400   .     A
C135   C139    1.419   .     A
C135   C160    1.483   .     S
C136   C140    1.420   .     A
C136   C142    1.409   .     A
C137   C146    1.420   .     A
C137   C139    1.419   .     A
C138   C140    1.420   .     A
C138   C147    1.420   .     A
C138   O54     1.383   1_655 S
C139   C151    1.488   .     S
C140   C150    1.489   .     S
C141   C143    1.420   .     A
C141   O182    1.383   .     S
C142   O181    1.380   .     S
C142   C145    1.420   .     A
C143   C148    1.423   .     A
C143   C146    1.419   .     A
C144   O190    1.295   .     A
C144   O193    1.293   .     A
C144   C159    1.427   .     S
C145   C147    1.421   .     A
C145   C149    1.426   .     A
C146   C750    1.418   .     S
C147   C751    1.420   1_554 S
C148   C155    1.419   .     A
C148   C743    1.402   .     S
C149   C154    1.422   .     A
C149   C742    1.402   1_554 S
C150   H174    1.085   .     S
C150   O51     1.221   1_655 S
C151   H175    1.082   .     S
C151   O184    1.221   .     D
C152   H167    1.081   .     S
C153   H168    1.081   .     S
C153   N46     1.412   1_655 S
C153   O59     1.219   1_655 S
C154   O187    1.383   .     S
C154   C156    1.412   .     A
C155   C157    1.411   .     A
C155   O188    1.380   .     S
C156   O198    1.384   .     S
C156   C740    1.418   1_554 S
C157   C741    1.420   .     S
C157   O48     1.384   1_655 S
C158   C357    1.330   .     S
C158   H361    1.086   .     S
C159   C554    1.330   1_545 S
C159   H565    1.085   1_545 S
C160   O196    1.308   .     A
C160   O194    1.305   .     A
Cu161  N178    2.034   .     S
Cu161  Cu162   2.707   .     S
Cu161  O179    1.952   .     S
Cu161  O197    1.910   .     S
Cu161  O193    1.948   .     S
Cu161  O194    1.918   .     S
Cu162  O196    1.910   .     S
Cu162  N177    2.034   .     S
Cu162  O195    1.918   .     S
Cu162  O190    1.952   .     S
Cu162  O192    1.948   .     S
H163   C554    1.086   1_545 S
H164   O186    0.989   .     S
H165   O187    0.991   .     S
H166   O188    0.991   .     S
H169   C357    1.085   .     S
H170   O198    0.990   .     S
H171   O180    0.990   .     S
H172   O181    0.991   .     S
H173   O182    0.991   .     S
H176   O185    0.991   .     S
N177   C20     1.411   1_655 S
N177   N46     1.285   1_655 S
O185   C5      1.383   1_655 S
O189   C20     1.218   1_655 S
C199   C224    1.427   .     S
C199   O258    1.293   .     A
C199   O245    1.296   .     A
C200   C202    1.496   .     S
C200   O263    1.311   .     A
C200   O261    1.309   .     A
C201   C207    1.400   .     A
C201   C205    1.419   .     A
C201   C226    1.483   .     S
C202   C206    1.420   .     A
C202   C208    1.409   .     A
C203   C212    1.420   .     A
C203   C205    1.419   .     A
C203   O383    1.383   1_455 S
C204   C206    1.420   .     A
C204   C213    1.420   .     A
C204   O318    1.383   .     S
C205   C217    1.488   .     S
C206   C216    1.489   .     S
C207   C209    1.420   .     A
C207   O248    1.383   .     S
C208   O247    1.380   .     S
C208   C211    1.420   .     A
C209   C214    1.423   .     A
C209   C212    1.419   .     A
C210   O256    1.295   .     A
C210   O259    1.293   .     A
C210   C225    1.427   .     S
C211   C213    1.421   .     A
C211   C215    1.426   .     A
C212   C816    1.418   .     S
C213   C817    1.420   1_554 S
C214   C221    1.419   .     A
C214   C809    1.402   .     S
C215   C220    1.422   .     A
C215   C808    1.402   1_554 S
C216   H240    1.085   .     S
C216   O315    1.221   .     S
C217   H241    1.082   .     S
C217   O250    1.221   .     D
C218   H233    1.081   .     S
C218   N375    1.411   1_455 S
C218   O387    1.218   1_455 S
C219   H234    1.081   .     S
C219   N310    1.412   .     S
C219   O323    1.219   .     S
C220   O253    1.383   .     S
C220   C222    1.412   .     A
C221   C223    1.411   .     A
C221   O254    1.380   .     S
C222   O264    1.384   .     S
C222   C806    1.418   1_554 S
C223   C807    1.420   .     S
C223   O312    1.384   .     S
C224   C423    1.330   .     S
C224   H427    1.086   .     S
C226   O262    1.308   .     A
C226   O260    1.305   .     A
Cu227  N244    2.034   .     S
Cu227  Cu228   2.707   .     S
Cu227  O245    1.952   .     S
Cu227  O263    1.910   .     S
Cu227  O259    1.948   .     S
Cu227  O260    1.918   .     S
Cu228  O262    1.910   .     S
Cu228  N243    2.034   .     S
Cu228  O261    1.918   .     S
Cu228  O256    1.952   .     S
Cu228  O258    1.948   .     S
H230   O252    0.989   .     S
H231   O253    0.991   .     S
H232   O254    0.991   .     S
H235   C423    1.085   .     S
H236   O264    0.990   .     S
H237   O246    0.990   .     S
H238   O247    0.991   .     S
H239   O248    0.991   .     S
H242   O251    0.991   .     S
N243   C284    1.411   .     S
N243   N310    1.285   .     S
N244   C351    1.412   1_455 S
N244   N375    1.285   1_455 S
O246   C355    1.384   1_455 S
O249   C348    1.221   1_455 S
O251   C269    1.383   .     S
O252   C336    1.383   1_455 S
O255   C284    1.218   .     S
O257   C351    1.219   1_455 S
C265   C290    1.427   .     S
C265   O324    1.293   .     A
C265   O311    1.296   .     A
C266   C268    1.496   .     S
C266   O329    1.311   .     A
C266   O327    1.309   .     A
C267   C273    1.400   .     A
C267   C271    1.419   .     A
C267   C292    1.483   .     S
C268   C272    1.420   .     A
C268   C274    1.409   .     A
C269   C278    1.420   .     A
C269   C271    1.419   .     A
C270   C272    1.420   .     A
C270   C279    1.420   .     A
C270   O384    1.383   .     S
C271   C283    1.488   .     S
C272   C282    1.489   .     S
C273   C275    1.420   .     A
C273   O314    1.383   .     S
C274   O313    1.380   .     S
C274   C277    1.420   .     A
C275   C280    1.423   .     A
C275   C278    1.419   .     A
C276   O322    1.295   .     A
C276   O325    1.293   .     A
C276   C291    1.427   .     S
C277   C279    1.421   .     A
C277   C281    1.426   .     A
C278   C882    1.418   .     S
C279   C883    1.420   1_554 S
C280   C287    1.419   .     A
C280   C875    1.402   .     S
C281   C286    1.422   .     A
C281   C874    1.402   1_554 S
C282   H306    1.085   .     S
C282   O381    1.221   .     S
C283   H307    1.082   .     S
C283   O316    1.221   .     D
C284   H299    1.081   .     S
C285   H300    1.081   .     S
C285   N376    1.412   .     S
C285   O389    1.219   .     S
C286   O319    1.383   .     S
C286   C288    1.412   .     A
C287   C289    1.411   .     A
C287   O320    1.380   .     S
C288   O330    1.384   .     S
C288   C872    1.418   1_554 S
C289   C873    1.420   .     S
C289   O378    1.384   .     S
C290   C489    1.330   .     S
C290   H493    1.086   .     S
C292   O328    1.308   .     A
C292   O326    1.305   .     A
Cu293  N310    2.034   .     S
Cu293  Cu294   2.707   .     S
Cu293  O311    1.952   .     S
Cu293  O329    1.910   .     S
Cu293  O325    1.948   .     S
Cu293  O326    1.918   .     S
Cu294  O328    1.910   .     S
Cu294  N309    2.034   .     S
Cu294  O327    1.918   .     S
Cu294  O322    1.952   .     S
Cu294  O324    1.948   .     S
H296   O318    0.989   .     S
H297   O319    0.991   .     S
H298   O320    0.991   .     S
H301   C489    1.085   .     S
H302   O330    0.990   .     S
H303   O312    0.990   .     S
H304   O313    0.991   .     S
H305   O314    0.991   .     S
H308   O317    0.991   .     S
N309   C350    1.411   .     S
N309   N376    1.285   .     S
O317   C335    1.383   .     S
O321   C350    1.218   .     S
C331   C356    1.427   .     S
C331   O390    1.293   .     A
C331   O377    1.296   .     A
C332   C334    1.496   .     S
C332   O395    1.311   .     A
C332   O393    1.309   .     A
C333   C339    1.400   .     A
C333   C337    1.419   .     A
C333   C358    1.483   .     S
C334   C338    1.420   .     A
C334   C340    1.409   .     A
C335   C344    1.420   .     A
C335   C337    1.419   .     A
C336   C338    1.420   .     A
C336   C345    1.420   .     A
C336   O252    1.383   1_655 S
C337   C349    1.488   .     S
C338   C348    1.489   .     S
C339   C341    1.420   .     A
C339   O380    1.383   .     S
C340   O379    1.380   .     S
C340   C343    1.420   .     A
C341   C346    1.423   .     A
C341   C344    1.419   .     A
C342   O388    1.295   .     A
C342   O391    1.293   .     A
C342   C357    1.427   .     S
C343   C345    1.421   .     A
C343   C347    1.426   .     A
C344   C948    1.418   .     S
C345   C949    1.420   1_554 S
C346   C353    1.419   .     A
C346   C941    1.402   .     S
C347   C352    1.422   .     A
C347   C940    1.402   1_554 S
C348   H372    1.085   .     S
C348   O249    1.221   1_655 S
C349   H373    1.082   .     S
C349   O382    1.221   .     D
C350   H365    1.081   .     S
C351   H366    1.081   .     S
C351   N244    1.412   1_655 S
C351   O257    1.219   1_655 S
C352   O385    1.383   .     S
C352   C354    1.412   .     A
C353   C355    1.411   .     A
C353   O386    1.380   .     S
C354   O396    1.384   .     S
C354   C938    1.418   1_554 S
C355   C939    1.420   .     S
C355   O246    1.384   1_655 S
C356   C555    1.330   .     S
C356   H559    1.086   .     S
C358   O394    1.308   .     A
C358   O392    1.305   .     A
Cu359  N376    2.034   .     S
Cu359  Cu360   2.707   .     S
Cu359  O377    1.952   .     S
Cu359  O395    1.910   .     S
Cu359  O391    1.948   .     S
Cu359  O392    1.918   .     S
Cu360  O394    1.910   .     S
Cu360  N375    2.034   .     S
Cu360  O393    1.918   .     S
Cu360  O388    1.952   .     S
Cu360  O390    1.948   .     S
H362   O384    0.989   .     S
H363   O385    0.991   .     S
H364   O386    0.991   .     S
H367   C555    1.085   .     S
H368   O396    0.990   .     S
H369   O378    0.990   .     S
H370   O379    0.991   .     S
H371   O380    0.991   .     S
H374   O383    0.991   .     S
N375   C218    1.411   1_655 S
N375   N244    1.285   1_655 S
O383   C203    1.383   1_655 S
O387   C218    1.218   1_655 S
C397   C422    1.427   .     S
C397   O456    1.293   .     A
C397   O443    1.296   .     A
C398   C400    1.496   .     S
C398   O461    1.311   .     A
C398   O459    1.309   .     A
C399   C405    1.400   .     A
C399   C403    1.419   .     A
C399   C424    1.483   .     S
C400   C404    1.420   .     A
C400   C406    1.409   .     A
C401   C410    1.420   .     A
C401   C403    1.419   .     A
C401   O581    1.383   1_455 S
C402   C404    1.420   .     A
C402   C411    1.420   .     A
C402   O516    1.383   .     S
C403   C415    1.488   .     S
C404   C414    1.489   .     S
C405   C407    1.420   .     A
C405   O446    1.383   .     S
C406   O445    1.380   .     S
C406   C409    1.420   .     A
C407   C412    1.423   .     A
C407   C410    1.419   .     A
C408   O454    1.295   .     A
C408   O457    1.293   .     A
C408   C423    1.427   .     S
C409   C411    1.421   .     A
C409   C413    1.426   .     A
C410   C1014   1.418   .     S
C411   C1015   1.420   1_554 S
C412   C419    1.419   .     A
C412   C1007   1.402   .     S
C413   C418    1.422   .     A
C413   C1006   1.402   1_554 S
C414   H438    1.085   .     S
C414   O513    1.221   .     S
C415   H439    1.082   .     S
C415   O448    1.221   .     D
C416   H431    1.081   .     S
C416   N573    1.411   1_455 S
C416   O585    1.218   1_455 S
C417   H432    1.081   .     S
C417   N508    1.412   .     S
C417   O521    1.219   .     S
C418   O451    1.383   .     S
C418   C420    1.412   .     A
C419   C421    1.411   .     A
C419   O452    1.380   .     S
C420   O462    1.384   .     S
C420   C1004   1.418   1_554 S
C421   C1005   1.420   .     S
C421   O510    1.384   .     S
C422   C27     1.330   1_565 S
C422   H31     1.086   1_565 S
C424   O460    1.308   .     A
C424   O458    1.305   .     A
Cu425  N442    2.034   .     S
Cu425  Cu426   2.707   .     S
Cu425  O443    1.952   .     S
Cu425  O461    1.910   .     S
Cu425  O457    1.948   .     S
Cu425  O458    1.918   .     S
Cu426  O460    1.910   .     S
Cu426  N441    2.034   .     S
Cu426  O459    1.918   .     S
Cu426  O454    1.952   .     S
Cu426  O456    1.948   .     S
H428   O450    0.989   .     S
H429   O451    0.991   .     S
H430   O452    0.991   .     S
H433   C27     1.085   1_565 S
H434   O462    0.990   .     S
H435   O444    0.990   .     S
H436   O445    0.991   .     S
H437   O446    0.991   .     S
H440   O449    0.991   .     S
N441   C482    1.411   .     S
N441   N508    1.285   .     S
N442   C549    1.412   1_455 S
N442   N573    1.285   1_455 S
O444   C553    1.384   1_455 S
O447   C546    1.221   1_455 S
O449   C467    1.383   .     S
O450   C534    1.383   1_455 S
O453   C482    1.218   .     S
O455   C549    1.219   1_455 S
C463   C488    1.427   .     S
C463   O522    1.293   .     A
C463   O509    1.296   .     A
C464   C466    1.496   .     S
C464   O527    1.311   .     A
C464   O525    1.309   .     A
C465   C471    1.400   .     A
C465   C469    1.419   .     A
C465   C490    1.483   .     S
C466   C470    1.420   .     A
C466   C472    1.409   .     A
C467   C476    1.420   .     A
C467   C469    1.419   .     A
C468   C470    1.420   .     A
C468   C477    1.420   .     A
C468   O582    1.383   .     S
C469   C481    1.488   .     S
C470   C480    1.489   .     S
C471   C473    1.420   .     A
C471   O512    1.383   .     S
C472   O511    1.380   .     S
C472   C475    1.420   .     A
C473   C478    1.423   .     A
C473   C476    1.419   .     A
C474   O520    1.295   .     A
C474   O523    1.293   .     A
C474   C489    1.427   .     S
C475   C477    1.421   .     A
C475   C479    1.426   .     A
C476   C1080   1.418   .     S
C477   C1081   1.420   1_554 S
C478   C485    1.419   .     A
C478   C1073   1.402   .     S
C479   C484    1.422   .     A
C479   C1072   1.402   1_554 S
C480   H504    1.085   .     S
C480   O579    1.221   .     S
C481   H505    1.082   .     S
C481   O514    1.221   .     D
C482   H497    1.081   .     S
C483   H498    1.081   .     S
C483   N574    1.412   .     S
C483   O587    1.219   .     S
C484   O517    1.383   .     S
C484   C486    1.412   .     A
C485   C487    1.411   .     A
C485   O518    1.380   .     S
C486   O528    1.384   .     S
C486   C1070   1.418   1_554 S
C487   C1071   1.420   .     S
C487   O576    1.384   .     S
C488   C93     1.330   1_565 S
C488   H97     1.086   1_565 S
C490   O526    1.308   .     A
C490   O524    1.305   .     A
Cu491  N508    2.034   .     S
Cu491  Cu492   2.707   .     S
Cu491  O509    1.952   .     S
Cu491  O527    1.910   .     S
Cu491  O523    1.948   .     S
Cu491  O524    1.918   .     S
Cu492  O526    1.910   .     S
Cu492  N507    2.034   .     S
Cu492  O525    1.918   .     S
Cu492  O520    1.952   .     S
Cu492  O522    1.948   .     S
H494   O516    0.989   .     S
H495   O517    0.991   .     S
H496   O518    0.991   .     S
H499   C93     1.085   1_565 S
H500   O528    0.990   .     S
H501   O510    0.990   .     S
H502   O511    0.991   .     S
H503   O512    0.991   .     S
H506   O515    0.991   .     S
N507   C548    1.411   .     S
N507   N574    1.285   .     S
O515   C533    1.383   .     S
O519   C548    1.218   .     S
C529   C554    1.427   .     S
C529   O588    1.293   .     A
C529   O575    1.296   .     A
C530   C532    1.496   .     S
C530   O593    1.311   .     A
C530   O591    1.309   .     A
C531   C537    1.400   .     A
C531   C535    1.419   .     A
C531   C556    1.483   .     S
C532   C536    1.420   .     A
C532   C538    1.409   .     A
C533   C542    1.420   .     A
C533   C535    1.419   .     A
C534   C536    1.420   .     A
C534   C543    1.420   .     A
C534   O450    1.383   1_655 S
C535   C547    1.488   .     S
C536   C546    1.489   .     S
C537   C539    1.420   .     A
C537   O578    1.383   .     S
C538   O577    1.380   .     S
C538   C541    1.420   .     A
C539   C544    1.423   .     A
C539   C542    1.419   .     A
C540   O586    1.295   .     A
C540   O589    1.293   .     A
C540   C555    1.427   .     S
C541   C543    1.421   .     A
C541   C545    1.426   .     A
C542   C1146   1.418   .     S
C543   C1147   1.420   1_554 S
C544   C551    1.419   .     A
C544   C1139   1.402   .     S
C545   C550    1.422   .     A
C545   C1138   1.402   1_554 S
C546   H570    1.085   .     S
C546   O447    1.221   1_655 S
C547   H571    1.082   .     S
C547   O580    1.221   .     D
C548   H563    1.081   .     S
C549   H564    1.081   .     S
C549   N442    1.412   1_655 S
C549   O455    1.219   1_655 S
C550   O583    1.383   .     S
C550   C552    1.412   .     A
C551   C553    1.411   .     A
C551   O584    1.380   .     S
C552   O594    1.384   .     S
C552   C1136   1.418   1_554 S
C553   C1137   1.420   .     S
C553   O444    1.384   1_655 S
C554   C159    1.330   1_565 S
C554   H163    1.086   1_565 S
C556   O592    1.308   .     A
C556   O590    1.305   .     A
Cu557  N574    2.034   .     S
Cu557  Cu558   2.707   .     S
Cu557  O575    1.952   .     S
Cu557  O593    1.910   .     S
Cu557  O589    1.948   .     S
Cu557  O590    1.918   .     S
Cu558  O592    1.910   .     S
Cu558  N573    2.034   .     S
Cu558  O591    1.918   .     S
Cu558  O586    1.952   .     S
Cu558  O588    1.948   .     S
H560   O582    0.989   .     S
H561   O583    0.991   .     S
H562   O584    0.991   .     S
H565   C159    1.085   1_565 S
H566   O594    0.990   .     S
H567   O576    0.990   .     S
H568   O577    0.991   .     S
H569   O578    0.991   .     S
H572   O581    0.991   .     S
N573   C416    1.411   1_655 S
N573   N442    1.285   1_655 S
O581   C401    1.383   1_655 S
O585   C416    1.218   1_655 S
C595   C620    1.427   .     S
C595   O654    1.293   .     A
C595   O641    1.296   .     A
C596   C598    1.496   .     S
C596   O659    1.311   .     A
C596   O657    1.309   .     A
C597   C603    1.400   .     A
C597   C601    1.419   .     A
C597   C622    1.483   .     S
C598   C602    1.420   .     A
C598   C604    1.409   .     A
C599   C608    1.420   .     A
C599   C601    1.419   .     A
C599   O779    1.383   1_455 S
C600   C602    1.420   .     A
C600   C609    1.420   .     A
C600   O714    1.383   .     S
C601   C613    1.488   .     S
C602   C612    1.489   .     S
C603   C605    1.420   .     A
C603   O644    1.383   .     S
C604   O643    1.380   .     S
C604   C607    1.420   .     A
C605   C610    1.423   .     A
C605   C608    1.419   .     A
C606   O652    1.295   .     A
C606   O655    1.293   .     A
C606   C621    1.427   .     S
C607   C609    1.421   .     A
C607   C611    1.426   .     A
C608   C24     1.418   1_556 S
C610   C617    1.419   .     A
C610   C17     1.402   1_556 S
C611   C616    1.422   .     A
C612   H636    1.085   .     S
C612   O711    1.221   .     S
C613   H637    1.082   .     S
C613   O646    1.221   .     D
C614   H629    1.081   .     S
C614   N771    1.411   1_455 S
C614   O783    1.218   1_455 S
C615   H630    1.081   .     S
C615   N706    1.412   .     S
C615   O719    1.219   .     S
C616   O649    1.383   .     S
C616   C618    1.412   .     A
C617   C619    1.411   .     A
C617   O650    1.380   .     S
C618   O660    1.384   .     S
C619   C15     1.420   1_556 S
C619   O708    1.384   .     S
C620   C819    1.330   .     S
C620   H823    1.086   .     S
C621   C1016   1.330   1_545 S
C621   H1027   1.085   1_545 S
C622   O658    1.308   .     A
C622   O656    1.305   .     A
Cu623  N640    2.034   .     S
Cu623  Cu624   2.707   .     S
Cu623  O641    1.952   .     S
Cu623  O659    1.910   .     S
Cu623  O655    1.948   .     S
Cu623  O656    1.918   .     S
Cu624  O658    1.910   .     S
Cu624  N639    2.034   .     S
Cu624  O657    1.918   .     S
Cu624  O652    1.952   .     S
Cu624  O654    1.948   .     S
H625   C1016   1.086   1_545 S
H626   O648    0.989   .     S
H627   O649    0.991   .     S
H628   O650    0.991   .     S
H631   C819    1.085   .     S
H632   O660    0.990   .     S
H633   O642    0.990   .     S
H634   O643    0.991   .     S
H635   O644    0.991   .     S
H638   O647    0.991   .     S
N639   C680    1.411   .     S
N639   N706    1.285   .     S
N640   C747    1.412   1_455 S
N640   N771    1.285   1_455 S
O642   C751    1.384   1_455 S
O645   C744    1.221   1_455 S
O647   C665    1.383   .     S
O648   C732    1.383   1_455 S
O651   C680    1.218   .     S
O653   C747    1.219   1_455 S
C661   C686    1.427   .     S
C661   O720    1.293   .     A
C661   O707    1.296   .     A
C662   C664    1.496   .     S
C662   O725    1.311   .     A
C662   O723    1.309   .     A
C663   C669    1.400   .     A
C663   C667    1.419   .     A
C663   C688    1.483   .     S
C664   C668    1.420   .     A
C664   C670    1.409   .     A
C665   C674    1.420   .     A
C665   C667    1.419   .     A
C666   C668    1.420   .     A
C666   C675    1.420   .     A
C666   O780    1.383   .     S
C667   C679    1.488   .     S
C668   C678    1.489   .     S
C669   C671    1.420   .     A
C669   O710    1.383   .     S
C670   O709    1.380   .     S
C670   C673    1.420   .     A
C671   C676    1.423   .     A
C671   C674    1.419   .     A
C672   O718    1.295   .     A
C672   O721    1.293   .     A
C672   C687    1.427   .     S
C673   C675    1.421   .     A
C673   C677    1.426   .     A
C674   C90     1.418   1_556 S
C676   C683    1.419   .     A
C676   C83     1.402   1_556 S
C677   C682    1.422   .     A
C678   H702    1.085   .     S
C678   O777    1.221   .     S
C679   H703    1.082   .     S
C679   O712    1.221   .     D
C680   H695    1.081   .     S
C681   H696    1.081   .     S
C681   N772    1.412   .     S
C681   O785    1.219   .     S
C682   O715    1.383   .     S
C682   C684    1.412   .     A
C683   C685    1.411   .     A
C683   O716    1.380   .     S
C684   O726    1.384   .     S
C685   C81     1.420   1_556 S
C685   O774    1.384   .     S
C686   C885    1.330   .     S
C686   H889    1.086   .     S
C687   C1082   1.330   1_545 S
C687   H1093   1.085   1_545 S
C688   O724    1.308   .     A
C688   O722    1.305   .     A
Cu689  N706    2.034   .     S
Cu689  Cu690   2.707   .     S
Cu689  O707    1.952   .     S
Cu689  O725    1.910   .     S
Cu689  O721    1.948   .     S
Cu689  O722    1.918   .     S
Cu690  O724    1.910   .     S
Cu690  N705    2.034   .     S
Cu690  O723    1.918   .     S
Cu690  O718    1.952   .     S
Cu690  O720    1.948   .     S
H691   C1082   1.086   1_545 S
H692   O714    0.989   .     S
H693   O715    0.991   .     S
H694   O716    0.991   .     S
H697   C885    1.085   .     S
H698   O726    0.990   .     S
H699   O708    0.990   .     S
H700   O709    0.991   .     S
H701   O710    0.991   .     S
H704   O713    0.991   .     S
N705   C746    1.411   .     S
N705   N772    1.285   .     S
O713   C731    1.383   .     S
O717   C746    1.218   .     S
C727   C752    1.427   .     S
C727   O786    1.293   .     A
C727   O773    1.296   .     A
C728   C730    1.496   .     S
C728   O791    1.311   .     A
C728   O789    1.309   .     A
C729   C735    1.400   .     A
C729   C733    1.419   .     A
C729   C754    1.483   .     S
C730   C734    1.420   .     A
C730   C736    1.409   .     A
C731   C740    1.420   .     A
C731   C733    1.419   .     A
C732   C734    1.420   .     A
C732   C741    1.420   .     A
C732   O648    1.383   1_655 S
C733   C745    1.488   .     S
C734   C744    1.489   .     S
C735   C737    1.420   .     A
C735   O776    1.383   .     S
C736   O775    1.380   .     S
C736   C739    1.420   .     A
C737   C742    1.423   .     A
C737   C740    1.419   .     A
C738   O784    1.295   .     A
C738   O787    1.293   .     A
C738   C753    1.427   .     S
C739   C741    1.421   .     A
C739   C743    1.426   .     A
C740   C156    1.418   1_556 S
C742   C749    1.419   .     A
C742   C149    1.402   1_556 S
C743   C748    1.422   .     A
C744   H768    1.085   .     S
C744   O645    1.221   1_655 S
C745   H769    1.082   .     S
C745   O778    1.221   .     D
C746   H761    1.081   .     S
C747   H762    1.081   .     S
C747   N640    1.412   1_655 S
C747   O653    1.219   1_655 S
C748   O781    1.383   .     S
C748   C750    1.412   .     A
C749   C751    1.411   .     A
C749   O782    1.380   .     S
C750   O792    1.384   .     S
C751   C147    1.420   1_556 S
C751   O642    1.384   1_655 S
C752   C951    1.330   .     S
C752   H955    1.086   .     S
C753   C1148   1.330   1_545 S
C753   H1159   1.085   1_545 S
C754   O790    1.308   .     A
C754   O788    1.305   .     A
Cu755  N772    2.034   .     S
Cu755  Cu756   2.707   .     S
Cu755  O773    1.952   .     S
Cu755  O791    1.910   .     S
Cu755  O787    1.948   .     S
Cu755  O788    1.918   .     S
Cu756  O790    1.910   .     S
Cu756  N771    2.034   .     S
Cu756  O789    1.918   .     S
Cu756  O784    1.952   .     S
Cu756  O786    1.948   .     S
H757   C1148   1.086   1_545 S
H758   O780    0.989   .     S
H759   O781    0.991   .     S
H760   O782    0.991   .     S
H763   C951    1.085   .     S
H764   O792    0.990   .     S
H765   O774    0.990   .     S
H766   O775    0.991   .     S
H767   O776    0.991   .     S
H770   O779    0.991   .     S
N771   C614    1.411   1_655 S
N771   N640    1.285   1_655 S
O779   C599    1.383   1_655 S
O783   C614    1.218   1_655 S
C793   C818    1.427   .     S
C793   O852    1.293   .     A
C793   O839    1.296   .     A
C794   C796    1.496   .     S
C794   O857    1.311   .     A
C794   O855    1.309   .     A
C795   C801    1.400   .     A
C795   C799    1.419   .     A
C795   C820    1.483   .     S
C796   C800    1.420   .     A
C796   C802    1.409   .     A
C797   C806    1.420   .     A
C797   C799    1.419   .     A
C797   O977    1.383   1_455 S
C798   C800    1.420   .     A
C798   C807    1.420   .     A
C798   O912    1.383   .     S
C799   C811    1.488   .     S
C800   C810    1.489   .     S
C801   C803    1.420   .     A
C801   O842    1.383   .     S
C802   O841    1.380   .     S
C802   C805    1.420   .     A
C803   C808    1.423   .     A
C803   C806    1.419   .     A
C804   O850    1.295   .     A
C804   O853    1.293   .     A
C804   C819    1.427   .     S
C805   C807    1.421   .     A
C805   C809    1.426   .     A
C806   C222    1.418   1_556 S
C808   C815    1.419   .     A
C808   C215    1.402   1_556 S
C809   C814    1.422   .     A
C810   H834    1.085   .     S
C810   O909    1.221   .     S
C811   H835    1.082   .     S
C811   O844    1.221   .     D
C812   H827    1.081   .     S
C812   N969    1.411   1_455 S
C812   O981    1.218   1_455 S
C813   H828    1.081   .     S
C813   N904    1.412   .     S
C813   O917    1.219   .     S
C814   O847    1.383   .     S
C814   C816    1.412   .     A
C815   C817    1.411   .     A
C815   O848    1.380   .     S
C816   O858    1.384   .     S
C817   C213    1.420   1_556 S
C817   O906    1.384   .     S
C818   C1017   1.330   .     S
C818   H1021   1.086   .     S
C820   O856    1.308   .     A
C820   O854    1.305   .     A
Cu821  N838    2.034   .     S
Cu821  Cu822   2.707   .     S
Cu821  O839    1.952   .     S
Cu821  O857    1.910   .     S
Cu821  O853    1.948   .     S
Cu821  O854    1.918   .     S
Cu822  O856    1.910   .     S
Cu822  N837    2.034   .     S
Cu822  O855    1.918   .     S
Cu822  O850    1.952   .     S
Cu822  O852    1.948   .     S
H824   O846    0.989   .     S
H825   O847    0.991   .     S
H826   O848    0.991   .     S
H829   C1017   1.085   .     S
H830   O858    0.990   .     S
H831   O840    0.990   .     S
H832   O841    0.991   .     S
H833   O842    0.991   .     S
H836   O845    0.991   .     S
N837   C878    1.411   .     S
N837   N904    1.285   .     S
N838   C945    1.412   1_455 S
N838   N969    1.285   1_455 S
O840   C949    1.384   1_455 S
O843   C942    1.221   1_455 S
O845   C863    1.383   .     S
O846   C930    1.383   1_455 S
O849   C878    1.218   .     S
O851   C945    1.219   1_455 S
C859   C884    1.427   .     S
C859   O918    1.293   .     A
C859   O905    1.296   .     A
C860   C862    1.496   .     S
C860   O923    1.311   .     A
C860   O921    1.309   .     A
C861   C867    1.400   .     A
C861   C865    1.419   .     A
C861   C886    1.483   .     S
C862   C866    1.420   .     A
C862   C868    1.409   .     A
C863   C872    1.420   .     A
C863   C865    1.419   .     A
C864   C866    1.420   .     A
C864   C873    1.420   .     A
C864   O978    1.383   .     S
C865   C877    1.488   .     S
C866   C876    1.489   .     S
C867   C869    1.420   .     A
C867   O908    1.383   .     S
C868   O907    1.380   .     S
C868   C871    1.420   .     A
C869   C874    1.423   .     A
C869   C872    1.419   .     A
C870   O916    1.295   .     A
C870   O919    1.293   .     A
C870   C885    1.427   .     S
C871   C873    1.421   .     A
C871   C875    1.426   .     A
C872   C288    1.418   1_556 S
C874   C881    1.419   .     A
C874   C281    1.402   1_556 S
C875   C880    1.422   .     A
C876   H900    1.085   .     S
C876   O975    1.221   .     S
C877   H901    1.082   .     S
C877   O910    1.221   .     D
C878   H893    1.081   .     S
C879   H894    1.081   .     S
C879   N970    1.412   .     S
C879   O983    1.219   .     S
C880   O913    1.383   .     S
C880   C882    1.412   .     A
C881   C883    1.411   .     A
C881   O914    1.380   .     S
C882   O924    1.384   .     S
C883   C279    1.420   1_556 S
C883   O972    1.384   .     S
C884   C1083   1.330   .     S
C884   H1087   1.086   .     S
C886   O922    1.308   .     A
C886   O920    1.305   .     A
Cu887  N904    2.034   .     S
Cu887  Cu888   2.707   .     S
Cu887  O905    1.952   .     S
Cu887  O923    1.910   .     S
Cu887  O919    1.948   .     S
Cu887  O920    1.918   .     S
Cu888  O922    1.910   .     S
Cu888  N903    2.034   .     S
Cu888  O921    1.918   .     S
Cu888  O916    1.952   .     S
Cu888  O918    1.948   .     S
H890   O912    0.989   .     S
H891   O913    0.991   .     S
H892   O914    0.991   .     S
H895   C1083   1.085   .     S
H896   O924    0.990   .     S
H897   O906    0.990   .     S
H898   O907    0.991   .     S
H899   O908    0.991   .     S
H902   O911    0.991   .     S
N903   C944    1.411   .     S
N903   N970    1.285   .     S
O911   C929    1.383   .     S
O915   C944    1.218   .     S
C925   C950    1.427   .     S
C925   O984    1.293   .     A
C925   O971    1.296   .     A
C926   C928    1.496   .     S
C926   O989    1.311   .     A
C926   O987    1.309   .     A
C927   C933    1.400   .     A
C927   C931    1.419   .     A
C927   C952    1.483   .     S
C928   C932    1.420   .     A
C928   C934    1.409   .     A
C929   C938    1.420   .     A
C929   C931    1.419   .     A
C930   C932    1.420   .     A
C930   C939    1.420   .     A
C930   O846    1.383   1_655 S
C931   C943    1.488   .     S
C932   C942    1.489   .     S
C933   C935    1.420   .     A
C933   O974    1.383   .     S
C934   O973    1.380   .     S
C934   C937    1.420   .     A
C935   C940    1.423   .     A
C935   C938    1.419   .     A
C936   O982    1.295   .     A
C936   O985    1.293   .     A
C936   C951    1.427   .     S
C937   C939    1.421   .     A
C937   C941    1.426   .     A
C938   C354    1.418   1_556 S
C940   C947    1.419   .     A
C940   C347    1.402   1_556 S
C941   C946    1.422   .     A
C942   H966    1.085   .     S
C942   O843    1.221   1_655 S
C943   H967    1.082   .     S
C943   O976    1.221   .     D
C944   H959    1.081   .     S
C945   H960    1.081   .     S
C945   N838    1.412   1_655 S
C945   O851    1.219   1_655 S
C946   O979    1.383   .     S
C946   C948    1.412   .     A
C947   C949    1.411   .     A
C947   O980    1.380   .     S
C948   O990    1.384   .     S
C949   C345    1.420   1_556 S
C949   O840    1.384   1_655 S
C950   C1149   1.330   .     S
C950   H1153   1.086   .     S
C952   O988    1.308   .     A
C952   O986    1.305   .     A
Cu953  N970    2.034   .     S
Cu953  Cu954   2.707   .     S
Cu953  O971    1.952   .     S
Cu953  O989    1.910   .     S
Cu953  O985    1.948   .     S
Cu953  O986    1.918   .     S
Cu954  O988    1.910   .     S
Cu954  N969    2.034   .     S
Cu954  O987    1.918   .     S
Cu954  O982    1.952   .     S
Cu954  O984    1.948   .     S
H956   O978    0.989   .     S
H957   O979    0.991   .     S
H958   O980    0.991   .     S
H961   C1149   1.085   .     S
H962   O990    0.990   .     S
H963   O972    0.990   .     S
H964   O973    0.991   .     S
H965   O974    0.991   .     S
H968   O977    0.991   .     S
N969   C812    1.411   1_655 S
N969   N838    1.285   1_655 S
O977   C797    1.383   1_655 S
O981   C812    1.218   1_655 S
C991   C1016   1.427   .     S
C991   O1050   1.293   .     A
C991   O1037   1.296   .     A
C992   C994    1.496   .     S
C992   O1055   1.311   .     A
C992   O1053   1.309   .     A
C993   C999    1.400   .     A
C993   C997    1.419   .     A
C993   C1018   1.483   .     S
C994   C998    1.420   .     A
C994   C1000   1.409   .     A
C995   C1004   1.420   .     A
C995   C997    1.419   .     A
C995   O1175   1.383   1_455 S
C996   C998    1.420   .     A
C996   C1005   1.420   .     A
C996   O1110   1.383   .     S
C997   C1009   1.488   .     S
C998   C1008   1.489   .     S
C999   C1001   1.420   .     A
C999   O1040   1.383   .     S
C1000  O1039   1.380   .     S
C1000  C1003   1.420   .     A
C1001  C1006   1.423   .     A
C1001  C1004   1.419   .     A
C1002  O1048   1.295   .     A
C1002  O1051   1.293   .     A
C1002  C1017   1.427   .     S
C1003  C1005   1.421   .     A
C1003  C1007   1.426   .     A
C1004  C420    1.418   1_556 S
C1006  C1013   1.419   .     A
C1006  C413    1.402   1_556 S
C1007  C1012   1.422   .     A
C1008  H1032   1.085   .     S
C1008  O1107   1.221   .     S
C1009  H1033   1.082   .     S
C1009  O1042   1.221   .     D
C1010  H1025   1.081   .     S
C1010  N1167   1.411   1_455 S
C1010  O1179   1.218   1_455 S
C1011  H1026   1.081   .     S
C1011  N1102   1.412   .     S
C1011  O1115   1.219   .     S
C1012  O1045   1.383   .     S
C1012  C1014   1.412   .     A
C1013  C1015   1.411   .     A
C1013  O1046   1.380   .     S
C1014  O1056   1.384   .     S
C1015  C411    1.420   1_556 S
C1015  O1104   1.384   .     S
C1016  C621    1.330   1_565 S
C1016  H625    1.086   1_565 S
C1018  O1054   1.308   .     A
C1018  O1052   1.305   .     A
Cu1019 N1036   2.034   .     S
Cu1019 Cu1020  2.707   .     S
Cu1019 O1037   1.952   .     S
Cu1019 O1055   1.910   .     S
Cu1019 O1051   1.948   .     S
Cu1019 O1052   1.918   .     S
Cu1020 O1054   1.910   .     S
Cu1020 N1035   2.034   .     S
Cu1020 O1053   1.918   .     S
Cu1020 O1048   1.952   .     S
Cu1020 O1050   1.948   .     S
H1022  O1044   0.989   .     S
H1023  O1045   0.991   .     S
H1024  O1046   0.991   .     S
H1027  C621    1.085   1_565 S
H1028  O1056   0.990   .     S
H1029  O1038   0.990   .     S
H1030  O1039   0.991   .     S
H1031  O1040   0.991   .     S
H1034  O1043   0.991   .     S
N1035  C1076   1.411   .     S
N1035  N1102   1.285   .     S
N1036  C1143   1.412   1_455 S
N1036  N1167   1.285   1_455 S
O1038  C1147   1.384   1_455 S
O1041  C1140   1.221   1_455 S
O1043  C1061   1.383   .     S
O1044  C1128   1.383   1_455 S
O1047  C1076   1.218   .     S
O1049  C1143   1.219   1_455 S
C1057  C1082   1.427   .     S
C1057  O1116   1.293   .     A
C1057  O1103   1.296   .     A
C1058  C1060   1.496   .     S
C1058  O1121   1.311   .     A
C1058  O1119   1.309   .     A
C1059  C1065   1.400   .     A
C1059  C1063   1.419   .     A
C1059  C1084   1.483   .     S
C1060  C1064   1.420   .     A
C1060  C1066   1.409   .     A
C1061  C1070   1.420   .     A
C1061  C1063   1.419   .     A
C1062  C1064   1.420   .     A
C1062  C1071   1.420   .     A
C1062  O1176   1.383   .     S
C1063  C1075   1.488   .     S
C1064  C1074   1.489   .     S
C1065  C1067   1.420   .     A
C1065  O1106   1.383   .     S
C1066  O1105   1.380   .     S
C1066  C1069   1.420   .     A
C1067  C1072   1.423   .     A
C1067  C1070   1.419   .     A
C1068  O1114   1.295   .     A
C1068  O1117   1.293   .     A
C1068  C1083   1.427   .     S
C1069  C1071   1.421   .     A
C1069  C1073   1.426   .     A
C1070  C486    1.418   1_556 S
C1072  C1079   1.419   .     A
C1072  C479    1.402   1_556 S
C1073  C1078   1.422   .     A
C1074  H1098   1.085   .     S
C1074  O1173   1.221   .     S
C1075  H1099   1.082   .     S
C1075  O1108   1.221   .     D
C1076  H1091   1.081   .     S
C1077  H1092   1.081   .     S
C1077  N1168   1.412   .     S
C1077  O1181   1.219   .     S
C1078  O1111   1.383   .     S
C1078  C1080   1.412   .     A
C1079  C1081   1.411   .     A
C1079  O1112   1.380   .     S
C1080  O1122   1.384   .     S
C1081  C477    1.420   1_556 S
C1081  O1170   1.384   .     S
C1082  C687    1.330   1_565 S
C1082  H691    1.086   1_565 S
C1084  O1120   1.308   .     A
C1084  O1118   1.305   .     A
Cu1085 N1102   2.034   .     S
Cu1085 Cu1086  2.707   .     S
Cu1085 O1103   1.952   .     S
Cu1085 O1121   1.910   .     S
Cu1085 O1117   1.948   .     S
Cu1085 O1118   1.918   .     S
Cu1086 O1120   1.910   .     S
Cu1086 N1101   2.034   .     S
Cu1086 O1119   1.918   .     S
Cu1086 O1114   1.952   .     S
Cu1086 O1116   1.948   .     S
H1088  O1110   0.989   .     S
H1089  O1111   0.991   .     S
H1090  O1112   0.991   .     S
H1093  C687    1.085   1_565 S
H1094  O1122   0.990   .     S
H1095  O1104   0.990   .     S
H1096  O1105   0.991   .     S
H1097  O1106   0.991   .     S
H1100  O1109   0.991   .     S
N1101  C1142   1.411   .     S
N1101  N1168   1.285   .     S
O1109  C1127   1.383   .     S
O1113  C1142   1.218   .     S
C1123  C1148   1.427   .     S
C1123  O1182   1.293   .     A
C1123  O1169   1.296   .     A
C1124  C1126   1.496   .     S
C1124  O1187   1.311   .     A
C1124  O1185   1.309   .     A
C1125  C1131   1.400   .     A
C1125  C1129   1.419   .     A
C1125  C1150   1.483   .     S
C1126  C1130   1.420   .     A
C1126  C1132   1.409   .     A
C1127  C1136   1.420   .     A
C1127  C1129   1.419   .     A
C1128  C1130   1.420   .     A
C1128  C1137   1.420   .     A
C1128  O1044   1.383   1_655 S
C1129  C1141   1.488   .     S
C1130  C1140   1.489   .     S
C1131  C1133   1.420   .     A
C1131  O1172   1.383   .     S
C1132  O1171   1.380   .     S
C1132  C1135   1.420   .     A
C1133  C1138   1.423   .     A
C1133  C1136   1.419   .     A
C1134  O1180   1.295   .     A
C1134  O1183   1.293   .     A
C1134  C1149   1.427   .     S
C1135  C1137   1.421   .     A
C1135  C1139   1.426   .     A
C1136  C552    1.418   1_556 S
C1138  C1145   1.419   .     A
C1138  C545    1.402   1_556 S
C1139  C1144   1.422   .     A
C1140  H1164   1.085   .     S
C1140  O1041   1.221   1_655 S
C1141  H1165   1.082   .     S
C1141  O1174   1.221   .     D
C1142  H1157   1.081   .     S
C1143  H1158   1.081   .     S
C1143  N1036   1.412   1_655 S
C1143  O1049   1.219   1_655 S
C1144  O1177   1.383   .     S
C1144  C1146   1.412   .     A
C1145  C1147   1.411   .     A
C1145  O1178   1.380   .     S
C1146  O1188   1.384   .     S
C1147  C543    1.420   1_556 S
C1147  O1038   1.384   1_655 S
C1148  C753    1.330   1_565 S
C1148  H757    1.086   1_565 S
C1150  O1186   1.308   .     A
C1150  O1184   1.305   .     A
Cu1151 N1168   2.034   .     S
Cu1151 Cu1152  2.707   .     S
Cu1151 O1169   1.952   .     S
Cu1151 O1187   1.910   .     S
Cu1151 O1183   1.948   .     S
Cu1151 O1184   1.918   .     S
Cu1152 O1186   1.910   .     S
Cu1152 N1167   2.034   .     S
Cu1152 O1185   1.918   .     S
Cu1152 O1180   1.952   .     S
Cu1152 O1182   1.948   .     S
H1154  O1176   0.989   .     S
H1155  O1177   0.991   .     S
H1156  O1178   0.991   .     S
H1159  C753    1.085   1_565 S
H1160  O1188   0.990   .     S
H1161  O1170   0.990   .     S
H1162  O1171   0.991   .     S
H1163  O1172   0.991   .     S
H1166  O1175   0.991   .     S
N1167  C1010   1.411   1_655 S
N1167  N1036   1.285   1_655 S
O1175  C995    1.383   1_655 S
O1179  C1010   1.218   1_655 S
