data_str_m2_o1_o16_pcu_sym.10
_audit_creation_date              2020-01-03
_audit_creation_method            'Materials Studio'
_symmetry_space_group_name_H-M    'P1'
_symmetry_Int_Tables_number       1
_symmetry_cell_setting            triclinic
loop_
_symmetry_equiv_pos_as_xyz
  x,y,z
_cell_length_a                    28.5727
_cell_length_b                    32.4213
_cell_length_c                    26.8856
_cell_angle_alpha                 90.5893
_cell_angle_beta                  72.4141
_cell_angle_gamma                 89.8089
loop_
_atom_site_label
_atom_site_type_symbol
_atom_site_fract_x
_atom_site_fract_y
_atom_site_fract_z
_atom_site_U_iso_or_equiv
_atom_site_adp_type
_atom_site_occupancy
C1     C     0.16617   0.24591   0.25155   0.00000  Uiso   1.00
C2     C     0.12372   0.16220   0.40810   0.00000  Uiso   1.00
C3     C     0.20597   0.31164   0.22260   0.00000  Uiso   1.00
C4     C     0.14026   0.16464   0.35026   0.00000  Uiso   1.00
C5     C     0.20616   0.02093   0.22250   0.00000  Uiso   1.00
C6     C     0.16565   0.04295   0.25378   0.00000  Uiso   1.00
C7     C     0.12516   0.02231   0.28738   0.00000  Uiso   1.00
C8     C     0.12512   0.31243   0.28771   0.00000  Uiso   1.00
C9     C     0.16536   0.29059   0.25412   0.00000  Uiso   1.00
C10    C     0.29891   0.19143   0.28405   0.00000  Uiso   1.00
C11    C     0.01521   0.19103   0.28409   0.00000  Uiso   1.00
C12    C     0.14457   0.15910   0.49014   0.00000  Uiso   1.00
C13    C     0.03451   0.14211   0.21595   0.00000  Uiso   1.00
C14    C     0.31824   0.14206   0.21603   0.00000  Uiso   1.00
C15    C     0.16643   0.08748   0.25097   0.00000  Uiso   1.00
C16    C     0.19296   0.16588   0.14996   0.00000  Uiso   1.00
C17    C     0.26297   0.13057   0.01410   0.00000  Uiso   1.00
C18    C     0.20798   0.16002   0.09330   0.00000  Uiso   1.00
C19    C     0.07512   0.17419   0.43666   0.00000  Uiso   1.00
C20    C     0.06152   0.17710   0.49087   0.00000  Uiso   1.00
C21    C     0.09574   0.17083   0.01719   0.00000  Uiso   1.00
C22    C     0.08482   0.04529   0.32296   0.00000  Uiso   1.00
C23    C     0.15695   0.15052   0.43585   0.00000  Uiso   1.00
C24    C     0.08521   0.29104   0.32457   0.00000  Uiso   1.00
C25    C     0.18111   0.15441   0.01570   0.00000  Uiso   1.00
C26    C     0.22710   0.13622   0.48874   0.00000  Uiso   1.00
C27    C     0.23624   0.12291   0.43726   0.00000  Uiso   1.00
C28    C     0.20160   0.12953   0.41137   0.00000  Uiso   1.00
C29    C     0.17335   0.16765   0.06736   0.00000  Uiso   1.00
C30    C     0.25333   0.14216   0.06631   0.00000  Uiso   1.00
Cu31   Cu    0.11978   0.16666   0.25000   0.00000  Uiso   1.00
Cu32   Cu    0.21355   0.16667   0.25000   0.00000  Uiso   1.00
H33    H     0.28050   0.13582   0.08597   0.00000  Uiso   1.00
H34    H     0.02423   0.18561   0.01277   0.00000  Uiso   1.00
H35    H     0.20982   0.11640   0.37260   0.00000  Uiso   1.00
H36    H     0.23720   0.29499   0.19720   0.00000  Uiso   1.00
H37    H     0.26383   0.21044   0.35751   0.00000  Uiso   1.00
H38    H     0.27693   0.24830   0.31277   0.00000  Uiso   1.00
H39    H     0.02469   0.21297   0.42344   0.00000  Uiso   1.00
H40    H     0.01059   0.16250   0.42314   0.00000  Uiso   1.00
H41    H     0.23750   0.03679   0.19704   0.00000  Uiso   1.00
H42    H     0.02631   0.21030   0.31141   0.00000  Uiso   1.00
H43    H     0.06097   0.12239   0.18869   0.00000  Uiso   1.00
H44    H     0.30733   0.12234   0.18882   0.00000  Uiso   1.00
H45    H     0.27037   0.10733   0.41683   0.00000  Uiso   1.00
H46    H     0.29793   0.11615   0.49398   0.00000  Uiso   1.00
H47    H     0.14035   0.18396   0.08865   0.00000  Uiso   1.00
H48    H     0.08222   0.17388   0.05908   0.00000  Uiso   1.00
N49    N     0.04931   0.16666   0.24999   0.00000  Uiso   1.00
N50    N     0.28402   0.16669   0.25000   0.00000  Uiso   1.00
N51    N     0.05273   0.06363   0.35130   0.00000  Uiso   1.00
N52    N     0.05322   0.27449   0.35443   0.00000  Uiso   1.00
N53    N     0.26433   0.21803   0.31964   0.00000  Uiso   1.00
N54    N     0.03917   0.18367   0.41103   0.00000  Uiso   1.00
O55    O     0.12708   0.22678   0.25001   0.00000  Uiso   1.00
O56    O     0.20627   0.22679   0.25001   0.00000  Uiso   1.00
O57    O     0.10775   0.16665   0.32549   0.00000  Uiso   1.00
O58    O     0.18694   0.16666   0.32549   0.00000  Uiso   1.00
O59    O     0.12706   0.10654   0.25000   0.00000  Uiso   1.00
O60    O     0.20625   0.10655   0.25000   0.00000  Uiso   1.00
O61    O     0.14640   0.16667   0.17451   0.00000  Uiso   1.00
O62    O     0.22559   0.16668   0.17451   0.00000  Uiso   1.00
C63    C     0.49950   0.24591   0.25155   0.00000  Uiso   1.00
C64    C     0.45705   0.16220   0.40810   0.00000  Uiso   1.00
C65    C     0.53930   0.31164   0.22260   0.00000  Uiso   1.00
C66    C     0.47360   0.16464   0.35026   0.00000  Uiso   1.00
C67    C     0.53949   0.02093   0.22250   0.00000  Uiso   1.00
C68    C     0.49898   0.04295   0.25378   0.00000  Uiso   1.00
C69    C     0.45849   0.02231   0.28738   0.00000  Uiso   1.00
C70    C     0.45845   0.31243   0.28771   0.00000  Uiso   1.00
C71    C     0.49869   0.29059   0.25412   0.00000  Uiso   1.00
C72    C     0.63224   0.19143   0.28405   0.00000  Uiso   1.00
C73    C     0.34855   0.19103   0.28409   0.00000  Uiso   1.00
C74    C     0.47790   0.15910   0.49014   0.00000  Uiso   1.00
C75    C     0.36785   0.14211   0.21595   0.00000  Uiso   1.00
C76    C     0.65157   0.14206   0.21603   0.00000  Uiso   1.00
C77    C     0.49977   0.08748   0.25097   0.00000  Uiso   1.00
C78    C     0.52629   0.16588   0.14996   0.00000  Uiso   1.00
C79    C     0.59630   0.13057   0.01410   0.00000  Uiso   1.00
C80    C     0.54131   0.16002   0.09330   0.00000  Uiso   1.00
C81    C     0.40846   0.17419   0.43666   0.00000  Uiso   1.00
C82    C     0.39486   0.17710   0.49087   0.00000  Uiso   1.00
C83    C     0.42908   0.17083   0.01719   0.00000  Uiso   1.00
C84    C     0.41815   0.04529   0.32296   0.00000  Uiso   1.00
C85    C     0.49028   0.15052   0.43585   0.00000  Uiso   1.00
C86    C     0.41855   0.29104   0.32457   0.00000  Uiso   1.00
C87    C     0.51444   0.15441   0.01570   0.00000  Uiso   1.00
C88    C     0.56044   0.13622   0.48874   0.00000  Uiso   1.00
C89    C     0.56957   0.12291   0.43726   0.00000  Uiso   1.00
C90    C     0.53493   0.12953   0.41137   0.00000  Uiso   1.00
C91    C     0.50668   0.16765   0.06736   0.00000  Uiso   1.00
C92    C     0.58666   0.14216   0.06631   0.00000  Uiso   1.00
Cu93   Cu    0.45311   0.16666   0.25000   0.00000  Uiso   1.00
Cu94   Cu    0.54689   0.16667   0.25000   0.00000  Uiso   1.00
H95    H     0.61383   0.13582   0.08597   0.00000  Uiso   1.00
H96    H     0.35756   0.18561   0.01277   0.00000  Uiso   1.00
H97    H     0.54315   0.11640   0.37260   0.00000  Uiso   1.00
H98    H     0.57054   0.29499   0.19720   0.00000  Uiso   1.00
H99    H     0.59717   0.21044   0.35751   0.00000  Uiso   1.00
H100   H     0.61026   0.24830   0.31277   0.00000  Uiso   1.00
H101   H     0.35802   0.21297   0.42344   0.00000  Uiso   1.00
H102   H     0.34392   0.16250   0.42314   0.00000  Uiso   1.00
H103   H     0.57084   0.03679   0.19704   0.00000  Uiso   1.00
H104   H     0.35964   0.21030   0.31141   0.00000  Uiso   1.00
H105   H     0.39431   0.12239   0.18869   0.00000  Uiso   1.00
H106   H     0.64066   0.12234   0.18882   0.00000  Uiso   1.00
H107   H     0.60371   0.10733   0.41683   0.00000  Uiso   1.00
H108   H     0.63127   0.11615   0.49398   0.00000  Uiso   1.00
H109   H     0.47368   0.18396   0.08865   0.00000  Uiso   1.00
H110   H     0.41555   0.17388   0.05908   0.00000  Uiso   1.00
N111   N     0.38265   0.16666   0.24999   0.00000  Uiso   1.00
N112   N     0.61735   0.16669   0.25000   0.00000  Uiso   1.00
N113   N     0.38606   0.06363   0.35130   0.00000  Uiso   1.00
N114   N     0.38656   0.27449   0.35443   0.00000  Uiso   1.00
N115   N     0.59766   0.21803   0.31964   0.00000  Uiso   1.00
N116   N     0.37250   0.18367   0.41103   0.00000  Uiso   1.00
O117   O     0.46042   0.22678   0.25001   0.00000  Uiso   1.00
O118   O     0.53961   0.22679   0.25001   0.00000  Uiso   1.00
O119   O     0.44108   0.16665   0.32549   0.00000  Uiso   1.00
O120   O     0.52027   0.16666   0.32549   0.00000  Uiso   1.00
O121   O     0.46039   0.10654   0.25000   0.00000  Uiso   1.00
O122   O     0.53958   0.10655   0.25000   0.00000  Uiso   1.00
O123   O     0.47973   0.16667   0.17451   0.00000  Uiso   1.00
O124   O     0.55892   0.16668   0.17451   0.00000  Uiso   1.00
C125   C     0.83283   0.24591   0.25155   0.00000  Uiso   1.00
C126   C     0.79039   0.16220   0.40810   0.00000  Uiso   1.00
C127   C     0.87264   0.31164   0.22260   0.00000  Uiso   1.00
C128   C     0.80693   0.16464   0.35026   0.00000  Uiso   1.00
C129   C     0.87282   0.02093   0.22250   0.00000  Uiso   1.00
C130   C     0.83232   0.04295   0.25378   0.00000  Uiso   1.00
C131   C     0.79183   0.02231   0.28738   0.00000  Uiso   1.00
C132   C     0.79179   0.31243   0.28771   0.00000  Uiso   1.00
C133   C     0.83203   0.29059   0.25412   0.00000  Uiso   1.00
C134   C     0.96557   0.19143   0.28405   0.00000  Uiso   1.00
C135   C     0.68188   0.19103   0.28409   0.00000  Uiso   1.00
C136   C     0.81123   0.15910   0.49014   0.00000  Uiso   1.00
C137   C     0.70118   0.14211   0.21595   0.00000  Uiso   1.00
C138   C     0.98490   0.14206   0.21603   0.00000  Uiso   1.00
C139   C     0.83310   0.08748   0.25097   0.00000  Uiso   1.00
C140   C     0.85963   0.16588   0.14996   0.00000  Uiso   1.00
C141   C     0.92964   0.13057   0.01410   0.00000  Uiso   1.00
C142   C     0.87464   0.16002   0.09330   0.00000  Uiso   1.00
C143   C     0.74179   0.17419   0.43666   0.00000  Uiso   1.00
C144   C     0.72819   0.17710   0.49087   0.00000  Uiso   1.00
C145   C     0.76241   0.17083   0.01719   0.00000  Uiso   1.00
C146   C     0.75149   0.04529   0.32296   0.00000  Uiso   1.00
C147   C     0.82361   0.15052   0.43585   0.00000  Uiso   1.00
C148   C     0.75188   0.29104   0.32457   0.00000  Uiso   1.00
C149   C     0.84777   0.15441   0.01570   0.00000  Uiso   1.00
C150   C     0.89377   0.13622   0.48874   0.00000  Uiso   1.00
C151   C     0.90290   0.12291   0.43726   0.00000  Uiso   1.00
C152   C     0.86827   0.12953   0.41137   0.00000  Uiso   1.00
C153   C     0.84002   0.16765   0.06736   0.00000  Uiso   1.00
C154   C     0.92000   0.14216   0.06631   0.00000  Uiso   1.00
Cu155  Cu    0.78645   0.16666   0.25000   0.00000  Uiso   1.00
Cu156  Cu    0.88022   0.16667   0.25000   0.00000  Uiso   1.00
H157   H     0.94716   0.13582   0.08597   0.00000  Uiso   1.00
H158   H     0.69089   0.18561   0.01277   0.00000  Uiso   1.00
H159   H     0.87648   0.11640   0.37260   0.00000  Uiso   1.00
H160   H     0.90387   0.29499   0.19720   0.00000  Uiso   1.00
H161   H     0.93050   0.21044   0.35751   0.00000  Uiso   1.00
H162   H     0.94359   0.24830   0.31277   0.00000  Uiso   1.00
H163   H     0.69136   0.21297   0.42344   0.00000  Uiso   1.00
H164   H     0.67726   0.16250   0.42314   0.00000  Uiso   1.00
H165   H     0.90417   0.03679   0.19704   0.00000  Uiso   1.00
H166   H     0.69298   0.21030   0.31141   0.00000  Uiso   1.00
H167   H     0.72764   0.12239   0.18869   0.00000  Uiso   1.00
H168   H     0.97400   0.12234   0.18882   0.00000  Uiso   1.00
H169   H     0.93704   0.10733   0.41683   0.00000  Uiso   1.00
H170   H     0.96460   0.11615   0.49398   0.00000  Uiso   1.00
H171   H     0.80701   0.18396   0.08865   0.00000  Uiso   1.00
H172   H     0.74888   0.17388   0.05908   0.00000  Uiso   1.00
N173   N     0.71598   0.16666   0.24999   0.00000  Uiso   1.00
N174   N     0.95069   0.16669   0.25000   0.00000  Uiso   1.00
N175   N     0.71939   0.06363   0.35130   0.00000  Uiso   1.00
N176   N     0.71989   0.27449   0.35443   0.00000  Uiso   1.00
N177   N     0.93100   0.21803   0.31964   0.00000  Uiso   1.00
N178   N     0.70584   0.18367   0.41103   0.00000  Uiso   1.00
O179   O     0.79375   0.22678   0.25001   0.00000  Uiso   1.00
O180   O     0.87294   0.22679   0.25001   0.00000  Uiso   1.00
O181   O     0.77441   0.16665   0.32549   0.00000  Uiso   1.00
O182   O     0.85360   0.16666   0.32549   0.00000  Uiso   1.00
O183   O     0.79373   0.10654   0.25000   0.00000  Uiso   1.00
O184   O     0.87292   0.10655   0.25000   0.00000  Uiso   1.00
O185   O     0.81306   0.16667   0.17451   0.00000  Uiso   1.00
O186   O     0.89225   0.16668   0.17451   0.00000  Uiso   1.00
C187   C     0.16617   0.57924   0.25155   0.00000  Uiso   1.00
C188   C     0.12372   0.49553   0.40810   0.00000  Uiso   1.00
C189   C     0.20597   0.64497   0.22260   0.00000  Uiso   1.00
C190   C     0.14026   0.49797   0.35026   0.00000  Uiso   1.00
C191   C     0.20616   0.35426   0.22250   0.00000  Uiso   1.00
C192   C     0.16565   0.37628   0.25378   0.00000  Uiso   1.00
C193   C     0.12516   0.35564   0.28738   0.00000  Uiso   1.00
C194   C     0.12512   0.64576   0.28771   0.00000  Uiso   1.00
C195   C     0.16536   0.62393   0.25412   0.00000  Uiso   1.00
C196   C     0.29891   0.52476   0.28405   0.00000  Uiso   1.00
C197   C     0.01521   0.52436   0.28409   0.00000  Uiso   1.00
C198   C     0.14457   0.49243   0.49014   0.00000  Uiso   1.00
C199   C     0.03451   0.47544   0.21595   0.00000  Uiso   1.00
C200   C     0.31824   0.47539   0.21603   0.00000  Uiso   1.00
C201   C     0.16643   0.42081   0.25097   0.00000  Uiso   1.00
C202   C     0.19296   0.49921   0.14996   0.00000  Uiso   1.00
C203   C     0.26297   0.46390   0.01410   0.00000  Uiso   1.00
C204   C     0.20798   0.49335   0.09330   0.00000  Uiso   1.00
C205   C     0.07512   0.50752   0.43666   0.00000  Uiso   1.00
C206   C     0.06152   0.51044   0.49087   0.00000  Uiso   1.00
C207   C     0.09574   0.50416   0.01719   0.00000  Uiso   1.00
C208   C     0.08482   0.37863   0.32296   0.00000  Uiso   1.00
C209   C     0.15695   0.48386   0.43585   0.00000  Uiso   1.00
C210   C     0.08521   0.62437   0.32457   0.00000  Uiso   1.00
C211   C     0.18111   0.48775   0.01570   0.00000  Uiso   1.00
C212   C     0.22710   0.46955   0.48874   0.00000  Uiso   1.00
C213   C     0.23624   0.45624   0.43726   0.00000  Uiso   1.00
C214   C     0.20160   0.46287   0.41137   0.00000  Uiso   1.00
C215   C     0.17335   0.50099   0.06736   0.00000  Uiso   1.00
C216   C     0.25333   0.47549   0.06631   0.00000  Uiso   1.00
Cu217  Cu    0.11978   0.49999   0.25000   0.00000  Uiso   1.00
Cu218  Cu    0.21355   0.50001   0.25000   0.00000  Uiso   1.00
H219   H     0.28050   0.46915   0.08597   0.00000  Uiso   1.00
H220   H     0.02423   0.51895   0.01277   0.00000  Uiso   1.00
H221   H     0.20982   0.44974   0.37260   0.00000  Uiso   1.00
H222   H     0.23720   0.62833   0.19720   0.00000  Uiso   1.00
H223   H     0.26383   0.54377   0.35751   0.00000  Uiso   1.00
H224   H     0.27693   0.58164   0.31277   0.00000  Uiso   1.00
H225   H     0.02469   0.54630   0.42344   0.00000  Uiso   1.00
H226   H     0.01059   0.49584   0.42314   0.00000  Uiso   1.00
H227   H     0.23750   0.37012   0.19704   0.00000  Uiso   1.00
H228   H     0.02631   0.54363   0.31141   0.00000  Uiso   1.00
H229   H     0.06097   0.45572   0.18869   0.00000  Uiso   1.00
H230   H     0.30733   0.45567   0.18882   0.00000  Uiso   1.00
H231   H     0.27037   0.44067   0.41683   0.00000  Uiso   1.00
H232   H     0.29793   0.44948   0.49398   0.00000  Uiso   1.00
H233   H     0.14035   0.51730   0.08865   0.00000  Uiso   1.00
H234   H     0.08222   0.50721   0.05908   0.00000  Uiso   1.00
N235   N     0.04931   0.49999   0.24999   0.00000  Uiso   1.00
N236   N     0.28402   0.50002   0.25000   0.00000  Uiso   1.00
N237   N     0.05273   0.39697   0.35130   0.00000  Uiso   1.00
N238   N     0.05322   0.60782   0.35443   0.00000  Uiso   1.00
N239   N     0.26433   0.55136   0.31964   0.00000  Uiso   1.00
N240   N     0.03917   0.51700   0.41103   0.00000  Uiso   1.00
O241   O     0.12708   0.56011   0.25001   0.00000  Uiso   1.00
O242   O     0.20627   0.56012   0.25001   0.00000  Uiso   1.00
O243   O     0.10775   0.49998   0.32549   0.00000  Uiso   1.00
O244   O     0.18694   0.49999   0.32549   0.00000  Uiso   1.00
O245   O     0.12706   0.43988   0.25000   0.00000  Uiso   1.00
O246   O     0.20625   0.43989   0.25000   0.00000  Uiso   1.00
O247   O     0.14640   0.50001   0.17451   0.00000  Uiso   1.00
O248   O     0.22559   0.50002   0.17451   0.00000  Uiso   1.00
C249   C     0.49950   0.57924   0.25155   0.00000  Uiso   1.00
C250   C     0.45705   0.49553   0.40810   0.00000  Uiso   1.00
C251   C     0.53930   0.64497   0.22260   0.00000  Uiso   1.00
C252   C     0.47360   0.49797   0.35026   0.00000  Uiso   1.00
C253   C     0.53949   0.35426   0.22250   0.00000  Uiso   1.00
C254   C     0.49898   0.37628   0.25378   0.00000  Uiso   1.00
C255   C     0.45849   0.35564   0.28738   0.00000  Uiso   1.00
C256   C     0.45845   0.64576   0.28771   0.00000  Uiso   1.00
C257   C     0.49869   0.62393   0.25412   0.00000  Uiso   1.00
C258   C     0.63224   0.52476   0.28405   0.00000  Uiso   1.00
C259   C     0.34855   0.52436   0.28409   0.00000  Uiso   1.00
C260   C     0.47790   0.49243   0.49014   0.00000  Uiso   1.00
C261   C     0.36785   0.47544   0.21595   0.00000  Uiso   1.00
C262   C     0.65157   0.47539   0.21603   0.00000  Uiso   1.00
C263   C     0.49977   0.42081   0.25097   0.00000  Uiso   1.00
C264   C     0.52629   0.49921   0.14996   0.00000  Uiso   1.00
C265   C     0.59630   0.46390   0.01410   0.00000  Uiso   1.00
C266   C     0.54131   0.49335   0.09330   0.00000  Uiso   1.00
C267   C     0.40846   0.50752   0.43666   0.00000  Uiso   1.00
C268   C     0.39486   0.51044   0.49087   0.00000  Uiso   1.00
C269   C     0.42908   0.50416   0.01719   0.00000  Uiso   1.00
C270   C     0.41815   0.37863   0.32296   0.00000  Uiso   1.00
C271   C     0.49028   0.48386   0.43585   0.00000  Uiso   1.00
C272   C     0.41855   0.62437   0.32457   0.00000  Uiso   1.00
C273   C     0.51444   0.48775   0.01570   0.00000  Uiso   1.00
C274   C     0.56044   0.46955   0.48874   0.00000  Uiso   1.00
C275   C     0.56957   0.45624   0.43726   0.00000  Uiso   1.00
C276   C     0.53493   0.46287   0.41137   0.00000  Uiso   1.00
C277   C     0.50668   0.50099   0.06736   0.00000  Uiso   1.00
C278   C     0.58666   0.47549   0.06631   0.00000  Uiso   1.00
Cu279  Cu    0.45311   0.49999   0.25000   0.00000  Uiso   1.00
Cu280  Cu    0.54689   0.50001   0.25000   0.00000  Uiso   1.00
H281   H     0.61383   0.46915   0.08597   0.00000  Uiso   1.00
H282   H     0.35756   0.51895   0.01277   0.00000  Uiso   1.00
H283   H     0.54315   0.44974   0.37260   0.00000  Uiso   1.00
H284   H     0.57054   0.62833   0.19720   0.00000  Uiso   1.00
H285   H     0.59717   0.54377   0.35751   0.00000  Uiso   1.00
H286   H     0.61026   0.58164   0.31277   0.00000  Uiso   1.00
H287   H     0.35802   0.54630   0.42344   0.00000  Uiso   1.00
H288   H     0.34392   0.49584   0.42314   0.00000  Uiso   1.00
H289   H     0.57084   0.37012   0.19704   0.00000  Uiso   1.00
H290   H     0.35964   0.54363   0.31141   0.00000  Uiso   1.00
H291   H     0.39431   0.45572   0.18869   0.00000  Uiso   1.00
H292   H     0.64066   0.45567   0.18882   0.00000  Uiso   1.00
H293   H     0.60371   0.44067   0.41683   0.00000  Uiso   1.00
H294   H     0.63127   0.44948   0.49398   0.00000  Uiso   1.00
H295   H     0.47368   0.51730   0.08865   0.00000  Uiso   1.00
H296   H     0.41555   0.50721   0.05908   0.00000  Uiso   1.00
N297   N     0.38265   0.49999   0.24999   0.00000  Uiso   1.00
N298   N     0.61735   0.50002   0.25000   0.00000  Uiso   1.00
N299   N     0.38606   0.39697   0.35130   0.00000  Uiso   1.00
N300   N     0.38656   0.60782   0.35443   0.00000  Uiso   1.00
N301   N     0.59766   0.55136   0.31964   0.00000  Uiso   1.00
N302   N     0.37250   0.51700   0.41103   0.00000  Uiso   1.00
O303   O     0.46042   0.56011   0.25001   0.00000  Uiso   1.00
O304   O     0.53961   0.56012   0.25001   0.00000  Uiso   1.00
O305   O     0.44108   0.49998   0.32549   0.00000  Uiso   1.00
O306   O     0.52027   0.49999   0.32549   0.00000  Uiso   1.00
O307   O     0.46039   0.43988   0.25000   0.00000  Uiso   1.00
O308   O     0.53958   0.43989   0.25000   0.00000  Uiso   1.00
O309   O     0.47973   0.50001   0.17451   0.00000  Uiso   1.00
O310   O     0.55892   0.50002   0.17451   0.00000  Uiso   1.00
C311   C     0.83283   0.57924   0.25155   0.00000  Uiso   1.00
C312   C     0.79039   0.49553   0.40810   0.00000  Uiso   1.00
C313   C     0.87264   0.64497   0.22260   0.00000  Uiso   1.00
C314   C     0.80693   0.49797   0.35026   0.00000  Uiso   1.00
C315   C     0.87282   0.35426   0.22250   0.00000  Uiso   1.00
C316   C     0.83232   0.37628   0.25378   0.00000  Uiso   1.00
C317   C     0.79183   0.35564   0.28738   0.00000  Uiso   1.00
C318   C     0.79179   0.64576   0.28771   0.00000  Uiso   1.00
C319   C     0.83203   0.62393   0.25412   0.00000  Uiso   1.00
C320   C     0.96557   0.52476   0.28405   0.00000  Uiso   1.00
C321   C     0.68188   0.52436   0.28409   0.00000  Uiso   1.00
C322   C     0.81123   0.49243   0.49014   0.00000  Uiso   1.00
C323   C     0.70118   0.47544   0.21595   0.00000  Uiso   1.00
C324   C     0.98490   0.47539   0.21603   0.00000  Uiso   1.00
C325   C     0.83310   0.42081   0.25097   0.00000  Uiso   1.00
C326   C     0.85963   0.49921   0.14996   0.00000  Uiso   1.00
C327   C     0.92964   0.46390   0.01410   0.00000  Uiso   1.00
C328   C     0.87464   0.49335   0.09330   0.00000  Uiso   1.00
C329   C     0.74179   0.50752   0.43666   0.00000  Uiso   1.00
C330   C     0.72819   0.51044   0.49087   0.00000  Uiso   1.00
C331   C     0.76241   0.50416   0.01719   0.00000  Uiso   1.00
C332   C     0.75149   0.37863   0.32296   0.00000  Uiso   1.00
C333   C     0.82361   0.48386   0.43585   0.00000  Uiso   1.00
C334   C     0.75188   0.62437   0.32457   0.00000  Uiso   1.00
C335   C     0.84777   0.48775   0.01570   0.00000  Uiso   1.00
C336   C     0.89377   0.46955   0.48874   0.00000  Uiso   1.00
C337   C     0.90290   0.45624   0.43726   0.00000  Uiso   1.00
C338   C     0.86827   0.46287   0.41137   0.00000  Uiso   1.00
C339   C     0.84002   0.50099   0.06736   0.00000  Uiso   1.00
C340   C     0.92000   0.47549   0.06631   0.00000  Uiso   1.00
Cu341  Cu    0.78645   0.49999   0.25000   0.00000  Uiso   1.00
Cu342  Cu    0.88022   0.50001   0.25000   0.00000  Uiso   1.00
H343   H     0.94716   0.46915   0.08597   0.00000  Uiso   1.00
H344   H     0.69089   0.51895   0.01277   0.00000  Uiso   1.00
H345   H     0.87648   0.44974   0.37260   0.00000  Uiso   1.00
H346   H     0.90387   0.62833   0.19720   0.00000  Uiso   1.00
H347   H     0.93050   0.54377   0.35751   0.00000  Uiso   1.00
H348   H     0.94359   0.58164   0.31277   0.00000  Uiso   1.00
H349   H     0.69136   0.54630   0.42344   0.00000  Uiso   1.00
H350   H     0.67726   0.49584   0.42314   0.00000  Uiso   1.00
H351   H     0.90417   0.37012   0.19704   0.00000  Uiso   1.00
H352   H     0.69298   0.54363   0.31141   0.00000  Uiso   1.00
H353   H     0.72764   0.45572   0.18869   0.00000  Uiso   1.00
H354   H     0.97400   0.45567   0.18882   0.00000  Uiso   1.00
H355   H     0.93704   0.44067   0.41683   0.00000  Uiso   1.00
H356   H     0.96460   0.44948   0.49398   0.00000  Uiso   1.00
H357   H     0.80701   0.51730   0.08865   0.00000  Uiso   1.00
H358   H     0.74888   0.50721   0.05908   0.00000  Uiso   1.00
N359   N     0.71598   0.49999   0.24999   0.00000  Uiso   1.00
N360   N     0.95069   0.50002   0.25000   0.00000  Uiso   1.00
N361   N     0.71939   0.39697   0.35130   0.00000  Uiso   1.00
N362   N     0.71989   0.60782   0.35443   0.00000  Uiso   1.00
N363   N     0.93100   0.55136   0.31964   0.00000  Uiso   1.00
N364   N     0.70584   0.51700   0.41103   0.00000  Uiso   1.00
O365   O     0.79375   0.56011   0.25001   0.00000  Uiso   1.00
O366   O     0.87294   0.56012   0.25001   0.00000  Uiso   1.00
O367   O     0.77441   0.49998   0.32549   0.00000  Uiso   1.00
O368   O     0.85360   0.49999   0.32549   0.00000  Uiso   1.00
O369   O     0.79373   0.43988   0.25000   0.00000  Uiso   1.00
O370   O     0.87292   0.43989   0.25000   0.00000  Uiso   1.00
O371   O     0.81306   0.50001   0.17451   0.00000  Uiso   1.00
O372   O     0.89225   0.50002   0.17451   0.00000  Uiso   1.00
C373   C     0.16617   0.91257   0.25155   0.00000  Uiso   1.00
C374   C     0.12372   0.82887   0.40810   0.00000  Uiso   1.00
C375   C     0.20597   0.97830   0.22260   0.00000  Uiso   1.00
C376   C     0.14026   0.83131   0.35026   0.00000  Uiso   1.00
C377   C     0.20616   0.68759   0.22250   0.00000  Uiso   1.00
C378   C     0.16565   0.70961   0.25378   0.00000  Uiso   1.00
C379   C     0.12516   0.68897   0.28738   0.00000  Uiso   1.00
C380   C     0.12512   0.97909   0.28771   0.00000  Uiso   1.00
C381   C     0.16536   0.95726   0.25412   0.00000  Uiso   1.00
C382   C     0.29891   0.85809   0.28405   0.00000  Uiso   1.00
C383   C     0.01521   0.85769   0.28409   0.00000  Uiso   1.00
C384   C     0.14457   0.82576   0.49014   0.00000  Uiso   1.00
C385   C     0.03451   0.80878   0.21595   0.00000  Uiso   1.00
C386   C     0.31824   0.80873   0.21603   0.00000  Uiso   1.00
C387   C     0.16643   0.75415   0.25097   0.00000  Uiso   1.00
C388   C     0.19296   0.83254   0.14996   0.00000  Uiso   1.00
C389   C     0.26297   0.79723   0.01410   0.00000  Uiso   1.00
C390   C     0.20798   0.82668   0.09330   0.00000  Uiso   1.00
C391   C     0.07512   0.84085   0.43666   0.00000  Uiso   1.00
C392   C     0.06152   0.84377   0.49087   0.00000  Uiso   1.00
C393   C     0.09574   0.83750   0.01719   0.00000  Uiso   1.00
C394   C     0.08482   0.71196   0.32296   0.00000  Uiso   1.00
C395   C     0.15695   0.81719   0.43585   0.00000  Uiso   1.00
C396   C     0.08521   0.95771   0.32457   0.00000  Uiso   1.00
C397   C     0.18111   0.82108   0.01570   0.00000  Uiso   1.00
C398   C     0.22710   0.80288   0.48874   0.00000  Uiso   1.00
C399   C     0.23624   0.78958   0.43726   0.00000  Uiso   1.00
C400   C     0.20160   0.79620   0.41137   0.00000  Uiso   1.00
C401   C     0.17335   0.83432   0.06736   0.00000  Uiso   1.00
C402   C     0.25333   0.80883   0.06631   0.00000  Uiso   1.00
Cu403  Cu    0.11978   0.83333   0.25000   0.00000  Uiso   1.00
Cu404  Cu    0.21355   0.83334   0.25000   0.00000  Uiso   1.00
H405   H     0.28050   0.80248   0.08597   0.00000  Uiso   1.00
H406   H     0.02423   0.85228   0.01277   0.00000  Uiso   1.00
H407   H     0.20982   0.78307   0.37260   0.00000  Uiso   1.00
H408   H     0.23720   0.96166   0.19720   0.00000  Uiso   1.00
H409   H     0.26383   0.87711   0.35751   0.00000  Uiso   1.00
H410   H     0.27693   0.91497   0.31277   0.00000  Uiso   1.00
H411   H     0.02469   0.87964   0.42344   0.00000  Uiso   1.00
H412   H     0.01059   0.82917   0.42314   0.00000  Uiso   1.00
H413   H     0.23750   0.70345   0.19704   0.00000  Uiso   1.00
H414   H     0.02631   0.87697   0.31141   0.00000  Uiso   1.00
H415   H     0.06097   0.78905   0.18869   0.00000  Uiso   1.00
H416   H     0.30733   0.78900   0.18882   0.00000  Uiso   1.00
H417   H     0.27037   0.77400   0.41683   0.00000  Uiso   1.00
H418   H     0.29793   0.78281   0.49398   0.00000  Uiso   1.00
H419   H     0.14035   0.85063   0.08865   0.00000  Uiso   1.00
H420   H     0.08222   0.84055   0.05908   0.00000  Uiso   1.00
N421   N     0.04931   0.83332   0.24999   0.00000  Uiso   1.00
N422   N     0.28402   0.83335   0.25000   0.00000  Uiso   1.00
N423   N     0.05273   0.73030   0.35130   0.00000  Uiso   1.00
N424   N     0.05322   0.94116   0.35443   0.00000  Uiso   1.00
N425   N     0.26433   0.88469   0.31964   0.00000  Uiso   1.00
N426   N     0.03917   0.85034   0.41103   0.00000  Uiso   1.00
O427   O     0.12708   0.89345   0.25001   0.00000  Uiso   1.00
O428   O     0.20627   0.89346   0.25001   0.00000  Uiso   1.00
O429   O     0.10775   0.83332   0.32549   0.00000  Uiso   1.00
O430   O     0.18694   0.83333   0.32549   0.00000  Uiso   1.00
O431   O     0.12706   0.77321   0.25000   0.00000  Uiso   1.00
O432   O     0.20625   0.77322   0.25000   0.00000  Uiso   1.00
O433   O     0.14640   0.83334   0.17451   0.00000  Uiso   1.00
O434   O     0.22559   0.83335   0.17451   0.00000  Uiso   1.00
C435   C     0.49950   0.91257   0.25155   0.00000  Uiso   1.00
C436   C     0.45705   0.82887   0.40810   0.00000  Uiso   1.00
C437   C     0.53930   0.97830   0.22260   0.00000  Uiso   1.00
C438   C     0.47360   0.83131   0.35026   0.00000  Uiso   1.00
C439   C     0.53949   0.68759   0.22250   0.00000  Uiso   1.00
C440   C     0.49898   0.70961   0.25378   0.00000  Uiso   1.00
C441   C     0.45849   0.68897   0.28738   0.00000  Uiso   1.00
C442   C     0.45845   0.97909   0.28771   0.00000  Uiso   1.00
C443   C     0.49869   0.95726   0.25412   0.00000  Uiso   1.00
C444   C     0.63224   0.85809   0.28405   0.00000  Uiso   1.00
C445   C     0.34855   0.85769   0.28409   0.00000  Uiso   1.00
C446   C     0.47790   0.82576   0.49014   0.00000  Uiso   1.00
C447   C     0.36785   0.80878   0.21595   0.00000  Uiso   1.00
C448   C     0.65157   0.80873   0.21603   0.00000  Uiso   1.00
C449   C     0.49977   0.75415   0.25097   0.00000  Uiso   1.00
C450   C     0.52629   0.83254   0.14996   0.00000  Uiso   1.00
C451   C     0.59630   0.79723   0.01410   0.00000  Uiso   1.00
C452   C     0.54131   0.82668   0.09330   0.00000  Uiso   1.00
C453   C     0.40846   0.84085   0.43666   0.00000  Uiso   1.00
C454   C     0.39486   0.84377   0.49087   0.00000  Uiso   1.00
C455   C     0.42908   0.83750   0.01719   0.00000  Uiso   1.00
C456   C     0.41815   0.71196   0.32296   0.00000  Uiso   1.00
C457   C     0.49028   0.81719   0.43585   0.00000  Uiso   1.00
C458   C     0.41855   0.95771   0.32457   0.00000  Uiso   1.00
C459   C     0.51444   0.82108   0.01570   0.00000  Uiso   1.00
C460   C     0.56044   0.80288   0.48874   0.00000  Uiso   1.00
C461   C     0.56957   0.78958   0.43726   0.00000  Uiso   1.00
C462   C     0.53493   0.79620   0.41137   0.00000  Uiso   1.00
C463   C     0.50668   0.83432   0.06736   0.00000  Uiso   1.00
C464   C     0.58666   0.80883   0.06631   0.00000  Uiso   1.00
Cu465  Cu    0.45311   0.83333   0.25000   0.00000  Uiso   1.00
Cu466  Cu    0.54689   0.83334   0.25000   0.00000  Uiso   1.00
H467   H     0.61383   0.80248   0.08597   0.00000  Uiso   1.00
H468   H     0.35756   0.85228   0.01277   0.00000  Uiso   1.00
H469   H     0.54315   0.78307   0.37260   0.00000  Uiso   1.00
H470   H     0.57054   0.96166   0.19720   0.00000  Uiso   1.00
H471   H     0.59717   0.87711   0.35751   0.00000  Uiso   1.00
H472   H     0.61026   0.91497   0.31277   0.00000  Uiso   1.00
H473   H     0.35802   0.87964   0.42344   0.00000  Uiso   1.00
H474   H     0.34392   0.82917   0.42314   0.00000  Uiso   1.00
H475   H     0.57084   0.70345   0.19704   0.00000  Uiso   1.00
H476   H     0.35964   0.87697   0.31141   0.00000  Uiso   1.00
H477   H     0.39431   0.78905   0.18869   0.00000  Uiso   1.00
H478   H     0.64066   0.78900   0.18882   0.00000  Uiso   1.00
H479   H     0.60371   0.77400   0.41683   0.00000  Uiso   1.00
H480   H     0.63127   0.78281   0.49398   0.00000  Uiso   1.00
H481   H     0.47368   0.85063   0.08865   0.00000  Uiso   1.00
H482   H     0.41555   0.84055   0.05908   0.00000  Uiso   1.00
N483   N     0.38265   0.83332   0.24999   0.00000  Uiso   1.00
N484   N     0.61735   0.83335   0.25000   0.00000  Uiso   1.00
N485   N     0.38606   0.73030   0.35130   0.00000  Uiso   1.00
N486   N     0.38656   0.94116   0.35443   0.00000  Uiso   1.00
N487   N     0.59766   0.88469   0.31964   0.00000  Uiso   1.00
N488   N     0.37250   0.85034   0.41103   0.00000  Uiso   1.00
O489   O     0.46042   0.89345   0.25001   0.00000  Uiso   1.00
O490   O     0.53961   0.89346   0.25001   0.00000  Uiso   1.00
O491   O     0.44108   0.83332   0.32549   0.00000  Uiso   1.00
O492   O     0.52027   0.83333   0.32549   0.00000  Uiso   1.00
O493   O     0.46039   0.77321   0.25000   0.00000  Uiso   1.00
O494   O     0.53958   0.77322   0.25000   0.00000  Uiso   1.00
O495   O     0.47973   0.83334   0.17451   0.00000  Uiso   1.00
O496   O     0.55892   0.83335   0.17451   0.00000  Uiso   1.00
C497   C     0.83283   0.91257   0.25155   0.00000  Uiso   1.00
C498   C     0.79039   0.82887   0.40810   0.00000  Uiso   1.00
C499   C     0.87264   0.97830   0.22260   0.00000  Uiso   1.00
C500   C     0.80693   0.83131   0.35026   0.00000  Uiso   1.00
C501   C     0.87282   0.68759   0.22250   0.00000  Uiso   1.00
C502   C     0.83232   0.70961   0.25378   0.00000  Uiso   1.00
C503   C     0.79183   0.68897   0.28738   0.00000  Uiso   1.00
C504   C     0.79179   0.97909   0.28771   0.00000  Uiso   1.00
C505   C     0.83203   0.95726   0.25412   0.00000  Uiso   1.00
C506   C     0.96557   0.85809   0.28405   0.00000  Uiso   1.00
C507   C     0.68188   0.85769   0.28409   0.00000  Uiso   1.00
C508   C     0.81123   0.82576   0.49014   0.00000  Uiso   1.00
C509   C     0.70118   0.80878   0.21595   0.00000  Uiso   1.00
C510   C     0.98490   0.80873   0.21603   0.00000  Uiso   1.00
C511   C     0.83310   0.75415   0.25097   0.00000  Uiso   1.00
C512   C     0.85963   0.83254   0.14996   0.00000  Uiso   1.00
C513   C     0.92964   0.79723   0.01410   0.00000  Uiso   1.00
C514   C     0.87464   0.82668   0.09330   0.00000  Uiso   1.00
C515   C     0.74179   0.84085   0.43666   0.00000  Uiso   1.00
C516   C     0.72819   0.84377   0.49087   0.00000  Uiso   1.00
C517   C     0.76241   0.83750   0.01719   0.00000  Uiso   1.00
C518   C     0.75149   0.71196   0.32296   0.00000  Uiso   1.00
C519   C     0.82361   0.81719   0.43585   0.00000  Uiso   1.00
C520   C     0.75188   0.95771   0.32457   0.00000  Uiso   1.00
C521   C     0.84777   0.82108   0.01570   0.00000  Uiso   1.00
C522   C     0.89377   0.80288   0.48874   0.00000  Uiso   1.00
C523   C     0.90290   0.78958   0.43726   0.00000  Uiso   1.00
C524   C     0.86827   0.79620   0.41137   0.00000  Uiso   1.00
C525   C     0.84002   0.83432   0.06736   0.00000  Uiso   1.00
C526   C     0.92000   0.80883   0.06631   0.00000  Uiso   1.00
Cu527  Cu    0.78645   0.83333   0.25000   0.00000  Uiso   1.00
Cu528  Cu    0.88022   0.83334   0.25000   0.00000  Uiso   1.00
H529   H     0.94716   0.80248   0.08597   0.00000  Uiso   1.00
H530   H     0.69089   0.85228   0.01277   0.00000  Uiso   1.00
H531   H     0.87648   0.78307   0.37260   0.00000  Uiso   1.00
H532   H     0.90387   0.96166   0.19720   0.00000  Uiso   1.00
H533   H     0.93050   0.87711   0.35751   0.00000  Uiso   1.00
H534   H     0.94359   0.91497   0.31277   0.00000  Uiso   1.00
H535   H     0.69136   0.87964   0.42344   0.00000  Uiso   1.00
H536   H     0.67726   0.82917   0.42314   0.00000  Uiso   1.00
H537   H     0.90417   0.70345   0.19704   0.00000  Uiso   1.00
H538   H     0.69298   0.87697   0.31141   0.00000  Uiso   1.00
H539   H     0.72764   0.78905   0.18869   0.00000  Uiso   1.00
H540   H     0.97400   0.78900   0.18882   0.00000  Uiso   1.00
H541   H     0.93704   0.77400   0.41683   0.00000  Uiso   1.00
H542   H     0.96460   0.78281   0.49398   0.00000  Uiso   1.00
H543   H     0.80701   0.85063   0.08865   0.00000  Uiso   1.00
H544   H     0.74888   0.84055   0.05908   0.00000  Uiso   1.00
N545   N     0.71598   0.83332   0.24999   0.00000  Uiso   1.00
N546   N     0.95069   0.83335   0.25000   0.00000  Uiso   1.00
N547   N     0.71939   0.73030   0.35130   0.00000  Uiso   1.00
N548   N     0.71989   0.94116   0.35443   0.00000  Uiso   1.00
N549   N     0.93100   0.88469   0.31964   0.00000  Uiso   1.00
N550   N     0.70584   0.85034   0.41103   0.00000  Uiso   1.00
O551   O     0.79375   0.89345   0.25001   0.00000  Uiso   1.00
O552   O     0.87294   0.89346   0.25001   0.00000  Uiso   1.00
O553   O     0.77441   0.83332   0.32549   0.00000  Uiso   1.00
O554   O     0.85360   0.83333   0.32549   0.00000  Uiso   1.00
O555   O     0.79373   0.77321   0.25000   0.00000  Uiso   1.00
O556   O     0.87292   0.77322   0.25000   0.00000  Uiso   1.00
O557   O     0.81306   0.83334   0.17451   0.00000  Uiso   1.00
O558   O     0.89225   0.83335   0.17451   0.00000  Uiso   1.00
C559   C     0.16617   0.24591   0.75155   0.00000  Uiso   1.00
C560   C     0.12372   0.16220   0.90810   0.00000  Uiso   1.00
C561   C     0.20597   0.31164   0.72260   0.00000  Uiso   1.00
C562   C     0.14026   0.16464   0.85026   0.00000  Uiso   1.00
C563   C     0.20616   0.02093   0.72250   0.00000  Uiso   1.00
C564   C     0.16565   0.04295   0.75378   0.00000  Uiso   1.00
C565   C     0.12516   0.02231   0.78738   0.00000  Uiso   1.00
C566   C     0.12512   0.31243   0.78771   0.00000  Uiso   1.00
C567   C     0.16536   0.29059   0.75412   0.00000  Uiso   1.00
C568   C     0.29891   0.19143   0.78405   0.00000  Uiso   1.00
C569   C     0.01521   0.19103   0.78409   0.00000  Uiso   1.00
C570   C     0.14457   0.15910   0.99014   0.00000  Uiso   1.00
C571   C     0.03451   0.14211   0.71595   0.00000  Uiso   1.00
C572   C     0.31824   0.14206   0.71603   0.00000  Uiso   1.00
C573   C     0.16643   0.08748   0.75097   0.00000  Uiso   1.00
C574   C     0.19296   0.16588   0.64996   0.00000  Uiso   1.00
C575   C     0.26297   0.13057   0.51410   0.00000  Uiso   1.00
C576   C     0.20798   0.16002   0.59330   0.00000  Uiso   1.00
C577   C     0.07512   0.17419   0.93666   0.00000  Uiso   1.00
C578   C     0.06152   0.17710   0.99087   0.00000  Uiso   1.00
C579   C     0.09574   0.17083   0.51719   0.00000  Uiso   1.00
C580   C     0.08482   0.04529   0.82296   0.00000  Uiso   1.00
C581   C     0.15695   0.15052   0.93585   0.00000  Uiso   1.00
C582   C     0.08521   0.29104   0.82457   0.00000  Uiso   1.00
C583   C     0.18111   0.15441   0.51570   0.00000  Uiso   1.00
C584   C     0.22710   0.13622   0.98874   0.00000  Uiso   1.00
C585   C     0.23624   0.12291   0.93726   0.00000  Uiso   1.00
C586   C     0.20160   0.12953   0.91137   0.00000  Uiso   1.00
C587   C     0.17335   0.16765   0.56736   0.00000  Uiso   1.00
C588   C     0.25333   0.14216   0.56631   0.00000  Uiso   1.00
Cu589  Cu    0.11978   0.16666   0.75000   0.00000  Uiso   1.00
Cu590  Cu    0.21355   0.16667   0.75000   0.00000  Uiso   1.00
H591   H     0.28050   0.13582   0.58597   0.00000  Uiso   1.00
H592   H     0.02423   0.18561   0.51277   0.00000  Uiso   1.00
H593   H     0.20982   0.11640   0.87260   0.00000  Uiso   1.00
H594   H     0.23720   0.29499   0.69720   0.00000  Uiso   1.00
H595   H     0.26383   0.21044   0.85751   0.00000  Uiso   1.00
H596   H     0.27693   0.24830   0.81277   0.00000  Uiso   1.00
H597   H     0.02469   0.21297   0.92344   0.00000  Uiso   1.00
H598   H     0.01059   0.16250   0.92314   0.00000  Uiso   1.00
H599   H     0.23750   0.03679   0.69704   0.00000  Uiso   1.00
H600   H     0.02631   0.21030   0.81141   0.00000  Uiso   1.00
H601   H     0.06097   0.12239   0.68869   0.00000  Uiso   1.00
H602   H     0.30733   0.12234   0.68882   0.00000  Uiso   1.00
H603   H     0.27037   0.10733   0.91683   0.00000  Uiso   1.00
H604   H     0.29793   0.11615   0.99398   0.00000  Uiso   1.00
H605   H     0.14035   0.18396   0.58865   0.00000  Uiso   1.00
H606   H     0.08222   0.17388   0.55908   0.00000  Uiso   1.00
N607   N     0.04931   0.16666   0.74999   0.00000  Uiso   1.00
N608   N     0.28402   0.16669   0.75000   0.00000  Uiso   1.00
N609   N     0.05273   0.06363   0.85130   0.00000  Uiso   1.00
N610   N     0.05322   0.27449   0.85443   0.00000  Uiso   1.00
N611   N     0.26433   0.21803   0.81964   0.00000  Uiso   1.00
N612   N     0.03917   0.18367   0.91103   0.00000  Uiso   1.00
O613   O     0.12708   0.22678   0.75001   0.00000  Uiso   1.00
O614   O     0.20627   0.22679   0.75001   0.00000  Uiso   1.00
O615   O     0.10775   0.16665   0.82549   0.00000  Uiso   1.00
O616   O     0.18694   0.16666   0.82549   0.00000  Uiso   1.00
O617   O     0.12706   0.10654   0.75000   0.00000  Uiso   1.00
O618   O     0.20625   0.10655   0.75000   0.00000  Uiso   1.00
O619   O     0.14640   0.16667   0.67451   0.00000  Uiso   1.00
O620   O     0.22559   0.16668   0.67451   0.00000  Uiso   1.00
C621   C     0.49950   0.24591   0.75155   0.00000  Uiso   1.00
C622   C     0.45705   0.16220   0.90810   0.00000  Uiso   1.00
C623   C     0.53930   0.31164   0.72260   0.00000  Uiso   1.00
C624   C     0.47360   0.16464   0.85026   0.00000  Uiso   1.00
C625   C     0.53949   0.02093   0.72250   0.00000  Uiso   1.00
C626   C     0.49898   0.04295   0.75378   0.00000  Uiso   1.00
C627   C     0.45849   0.02231   0.78738   0.00000  Uiso   1.00
C628   C     0.45845   0.31243   0.78771   0.00000  Uiso   1.00
C629   C     0.49869   0.29059   0.75412   0.00000  Uiso   1.00
C630   C     0.63224   0.19143   0.78405   0.00000  Uiso   1.00
C631   C     0.34855   0.19103   0.78409   0.00000  Uiso   1.00
C632   C     0.47790   0.15910   0.99014   0.00000  Uiso   1.00
C633   C     0.36785   0.14211   0.71595   0.00000  Uiso   1.00
C634   C     0.65157   0.14206   0.71603   0.00000  Uiso   1.00
C635   C     0.49977   0.08748   0.75097   0.00000  Uiso   1.00
C636   C     0.52629   0.16588   0.64996   0.00000  Uiso   1.00
C637   C     0.59630   0.13057   0.51410   0.00000  Uiso   1.00
C638   C     0.54131   0.16002   0.59330   0.00000  Uiso   1.00
C639   C     0.40846   0.17419   0.93666   0.00000  Uiso   1.00
C640   C     0.39486   0.17710   0.99087   0.00000  Uiso   1.00
C641   C     0.42908   0.17083   0.51719   0.00000  Uiso   1.00
C642   C     0.41815   0.04529   0.82296   0.00000  Uiso   1.00
C643   C     0.49028   0.15052   0.93585   0.00000  Uiso   1.00
C644   C     0.41855   0.29104   0.82457   0.00000  Uiso   1.00
C645   C     0.51444   0.15441   0.51570   0.00000  Uiso   1.00
C646   C     0.56044   0.13622   0.98874   0.00000  Uiso   1.00
C647   C     0.56957   0.12291   0.93726   0.00000  Uiso   1.00
C648   C     0.53493   0.12953   0.91137   0.00000  Uiso   1.00
C649   C     0.50668   0.16765   0.56736   0.00000  Uiso   1.00
C650   C     0.58666   0.14216   0.56631   0.00000  Uiso   1.00
Cu651  Cu    0.45311   0.16666   0.75000   0.00000  Uiso   1.00
Cu652  Cu    0.54689   0.16667   0.75000   0.00000  Uiso   1.00
H653   H     0.61383   0.13582   0.58597   0.00000  Uiso   1.00
H654   H     0.35756   0.18561   0.51277   0.00000  Uiso   1.00
H655   H     0.54315   0.11640   0.87260   0.00000  Uiso   1.00
H656   H     0.57054   0.29499   0.69720   0.00000  Uiso   1.00
H657   H     0.59717   0.21044   0.85751   0.00000  Uiso   1.00
H658   H     0.61026   0.24830   0.81277   0.00000  Uiso   1.00
H659   H     0.35802   0.21297   0.92344   0.00000  Uiso   1.00
H660   H     0.34392   0.16250   0.92314   0.00000  Uiso   1.00
H661   H     0.57084   0.03679   0.69704   0.00000  Uiso   1.00
H662   H     0.35964   0.21030   0.81141   0.00000  Uiso   1.00
H663   H     0.39431   0.12239   0.68869   0.00000  Uiso   1.00
H664   H     0.64066   0.12234   0.68882   0.00000  Uiso   1.00
H665   H     0.60371   0.10733   0.91683   0.00000  Uiso   1.00
H666   H     0.63127   0.11615   0.99398   0.00000  Uiso   1.00
H667   H     0.47368   0.18396   0.58865   0.00000  Uiso   1.00
H668   H     0.41555   0.17388   0.55908   0.00000  Uiso   1.00
N669   N     0.38265   0.16666   0.74999   0.00000  Uiso   1.00
N670   N     0.61735   0.16669   0.75000   0.00000  Uiso   1.00
N671   N     0.38606   0.06363   0.85130   0.00000  Uiso   1.00
N672   N     0.38656   0.27449   0.85443   0.00000  Uiso   1.00
N673   N     0.59766   0.21803   0.81964   0.00000  Uiso   1.00
N674   N     0.37250   0.18367   0.91103   0.00000  Uiso   1.00
O675   O     0.46042   0.22678   0.75001   0.00000  Uiso   1.00
O676   O     0.53961   0.22679   0.75001   0.00000  Uiso   1.00
O677   O     0.44108   0.16665   0.82549   0.00000  Uiso   1.00
O678   O     0.52027   0.16666   0.82549   0.00000  Uiso   1.00
O679   O     0.46039   0.10654   0.75000   0.00000  Uiso   1.00
O680   O     0.53958   0.10655   0.75000   0.00000  Uiso   1.00
O681   O     0.47973   0.16667   0.67451   0.00000  Uiso   1.00
O682   O     0.55892   0.16668   0.67451   0.00000  Uiso   1.00
C683   C     0.83283   0.24591   0.75155   0.00000  Uiso   1.00
C684   C     0.79039   0.16220   0.90810   0.00000  Uiso   1.00
C685   C     0.87264   0.31164   0.72260   0.00000  Uiso   1.00
C686   C     0.80693   0.16464   0.85026   0.00000  Uiso   1.00
C687   C     0.87282   0.02093   0.72250   0.00000  Uiso   1.00
C688   C     0.83232   0.04295   0.75378   0.00000  Uiso   1.00
C689   C     0.79183   0.02231   0.78738   0.00000  Uiso   1.00
C690   C     0.79179   0.31243   0.78771   0.00000  Uiso   1.00
C691   C     0.83203   0.29059   0.75412   0.00000  Uiso   1.00
C692   C     0.96557   0.19143   0.78405   0.00000  Uiso   1.00
C693   C     0.68188   0.19103   0.78409   0.00000  Uiso   1.00
C694   C     0.81123   0.15910   0.99014   0.00000  Uiso   1.00
C695   C     0.70118   0.14211   0.71595   0.00000  Uiso   1.00
C696   C     0.98490   0.14206   0.71603   0.00000  Uiso   1.00
C697   C     0.83310   0.08748   0.75097   0.00000  Uiso   1.00
C698   C     0.85963   0.16588   0.64996   0.00000  Uiso   1.00
C699   C     0.92964   0.13057   0.51410   0.00000  Uiso   1.00
C700   C     0.87464   0.16002   0.59330   0.00000  Uiso   1.00
C701   C     0.74179   0.17419   0.93666   0.00000  Uiso   1.00
C702   C     0.72819   0.17710   0.99087   0.00000  Uiso   1.00
C703   C     0.76241   0.17083   0.51719   0.00000  Uiso   1.00
C704   C     0.75149   0.04529   0.82296   0.00000  Uiso   1.00
C705   C     0.82361   0.15052   0.93585   0.00000  Uiso   1.00
C706   C     0.75188   0.29104   0.82457   0.00000  Uiso   1.00
C707   C     0.84777   0.15441   0.51570   0.00000  Uiso   1.00
C708   C     0.89377   0.13622   0.98874   0.00000  Uiso   1.00
C709   C     0.90290   0.12291   0.93726   0.00000  Uiso   1.00
C710   C     0.86827   0.12953   0.91137   0.00000  Uiso   1.00
C711   C     0.84002   0.16765   0.56736   0.00000  Uiso   1.00
C712   C     0.92000   0.14216   0.56631   0.00000  Uiso   1.00
Cu713  Cu    0.78645   0.16666   0.75000   0.00000  Uiso   1.00
Cu714  Cu    0.88022   0.16667   0.75000   0.00000  Uiso   1.00
H715   H     0.94716   0.13582   0.58597   0.00000  Uiso   1.00
H716   H     0.69089   0.18561   0.51277   0.00000  Uiso   1.00
H717   H     0.87648   0.11640   0.87260   0.00000  Uiso   1.00
H718   H     0.90387   0.29499   0.69720   0.00000  Uiso   1.00
H719   H     0.93050   0.21044   0.85751   0.00000  Uiso   1.00
H720   H     0.94359   0.24830   0.81277   0.00000  Uiso   1.00
H721   H     0.69136   0.21297   0.92344   0.00000  Uiso   1.00
H722   H     0.67726   0.16250   0.92314   0.00000  Uiso   1.00
H723   H     0.90417   0.03679   0.69704   0.00000  Uiso   1.00
H724   H     0.69298   0.21030   0.81141   0.00000  Uiso   1.00
H725   H     0.72764   0.12239   0.68869   0.00000  Uiso   1.00
H726   H     0.97400   0.12234   0.68882   0.00000  Uiso   1.00
H727   H     0.93704   0.10733   0.91683   0.00000  Uiso   1.00
H728   H     0.96460   0.11615   0.99398   0.00000  Uiso   1.00
H729   H     0.80701   0.18396   0.58865   0.00000  Uiso   1.00
H730   H     0.74888   0.17388   0.55908   0.00000  Uiso   1.00
N731   N     0.71598   0.16666   0.74999   0.00000  Uiso   1.00
N732   N     0.95069   0.16669   0.75000   0.00000  Uiso   1.00
N733   N     0.71939   0.06363   0.85130   0.00000  Uiso   1.00
N734   N     0.71989   0.27449   0.85443   0.00000  Uiso   1.00
N735   N     0.93100   0.21803   0.81964   0.00000  Uiso   1.00
N736   N     0.70584   0.18367   0.91103   0.00000  Uiso   1.00
O737   O     0.79375   0.22678   0.75001   0.00000  Uiso   1.00
O738   O     0.87294   0.22679   0.75001   0.00000  Uiso   1.00
O739   O     0.77441   0.16665   0.82549   0.00000  Uiso   1.00
O740   O     0.85360   0.16666   0.82549   0.00000  Uiso   1.00
O741   O     0.79373   0.10654   0.75000   0.00000  Uiso   1.00
O742   O     0.87292   0.10655   0.75000   0.00000  Uiso   1.00
O743   O     0.81306   0.16667   0.67451   0.00000  Uiso   1.00
O744   O     0.89225   0.16668   0.67451   0.00000  Uiso   1.00
C745   C     0.16617   0.57924   0.75155   0.00000  Uiso   1.00
C746   C     0.12372   0.49553   0.90810   0.00000  Uiso   1.00
C747   C     0.20597   0.64497   0.72260   0.00000  Uiso   1.00
C748   C     0.14026   0.49797   0.85026   0.00000  Uiso   1.00
C749   C     0.20616   0.35426   0.72250   0.00000  Uiso   1.00
C750   C     0.16565   0.37628   0.75378   0.00000  Uiso   1.00
C751   C     0.12516   0.35564   0.78738   0.00000  Uiso   1.00
C752   C     0.12512   0.64576   0.78771   0.00000  Uiso   1.00
C753   C     0.16536   0.62393   0.75412   0.00000  Uiso   1.00
C754   C     0.29891   0.52476   0.78405   0.00000  Uiso   1.00
C755   C     0.01521   0.52436   0.78409   0.00000  Uiso   1.00
C756   C     0.14457   0.49243   0.99014   0.00000  Uiso   1.00
C757   C     0.03451   0.47544   0.71595   0.00000  Uiso   1.00
C758   C     0.31824   0.47539   0.71603   0.00000  Uiso   1.00
C759   C     0.16643   0.42081   0.75097   0.00000  Uiso   1.00
C760   C     0.19296   0.49921   0.64996   0.00000  Uiso   1.00
C761   C     0.26297   0.46390   0.51410   0.00000  Uiso   1.00
C762   C     0.20798   0.49335   0.59330   0.00000  Uiso   1.00
C763   C     0.07512   0.50752   0.93666   0.00000  Uiso   1.00
C764   C     0.06152   0.51044   0.99087   0.00000  Uiso   1.00
C765   C     0.09574   0.50416   0.51719   0.00000  Uiso   1.00
C766   C     0.08482   0.37863   0.82296   0.00000  Uiso   1.00
C767   C     0.15695   0.48386   0.93585   0.00000  Uiso   1.00
C768   C     0.08521   0.62437   0.82457   0.00000  Uiso   1.00
C769   C     0.18111   0.48775   0.51570   0.00000  Uiso   1.00
C770   C     0.22710   0.46955   0.98874   0.00000  Uiso   1.00
C771   C     0.23624   0.45624   0.93726   0.00000  Uiso   1.00
C772   C     0.20160   0.46287   0.91137   0.00000  Uiso   1.00
C773   C     0.17335   0.50099   0.56736   0.00000  Uiso   1.00
C774   C     0.25333   0.47549   0.56631   0.00000  Uiso   1.00
Cu775  Cu    0.11978   0.49999   0.75000   0.00000  Uiso   1.00
Cu776  Cu    0.21355   0.50001   0.75000   0.00000  Uiso   1.00
H777   H     0.28050   0.46915   0.58597   0.00000  Uiso   1.00
H778   H     0.02423   0.51895   0.51277   0.00000  Uiso   1.00
H779   H     0.20982   0.44974   0.87260   0.00000  Uiso   1.00
H780   H     0.23720   0.62833   0.69720   0.00000  Uiso   1.00
H781   H     0.26383   0.54377   0.85751   0.00000  Uiso   1.00
H782   H     0.27693   0.58164   0.81277   0.00000  Uiso   1.00
H783   H     0.02469   0.54630   0.92344   0.00000  Uiso   1.00
H784   H     0.01059   0.49584   0.92314   0.00000  Uiso   1.00
H785   H     0.23750   0.37012   0.69704   0.00000  Uiso   1.00
H786   H     0.02631   0.54363   0.81141   0.00000  Uiso   1.00
H787   H     0.06097   0.45572   0.68869   0.00000  Uiso   1.00
H788   H     0.30733   0.45567   0.68882   0.00000  Uiso   1.00
H789   H     0.27037   0.44067   0.91683   0.00000  Uiso   1.00
H790   H     0.29793   0.44948   0.99398   0.00000  Uiso   1.00
H791   H     0.14035   0.51730   0.58865   0.00000  Uiso   1.00
H792   H     0.08222   0.50721   0.55908   0.00000  Uiso   1.00
N793   N     0.04931   0.49999   0.74999   0.00000  Uiso   1.00
N794   N     0.28402   0.50002   0.75000   0.00000  Uiso   1.00
N795   N     0.05273   0.39697   0.85130   0.00000  Uiso   1.00
N796   N     0.05322   0.60782   0.85443   0.00000  Uiso   1.00
N797   N     0.26433   0.55136   0.81964   0.00000  Uiso   1.00
N798   N     0.03917   0.51700   0.91103   0.00000  Uiso   1.00
O799   O     0.12708   0.56011   0.75001   0.00000  Uiso   1.00
O800   O     0.20627   0.56012   0.75001   0.00000  Uiso   1.00
O801   O     0.10775   0.49998   0.82549   0.00000  Uiso   1.00
O802   O     0.18694   0.49999   0.82549   0.00000  Uiso   1.00
O803   O     0.12706   0.43988   0.75000   0.00000  Uiso   1.00
O804   O     0.20625   0.43989   0.75000   0.00000  Uiso   1.00
O805   O     0.14640   0.50001   0.67451   0.00000  Uiso   1.00
O806   O     0.22559   0.50002   0.67451   0.00000  Uiso   1.00
C807   C     0.49950   0.57924   0.75155   0.00000  Uiso   1.00
C808   C     0.45705   0.49553   0.90810   0.00000  Uiso   1.00
C809   C     0.53930   0.64497   0.72260   0.00000  Uiso   1.00
C810   C     0.47360   0.49797   0.85026   0.00000  Uiso   1.00
C811   C     0.53949   0.35426   0.72250   0.00000  Uiso   1.00
C812   C     0.49898   0.37628   0.75378   0.00000  Uiso   1.00
C813   C     0.45849   0.35564   0.78738   0.00000  Uiso   1.00
C814   C     0.45845   0.64576   0.78771   0.00000  Uiso   1.00
C815   C     0.49869   0.62393   0.75412   0.00000  Uiso   1.00
C816   C     0.63224   0.52476   0.78405   0.00000  Uiso   1.00
C817   C     0.34855   0.52436   0.78409   0.00000  Uiso   1.00
C818   C     0.47790   0.49243   0.99014   0.00000  Uiso   1.00
C819   C     0.36785   0.47544   0.71595   0.00000  Uiso   1.00
C820   C     0.65157   0.47539   0.71603   0.00000  Uiso   1.00
C821   C     0.49977   0.42081   0.75097   0.00000  Uiso   1.00
C822   C     0.52629   0.49921   0.64996   0.00000  Uiso   1.00
C823   C     0.59630   0.46390   0.51410   0.00000  Uiso   1.00
C824   C     0.54131   0.49335   0.59330   0.00000  Uiso   1.00
C825   C     0.40846   0.50752   0.93666   0.00000  Uiso   1.00
C826   C     0.39486   0.51044   0.99087   0.00000  Uiso   1.00
C827   C     0.42908   0.50416   0.51719   0.00000  Uiso   1.00
C828   C     0.41815   0.37863   0.82296   0.00000  Uiso   1.00
C829   C     0.49028   0.48386   0.93585   0.00000  Uiso   1.00
C830   C     0.41855   0.62437   0.82457   0.00000  Uiso   1.00
C831   C     0.51444   0.48775   0.51570   0.00000  Uiso   1.00
C832   C     0.56044   0.46955   0.98874   0.00000  Uiso   1.00
C833   C     0.56957   0.45624   0.93726   0.00000  Uiso   1.00
C834   C     0.53493   0.46287   0.91137   0.00000  Uiso   1.00
C835   C     0.50668   0.50099   0.56736   0.00000  Uiso   1.00
C836   C     0.58666   0.47549   0.56631   0.00000  Uiso   1.00
Cu837  Cu    0.45311   0.49999   0.75000   0.00000  Uiso   1.00
Cu838  Cu    0.54689   0.50001   0.75000   0.00000  Uiso   1.00
H839   H     0.61383   0.46915   0.58597   0.00000  Uiso   1.00
H840   H     0.35756   0.51895   0.51277   0.00000  Uiso   1.00
H841   H     0.54315   0.44974   0.87260   0.00000  Uiso   1.00
H842   H     0.57054   0.62833   0.69720   0.00000  Uiso   1.00
H843   H     0.59717   0.54377   0.85751   0.00000  Uiso   1.00
H844   H     0.61026   0.58164   0.81277   0.00000  Uiso   1.00
H845   H     0.35802   0.54630   0.92344   0.00000  Uiso   1.00
H846   H     0.34392   0.49584   0.92314   0.00000  Uiso   1.00
H847   H     0.57084   0.37012   0.69704   0.00000  Uiso   1.00
H848   H     0.35964   0.54363   0.81141   0.00000  Uiso   1.00
H849   H     0.39431   0.45572   0.68869   0.00000  Uiso   1.00
H850   H     0.64066   0.45567   0.68882   0.00000  Uiso   1.00
H851   H     0.60371   0.44067   0.91683   0.00000  Uiso   1.00
H852   H     0.63127   0.44948   0.99398   0.00000  Uiso   1.00
H853   H     0.47368   0.51730   0.58865   0.00000  Uiso   1.00
H854   H     0.41555   0.50721   0.55908   0.00000  Uiso   1.00
N855   N     0.38265   0.49999   0.74999   0.00000  Uiso   1.00
N856   N     0.61735   0.50002   0.75000   0.00000  Uiso   1.00
N857   N     0.38606   0.39697   0.85130   0.00000  Uiso   1.00
N858   N     0.38656   0.60782   0.85443   0.00000  Uiso   1.00
N859   N     0.59766   0.55136   0.81964   0.00000  Uiso   1.00
N860   N     0.37250   0.51700   0.91103   0.00000  Uiso   1.00
O861   O     0.46042   0.56011   0.75001   0.00000  Uiso   1.00
O862   O     0.53961   0.56012   0.75001   0.00000  Uiso   1.00
O863   O     0.44108   0.49998   0.82549   0.00000  Uiso   1.00
O864   O     0.52027   0.49999   0.82549   0.00000  Uiso   1.00
O865   O     0.46039   0.43988   0.75000   0.00000  Uiso   1.00
O866   O     0.53958   0.43989   0.75000   0.00000  Uiso   1.00
O867   O     0.47973   0.50001   0.67451   0.00000  Uiso   1.00
O868   O     0.55892   0.50002   0.67451   0.00000  Uiso   1.00
C869   C     0.83283   0.57924   0.75155   0.00000  Uiso   1.00
C870   C     0.79039   0.49553   0.90810   0.00000  Uiso   1.00
C871   C     0.87264   0.64497   0.72260   0.00000  Uiso   1.00
C872   C     0.80693   0.49797   0.85026   0.00000  Uiso   1.00
C873   C     0.87282   0.35426   0.72250   0.00000  Uiso   1.00
C874   C     0.83232   0.37628   0.75378   0.00000  Uiso   1.00
C875   C     0.79183   0.35564   0.78738   0.00000  Uiso   1.00
C876   C     0.79179   0.64576   0.78771   0.00000  Uiso   1.00
C877   C     0.83203   0.62393   0.75412   0.00000  Uiso   1.00
C878   C     0.96557   0.52476   0.78405   0.00000  Uiso   1.00
C879   C     0.68188   0.52436   0.78409   0.00000  Uiso   1.00
C880   C     0.81123   0.49243   0.99014   0.00000  Uiso   1.00
C881   C     0.70118   0.47544   0.71595   0.00000  Uiso   1.00
C882   C     0.98490   0.47539   0.71603   0.00000  Uiso   1.00
C883   C     0.83310   0.42081   0.75097   0.00000  Uiso   1.00
C884   C     0.85963   0.49921   0.64996   0.00000  Uiso   1.00
C885   C     0.92964   0.46390   0.51410   0.00000  Uiso   1.00
C886   C     0.87464   0.49335   0.59330   0.00000  Uiso   1.00
C887   C     0.74179   0.50752   0.93666   0.00000  Uiso   1.00
C888   C     0.72819   0.51044   0.99087   0.00000  Uiso   1.00
C889   C     0.76241   0.50416   0.51719   0.00000  Uiso   1.00
C890   C     0.75149   0.37863   0.82296   0.00000  Uiso   1.00
C891   C     0.82361   0.48386   0.93585   0.00000  Uiso   1.00
C892   C     0.75188   0.62437   0.82457   0.00000  Uiso   1.00
C893   C     0.84777   0.48775   0.51570   0.00000  Uiso   1.00
C894   C     0.89377   0.46955   0.98874   0.00000  Uiso   1.00
C895   C     0.90290   0.45624   0.93726   0.00000  Uiso   1.00
C896   C     0.86827   0.46287   0.91137   0.00000  Uiso   1.00
C897   C     0.84002   0.50099   0.56736   0.00000  Uiso   1.00
C898   C     0.92000   0.47549   0.56631   0.00000  Uiso   1.00
Cu899  Cu    0.78645   0.49999   0.75000   0.00000  Uiso   1.00
Cu900  Cu    0.88022   0.50001   0.75000   0.00000  Uiso   1.00
H901   H     0.94716   0.46915   0.58597   0.00000  Uiso   1.00
H902   H     0.69089   0.51895   0.51277   0.00000  Uiso   1.00
H903   H     0.87648   0.44974   0.87260   0.00000  Uiso   1.00
H904   H     0.90387   0.62833   0.69720   0.00000  Uiso   1.00
H905   H     0.93050   0.54377   0.85751   0.00000  Uiso   1.00
H906   H     0.94359   0.58164   0.81277   0.00000  Uiso   1.00
H907   H     0.69136   0.54630   0.92344   0.00000  Uiso   1.00
H908   H     0.67726   0.49584   0.92314   0.00000  Uiso   1.00
H909   H     0.90417   0.37012   0.69704   0.00000  Uiso   1.00
H910   H     0.69298   0.54363   0.81141   0.00000  Uiso   1.00
H911   H     0.72764   0.45572   0.68869   0.00000  Uiso   1.00
H912   H     0.97400   0.45567   0.68882   0.00000  Uiso   1.00
H913   H     0.93704   0.44067   0.91683   0.00000  Uiso   1.00
H914   H     0.96460   0.44948   0.99398   0.00000  Uiso   1.00
H915   H     0.80701   0.51730   0.58865   0.00000  Uiso   1.00
H916   H     0.74888   0.50721   0.55908   0.00000  Uiso   1.00
N917   N     0.71598   0.49999   0.74999   0.00000  Uiso   1.00
N918   N     0.95069   0.50002   0.75000   0.00000  Uiso   1.00
N919   N     0.71939   0.39697   0.85130   0.00000  Uiso   1.00
N920   N     0.71989   0.60782   0.85443   0.00000  Uiso   1.00
N921   N     0.93100   0.55136   0.81964   0.00000  Uiso   1.00
N922   N     0.70584   0.51700   0.91103   0.00000  Uiso   1.00
O923   O     0.79375   0.56011   0.75001   0.00000  Uiso   1.00
O924   O     0.87294   0.56012   0.75001   0.00000  Uiso   1.00
O925   O     0.77441   0.49998   0.82549   0.00000  Uiso   1.00
O926   O     0.85360   0.49999   0.82549   0.00000  Uiso   1.00
O927   O     0.79373   0.43988   0.75000   0.00000  Uiso   1.00
O928   O     0.87292   0.43989   0.75000   0.00000  Uiso   1.00
O929   O     0.81306   0.50001   0.67451   0.00000  Uiso   1.00
O930   O     0.89225   0.50002   0.67451   0.00000  Uiso   1.00
C931   C     0.16617   0.91257   0.75155   0.00000  Uiso   1.00
C932   C     0.12372   0.82887   0.90810   0.00000  Uiso   1.00
C933   C     0.20597   0.97830   0.72260   0.00000  Uiso   1.00
C934   C     0.14026   0.83131   0.85026   0.00000  Uiso   1.00
C935   C     0.20616   0.68759   0.72250   0.00000  Uiso   1.00
C936   C     0.16565   0.70961   0.75378   0.00000  Uiso   1.00
C937   C     0.12516   0.68897   0.78738   0.00000  Uiso   1.00
C938   C     0.12512   0.97909   0.78771   0.00000  Uiso   1.00
C939   C     0.16536   0.95726   0.75412   0.00000  Uiso   1.00
C940   C     0.29891   0.85809   0.78405   0.00000  Uiso   1.00
C941   C     0.01521   0.85769   0.78409   0.00000  Uiso   1.00
C942   C     0.14457   0.82576   0.99014   0.00000  Uiso   1.00
C943   C     0.03451   0.80878   0.71595   0.00000  Uiso   1.00
C944   C     0.31824   0.80873   0.71603   0.00000  Uiso   1.00
C945   C     0.16643   0.75415   0.75097   0.00000  Uiso   1.00
C946   C     0.19296   0.83254   0.64996   0.00000  Uiso   1.00
C947   C     0.26297   0.79723   0.51410   0.00000  Uiso   1.00
C948   C     0.20798   0.82668   0.59330   0.00000  Uiso   1.00
C949   C     0.07512   0.84085   0.93666   0.00000  Uiso   1.00
C950   C     0.06152   0.84377   0.99087   0.00000  Uiso   1.00
C951   C     0.09574   0.83750   0.51719   0.00000  Uiso   1.00
C952   C     0.08482   0.71196   0.82296   0.00000  Uiso   1.00
C953   C     0.15695   0.81719   0.93585   0.00000  Uiso   1.00
C954   C     0.08521   0.95771   0.82457   0.00000  Uiso   1.00
C955   C     0.18111   0.82108   0.51570   0.00000  Uiso   1.00
C956   C     0.22710   0.80288   0.98874   0.00000  Uiso   1.00
C957   C     0.23624   0.78958   0.93726   0.00000  Uiso   1.00
C958   C     0.20160   0.79620   0.91137   0.00000  Uiso   1.00
C959   C     0.17335   0.83432   0.56736   0.00000  Uiso   1.00
C960   C     0.25333   0.80883   0.56631   0.00000  Uiso   1.00
Cu961  Cu    0.11978   0.83333   0.75000   0.00000  Uiso   1.00
Cu962  Cu    0.21355   0.83334   0.75000   0.00000  Uiso   1.00
H963   H     0.28050   0.80248   0.58597   0.00000  Uiso   1.00
H964   H     0.02423   0.85228   0.51277   0.00000  Uiso   1.00
H965   H     0.20982   0.78307   0.87260   0.00000  Uiso   1.00
H966   H     0.23720   0.96166   0.69720   0.00000  Uiso   1.00
H967   H     0.26383   0.87711   0.85751   0.00000  Uiso   1.00
H968   H     0.27693   0.91497   0.81277   0.00000  Uiso   1.00
H969   H     0.02469   0.87964   0.92344   0.00000  Uiso   1.00
H970   H     0.01059   0.82917   0.92314   0.00000  Uiso   1.00
H971   H     0.23750   0.70345   0.69704   0.00000  Uiso   1.00
H972   H     0.02631   0.87697   0.81141   0.00000  Uiso   1.00
H973   H     0.06097   0.78905   0.68869   0.00000  Uiso   1.00
H974   H     0.30733   0.78900   0.68882   0.00000  Uiso   1.00
H975   H     0.27037   0.77400   0.91683   0.00000  Uiso   1.00
H976   H     0.29793   0.78281   0.99398   0.00000  Uiso   1.00
H977   H     0.14035   0.85063   0.58865   0.00000  Uiso   1.00
H978   H     0.08222   0.84055   0.55908   0.00000  Uiso   1.00
N979   N     0.04931   0.83332   0.74999   0.00000  Uiso   1.00
N980   N     0.28402   0.83335   0.75000   0.00000  Uiso   1.00
N981   N     0.05273   0.73030   0.85130   0.00000  Uiso   1.00
N982   N     0.05322   0.94116   0.85443   0.00000  Uiso   1.00
N983   N     0.26433   0.88469   0.81964   0.00000  Uiso   1.00
N984   N     0.03917   0.85034   0.91103   0.00000  Uiso   1.00
O985   O     0.12708   0.89345   0.75001   0.00000  Uiso   1.00
O986   O     0.20627   0.89346   0.75001   0.00000  Uiso   1.00
O987   O     0.10775   0.83332   0.82549   0.00000  Uiso   1.00
O988   O     0.18694   0.83333   0.82549   0.00000  Uiso   1.00
O989   O     0.12706   0.77321   0.75000   0.00000  Uiso   1.00
O990   O     0.20625   0.77322   0.75000   0.00000  Uiso   1.00
O991   O     0.14640   0.83334   0.67451   0.00000  Uiso   1.00
O992   O     0.22559   0.83335   0.67451   0.00000  Uiso   1.00
C993   C     0.49950   0.91257   0.75155   0.00000  Uiso   1.00
C994   C     0.45705   0.82887   0.90810   0.00000  Uiso   1.00
C995   C     0.53930   0.97830   0.72260   0.00000  Uiso   1.00
C996   C     0.47360   0.83131   0.85026   0.00000  Uiso   1.00
C997   C     0.53949   0.68759   0.72250   0.00000  Uiso   1.00
C998   C     0.49898   0.70961   0.75378   0.00000  Uiso   1.00
C999   C     0.45849   0.68897   0.78738   0.00000  Uiso   1.00
C1000  C     0.45845   0.97909   0.78771   0.00000  Uiso   1.00
C1001  C     0.49869   0.95726   0.75412   0.00000  Uiso   1.00
C1002  C     0.63224   0.85809   0.78405   0.00000  Uiso   1.00
C1003  C     0.34855   0.85769   0.78409   0.00000  Uiso   1.00
C1004  C     0.47790   0.82576   0.99014   0.00000  Uiso   1.00
C1005  C     0.36785   0.80878   0.71595   0.00000  Uiso   1.00
C1006  C     0.65157   0.80873   0.71603   0.00000  Uiso   1.00
C1007  C     0.49977   0.75415   0.75097   0.00000  Uiso   1.00
C1008  C     0.52629   0.83254   0.64996   0.00000  Uiso   1.00
C1009  C     0.59630   0.79723   0.51410   0.00000  Uiso   1.00
C1010  C     0.54131   0.82668   0.59330   0.00000  Uiso   1.00
C1011  C     0.40846   0.84085   0.93666   0.00000  Uiso   1.00
C1012  C     0.39486   0.84377   0.99087   0.00000  Uiso   1.00
C1013  C     0.42908   0.83750   0.51719   0.00000  Uiso   1.00
C1014  C     0.41815   0.71196   0.82296   0.00000  Uiso   1.00
C1015  C     0.49028   0.81719   0.93585   0.00000  Uiso   1.00
C1016  C     0.41855   0.95771   0.82457   0.00000  Uiso   1.00
C1017  C     0.51444   0.82108   0.51570   0.00000  Uiso   1.00
C1018  C     0.56044   0.80288   0.98874   0.00000  Uiso   1.00
C1019  C     0.56957   0.78958   0.93726   0.00000  Uiso   1.00
C1020  C     0.53493   0.79620   0.91137   0.00000  Uiso   1.00
C1021  C     0.50668   0.83432   0.56736   0.00000  Uiso   1.00
C1022  C     0.58666   0.80883   0.56631   0.00000  Uiso   1.00
Cu1023 Cu    0.45311   0.83333   0.75000   0.00000  Uiso   1.00
Cu1024 Cu    0.54689   0.83334   0.75000   0.00000  Uiso   1.00
H1025  H     0.61383   0.80248   0.58597   0.00000  Uiso   1.00
H1026  H     0.35756   0.85228   0.51277   0.00000  Uiso   1.00
H1027  H     0.54315   0.78307   0.87260   0.00000  Uiso   1.00
H1028  H     0.57054   0.96166   0.69720   0.00000  Uiso   1.00
H1029  H     0.59717   0.87711   0.85751   0.00000  Uiso   1.00
H1030  H     0.61026   0.91497   0.81277   0.00000  Uiso   1.00
H1031  H     0.35802   0.87964   0.92344   0.00000  Uiso   1.00
H1032  H     0.34392   0.82917   0.92314   0.00000  Uiso   1.00
H1033  H     0.57084   0.70345   0.69704   0.00000  Uiso   1.00
H1034  H     0.35964   0.87697   0.81141   0.00000  Uiso   1.00
H1035  H     0.39431   0.78905   0.68869   0.00000  Uiso   1.00
H1036  H     0.64066   0.78900   0.68882   0.00000  Uiso   1.00
H1037  H     0.60371   0.77400   0.91683   0.00000  Uiso   1.00
H1038  H     0.63127   0.78281   0.99398   0.00000  Uiso   1.00
H1039  H     0.47368   0.85063   0.58865   0.00000  Uiso   1.00
H1040  H     0.41555   0.84055   0.55908   0.00000  Uiso   1.00
N1041  N     0.38265   0.83332   0.74999   0.00000  Uiso   1.00
N1042  N     0.61735   0.83335   0.75000   0.00000  Uiso   1.00
N1043  N     0.38606   0.73030   0.85130   0.00000  Uiso   1.00
N1044  N     0.38656   0.94116   0.85443   0.00000  Uiso   1.00
N1045  N     0.59766   0.88469   0.81964   0.00000  Uiso   1.00
N1046  N     0.37250   0.85034   0.91103   0.00000  Uiso   1.00
O1047  O     0.46042   0.89345   0.75001   0.00000  Uiso   1.00
O1048  O     0.53961   0.89346   0.75001   0.00000  Uiso   1.00
O1049  O     0.44108   0.83332   0.82549   0.00000  Uiso   1.00
O1050  O     0.52027   0.83333   0.82549   0.00000  Uiso   1.00
O1051  O     0.46039   0.77321   0.75000   0.00000  Uiso   1.00
O1052  O     0.53958   0.77322   0.75000   0.00000  Uiso   1.00
O1053  O     0.47973   0.83334   0.67451   0.00000  Uiso   1.00
O1054  O     0.55892   0.83335   0.67451   0.00000  Uiso   1.00
C1055  C     0.83283   0.91257   0.75155   0.00000  Uiso   1.00
C1056  C     0.79039   0.82887   0.90810   0.00000  Uiso   1.00
C1057  C     0.87264   0.97830   0.72260   0.00000  Uiso   1.00
C1058  C     0.80693   0.83131   0.85026   0.00000  Uiso   1.00
C1059  C     0.87282   0.68759   0.72250   0.00000  Uiso   1.00
C1060  C     0.83232   0.70961   0.75378   0.00000  Uiso   1.00
C1061  C     0.79183   0.68897   0.78738   0.00000  Uiso   1.00
C1062  C     0.79179   0.97909   0.78771   0.00000  Uiso   1.00
C1063  C     0.83203   0.95726   0.75412   0.00000  Uiso   1.00
C1064  C     0.96557   0.85809   0.78405   0.00000  Uiso   1.00
C1065  C     0.68188   0.85769   0.78409   0.00000  Uiso   1.00
C1066  C     0.81123   0.82576   0.99014   0.00000  Uiso   1.00
C1067  C     0.70118   0.80878   0.71595   0.00000  Uiso   1.00
C1068  C     0.98490   0.80873   0.71603   0.00000  Uiso   1.00
C1069  C     0.83310   0.75415   0.75097   0.00000  Uiso   1.00
C1070  C     0.85963   0.83254   0.64996   0.00000  Uiso   1.00
C1071  C     0.92964   0.79723   0.51410   0.00000  Uiso   1.00
C1072  C     0.87464   0.82668   0.59330   0.00000  Uiso   1.00
C1073  C     0.74179   0.84085   0.93666   0.00000  Uiso   1.00
C1074  C     0.72819   0.84377   0.99087   0.00000  Uiso   1.00
C1075  C     0.76241   0.83750   0.51719   0.00000  Uiso   1.00
C1076  C     0.75149   0.71196   0.82296   0.00000  Uiso   1.00
C1077  C     0.82361   0.81719   0.93585   0.00000  Uiso   1.00
C1078  C     0.75188   0.95771   0.82457   0.00000  Uiso   1.00
C1079  C     0.84777   0.82108   0.51570   0.00000  Uiso   1.00
C1080  C     0.89377   0.80288   0.98874   0.00000  Uiso   1.00
C1081  C     0.90290   0.78958   0.93726   0.00000  Uiso   1.00
C1082  C     0.86827   0.79620   0.91137   0.00000  Uiso   1.00
C1083  C     0.84002   0.83432   0.56736   0.00000  Uiso   1.00
C1084  C     0.92000   0.80883   0.56631   0.00000  Uiso   1.00
Cu1085 Cu    0.78645   0.83333   0.75000   0.00000  Uiso   1.00
Cu1086 Cu    0.88022   0.83334   0.75000   0.00000  Uiso   1.00
H1087  H     0.94716   0.80248   0.58597   0.00000  Uiso   1.00
H1088  H     0.69089   0.85228   0.51277   0.00000  Uiso   1.00
H1089  H     0.87648   0.78307   0.87260   0.00000  Uiso   1.00
H1090  H     0.90387   0.96166   0.69720   0.00000  Uiso   1.00
H1091  H     0.93050   0.87711   0.85751   0.00000  Uiso   1.00
H1092  H     0.94359   0.91497   0.81277   0.00000  Uiso   1.00
H1093  H     0.69136   0.87964   0.92344   0.00000  Uiso   1.00
H1094  H     0.67726   0.82917   0.92314   0.00000  Uiso   1.00
H1095  H     0.90417   0.70345   0.69704   0.00000  Uiso   1.00
H1096  H     0.69298   0.87697   0.81141   0.00000  Uiso   1.00
H1097  H     0.72764   0.78905   0.68869   0.00000  Uiso   1.00
H1098  H     0.97400   0.78900   0.68882   0.00000  Uiso   1.00
H1099  H     0.93704   0.77400   0.91683   0.00000  Uiso   1.00
H1100  H     0.96460   0.78281   0.99398   0.00000  Uiso   1.00
H1101  H     0.80701   0.85063   0.58865   0.00000  Uiso   1.00
H1102  H     0.74888   0.84055   0.55908   0.00000  Uiso   1.00
N1103  N     0.71598   0.83332   0.74999   0.00000  Uiso   1.00
N1104  N     0.95069   0.83335   0.75000   0.00000  Uiso   1.00
N1105  N     0.71939   0.73030   0.85130   0.00000  Uiso   1.00
N1106  N     0.71989   0.94116   0.85443   0.00000  Uiso   1.00
N1107  N     0.93100   0.88469   0.81964   0.00000  Uiso   1.00
N1108  N     0.70584   0.85034   0.91103   0.00000  Uiso   1.00
O1109  O     0.79375   0.89345   0.75001   0.00000  Uiso   1.00
O1110  O     0.87294   0.89346   0.75001   0.00000  Uiso   1.00
O1111  O     0.77441   0.83332   0.82549   0.00000  Uiso   1.00
O1112  O     0.85360   0.83333   0.82549   0.00000  Uiso   1.00
O1113  O     0.79373   0.77321   0.75000   0.00000  Uiso   1.00
O1114  O     0.87292   0.77322   0.75000   0.00000  Uiso   1.00
O1115  O     0.81306   0.83334   0.67451   0.00000  Uiso   1.00
O1116  O     0.89225   0.83335   0.67451   0.00000  Uiso   1.00
loop_
_geom_bond_atom_site_label_1
_geom_bond_atom_site_label_2
_geom_bond_distance
_geom_bond_site_symmetry_2
_ccdc_geom_bond_type
C1     O55     1.291   .     A
C1     O56     1.290   .     A
C1     C9      1.449   .     S
C2     C4      1.485   .     S
C2     C23     1.426   .     A
C2     C19     1.419   .     A
C3     C9      1.397   .     A
C3     H36     1.084   .     S
C3     C191    1.382   .     S
C4     O57     1.298   .     A
C4     O58     1.300   .     A
C5     C6      1.397   .     A
C5     H41     1.084   .     S
C5     C375    1.382   1_545 S
C6     C7      1.410   .     A
C6     C15     1.447   .     S
C7     C22     1.453   .     S
C7     C380    1.401   1_545 S
C8     C24     1.449   .     S
C8     C9      1.412   .     A
C8     C193    1.401   .     S
C10    N50     1.373   .     A
C10    N53     1.429   .     S
C10    C73     1.419   .     S
C11    N49     1.362   .     A
C11    H42     1.078   .     S
C11    C134    1.419   1_455 S
C12    C23     1.418   .     A
C12    C579    1.413   .     S
C12    C583    1.421   .     S
C13    N49     1.368   .     A
C13    H43     1.082   .     S
C13    C138    1.417   1_455 S
C14    N50     1.367   .     A
C14    H44     1.082   .     S
C14    C75     1.417   .     S
C15    O60     1.290   .     A
C15    O59     1.289   .     A
C16    O62     1.295   .     A
C16    O61     1.294   .     A
C16    C18     1.463   .     S
C17    C30     1.394   .     A
C17    C584    1.404   1_554 S
C17    H604    1.084   1_554 S
C18    C29     1.395   .     A
C18    C30     1.400   .     A
C19    C20     1.392   .     A
C19    N54     1.433   .     S
C20    C579    1.385   .     S
C20    H592    1.084   .     S
C21    H48     1.078   .     S
C21    C570    1.413   1_554 S
C21    C578    1.385   1_554 S
C22    N51     1.158   .     T
C23    C28     1.415   .     A
C24    N52     1.156   .     T
C25    C29     1.401   .     A
C25    C570    1.421   1_554 S
C25    C584    1.418   1_554 S
C26    C27     1.392   .     A
C26    C575    1.404   .     S
C26    C583    1.418   .     S
C27    H45     1.084   .     S
C27    C28     1.389   .     A
C28    H35     1.079   .     S
C29    H47     1.077   .     S
C30    H33     1.083   .     S
Cu31   O61     1.940   .     S
Cu31   N49     2.014   .     S
Cu31   O55     1.961   .     S
Cu31   O57     1.953   .     S
Cu31   Cu32    2.679   .     S
Cu31   O59     1.959   .     S
Cu32   O58     1.940   .     S
Cu32   N50     2.013   .     S
Cu32   O60     1.961   .     S
Cu32   O62     1.953   .     S
Cu32   O56     1.959   .     S
H34    C578    1.084   1_554 S
H37    N53     1.046   .     S
H38    N53     1.046   .     S
H39    N54     1.045   .     S
H40    N54     1.045   .     S
H46    C575    1.084   .     S
C63    O117    1.291   .     A
C63    O118    1.290   .     A
C63    C71     1.449   .     S
C64    C66     1.485   .     S
C64    C85     1.426   .     A
C64    C81     1.419   .     A
C65    C71     1.397   .     A
C65    H98     1.084   .     S
C65    C253    1.382   .     S
C66    O119    1.298   .     A
C66    O120    1.300   .     A
C67    C68     1.397   .     A
C67    H103    1.084   .     S
C67    C437    1.382   1_545 S
C68    C69     1.410   .     A
C68    C77     1.447   .     S
C69    C84     1.453   .     S
C69    C442    1.401   1_545 S
C70    C86     1.449   .     S
C70    C71     1.412   .     A
C70    C255    1.401   .     S
C72    N112    1.373   .     A
C72    N115    1.429   .     S
C72    C135    1.419   .     S
C73    N111    1.362   .     A
C73    H104    1.078   .     S
C74    C85     1.418   .     A
C74    C641    1.413   .     S
C74    C645    1.421   .     S
C75    N111    1.368   .     A
C75    H105    1.082   .     S
C76    N112    1.367   .     A
C76    H106    1.082   .     S
C76    C137    1.417   .     S
C77    O122    1.290   .     A
C77    O121    1.289   .     A
C78    O124    1.295   .     A
C78    O123    1.294   .     A
C78    C80     1.463   .     S
C79    C92     1.394   .     A
C79    C646    1.404   1_554 S
C79    H666    1.084   1_554 S
C80    C91     1.395   .     A
C80    C92     1.400   .     A
C81    C82     1.392   .     A
C81    N116    1.433   .     S
C82    C641    1.385   .     S
C82    H654    1.084   .     S
C83    H110    1.078   .     S
C83    C632    1.413   1_554 S
C83    C640    1.385   1_554 S
C84    N113    1.158   .     T
C85    C90     1.415   .     A
C86    N114    1.156   .     T
C87    C91     1.401   .     A
C87    C632    1.421   1_554 S
C87    C646    1.418   1_554 S
C88    C89     1.392   .     A
C88    C637    1.404   .     S
C88    C645    1.418   .     S
C89    H107    1.084   .     S
C89    C90     1.389   .     A
C90    H97     1.079   .     S
C91    H109    1.077   .     S
C92    H95     1.083   .     S
Cu93   O123    1.940   .     S
Cu93   N111    2.014   .     S
Cu93   O117    1.961   .     S
Cu93   O119    1.953   .     S
Cu93   Cu94    2.679   .     S
Cu93   O121    1.959   .     S
Cu94   O120    1.940   .     S
Cu94   N112    2.013   .     S
Cu94   O122    1.961   .     S
Cu94   O124    1.953   .     S
Cu94   O118    1.959   .     S
H96    C640    1.084   1_554 S
H99    N115    1.046   .     S
H100   N115    1.046   .     S
H101   N116    1.045   .     S
H102   N116    1.045   .     S
H108   C637    1.084   .     S
C125   O179    1.291   .     A
C125   O180    1.290   .     A
C125   C133    1.449   .     S
C126   C128    1.485   .     S
C126   C147    1.426   .     A
C126   C143    1.419   .     A
C127   C133    1.397   .     A
C127   H160    1.084   .     S
C127   C315    1.382   .     S
C128   O181    1.298   .     A
C128   O182    1.300   .     A
C129   C130    1.397   .     A
C129   H165    1.084   .     S
C129   C499    1.382   1_545 S
C130   C131    1.410   .     A
C130   C139    1.447   .     S
C131   C146    1.453   .     S
C131   C504    1.401   1_545 S
C132   C148    1.449   .     S
C132   C133    1.412   .     A
C132   C317    1.401   .     S
C134   N174    1.373   .     A
C134   N177    1.429   .     S
C134   C11     1.419   1_655 S
C135   N173    1.362   .     A
C135   H166    1.078   .     S
C136   C147    1.418   .     A
C136   C703    1.413   .     S
C136   C707    1.421   .     S
C137   N173    1.368   .     A
C137   H167    1.082   .     S
C138   N174    1.367   .     A
C138   H168    1.082   .     S
C138   C13     1.417   1_655 S
C139   O184    1.290   .     A
C139   O183    1.289   .     A
C140   O186    1.295   .     A
C140   O185    1.294   .     A
C140   C142    1.463   .     S
C141   C154    1.394   .     A
C141   C708    1.404   1_554 S
C141   H728    1.084   1_554 S
C142   C153    1.395   .     A
C142   C154    1.400   .     A
C143   C144    1.392   .     A
C143   N178    1.433   .     S
C144   C703    1.385   .     S
C144   H716    1.084   .     S
C145   H172    1.078   .     S
C145   C694    1.413   1_554 S
C145   C702    1.385   1_554 S
C146   N175    1.158   .     T
C147   C152    1.415   .     A
C148   N176    1.156   .     T
C149   C153    1.401   .     A
C149   C694    1.421   1_554 S
C149   C708    1.418   1_554 S
C150   C151    1.392   .     A
C150   C699    1.404   .     S
C150   C707    1.418   .     S
C151   H169    1.084   .     S
C151   C152    1.389   .     A
C152   H159    1.079   .     S
C153   H171    1.077   .     S
C154   H157    1.083   .     S
Cu155  O185    1.940   .     S
Cu155  N173    2.014   .     S
Cu155  O179    1.961   .     S
Cu155  O181    1.953   .     S
Cu155  Cu156   2.679   .     S
Cu155  O183    1.959   .     S
Cu156  O182    1.940   .     S
Cu156  N174    2.013   .     S
Cu156  O184    1.961   .     S
Cu156  O186    1.953   .     S
Cu156  O180    1.959   .     S
H158   C702    1.084   1_554 S
H161   N177    1.046   .     S
H162   N177    1.046   .     S
H163   N178    1.045   .     S
H164   N178    1.045   .     S
H170   C699    1.084   .     S
C187   O241    1.291   .     A
C187   O242    1.290   .     A
C187   C195    1.449   .     S
C188   C190    1.485   .     S
C188   C209    1.426   .     A
C188   C205    1.419   .     A
C189   C195    1.397   .     A
C189   H222    1.084   .     S
C189   C377    1.382   .     S
C190   O243    1.298   .     A
C190   O244    1.300   .     A
C191   C192    1.397   .     A
C191   H227    1.084   .     S
C192   C193    1.410   .     A
C192   C201    1.447   .     S
C193   C208    1.453   .     S
C194   C210    1.449   .     S
C194   C195    1.412   .     A
C194   C379    1.401   .     S
C196   N236    1.373   .     A
C196   N239    1.429   .     S
C196   C259    1.419   .     S
C197   N235    1.362   .     A
C197   H228    1.078   .     S
C197   C320    1.419   1_455 S
C198   C209    1.418   .     A
C198   C765    1.413   .     S
C198   C769    1.421   .     S
C199   N235    1.368   .     A
C199   H229    1.082   .     S
C199   C324    1.417   1_455 S
C200   N236    1.367   .     A
C200   H230    1.082   .     S
C200   C261    1.417   .     S
C201   O246    1.290   .     A
C201   O245    1.289   .     A
C202   O248    1.295   .     A
C202   O247    1.294   .     A
C202   C204    1.463   .     S
C203   C216    1.394   .     A
C203   C770    1.404   1_554 S
C203   H790    1.084   1_554 S
C204   C215    1.395   .     A
C204   C216    1.400   .     A
C205   C206    1.392   .     A
C205   N240    1.433   .     S
C206   C765    1.385   .     S
C206   H778    1.084   .     S
C207   H234    1.078   .     S
C207   C756    1.413   1_554 S
C207   C764    1.385   1_554 S
C208   N237    1.158   .     T
C209   C214    1.415   .     A
C210   N238    1.156   .     T
C211   C215    1.401   .     A
C211   C756    1.421   1_554 S
C211   C770    1.418   1_554 S
C212   C213    1.392   .     A
C212   C761    1.404   .     S
C212   C769    1.418   .     S
C213   H231    1.084   .     S
C213   C214    1.389   .     A
C214   H221    1.079   .     S
C215   H233    1.077   .     S
C216   H219    1.083   .     S
Cu217  O247    1.940   .     S
Cu217  N235    2.014   .     S
Cu217  O241    1.961   .     S
Cu217  O243    1.953   .     S
Cu217  Cu218   2.679   .     S
Cu217  O245    1.959   .     S
Cu218  O244    1.940   .     S
Cu218  N236    2.013   .     S
Cu218  O246    1.961   .     S
Cu218  O248    1.953   .     S
Cu218  O242    1.959   .     S
H220   C764    1.084   1_554 S
H223   N239    1.046   .     S
H224   N239    1.046   .     S
H225   N240    1.045   .     S
H226   N240    1.045   .     S
H232   C761    1.084   .     S
C249   O303    1.291   .     A
C249   O304    1.290   .     A
C249   C257    1.449   .     S
C250   C252    1.485   .     S
C250   C271    1.426   .     A
C250   C267    1.419   .     A
C251   C257    1.397   .     A
C251   H284    1.084   .     S
C251   C439    1.382   .     S
C252   O305    1.298   .     A
C252   O306    1.300   .     A
C253   C254    1.397   .     A
C253   H289    1.084   .     S
C254   C255    1.410   .     A
C254   C263    1.447   .     S
C255   C270    1.453   .     S
C256   C272    1.449   .     S
C256   C257    1.412   .     A
C256   C441    1.401   .     S
C258   N298    1.373   .     A
C258   N301    1.429   .     S
C258   C321    1.419   .     S
C259   N297    1.362   .     A
C259   H290    1.078   .     S
C260   C271    1.418   .     A
C260   C827    1.413   .     S
C260   C831    1.421   .     S
C261   N297    1.368   .     A
C261   H291    1.082   .     S
C262   N298    1.367   .     A
C262   H292    1.082   .     S
C262   C323    1.417   .     S
C263   O308    1.290   .     A
C263   O307    1.289   .     A
C264   O310    1.295   .     A
C264   O309    1.294   .     A
C264   C266    1.463   .     S
C265   C278    1.394   .     A
C265   C832    1.404   1_554 S
C265   H852    1.084   1_554 S
C266   C277    1.395   .     A
C266   C278    1.400   .     A
C267   C268    1.392   .     A
C267   N302    1.433   .     S
C268   C827    1.385   .     S
C268   H840    1.084   .     S
C269   H296    1.078   .     S
C269   C818    1.413   1_554 S
C269   C826    1.385   1_554 S
C270   N299    1.158   .     T
C271   C276    1.415   .     A
C272   N300    1.156   .     T
C273   C277    1.401   .     A
C273   C818    1.421   1_554 S
C273   C832    1.418   1_554 S
C274   C275    1.392   .     A
C274   C823    1.404   .     S
C274   C831    1.418   .     S
C275   H293    1.084   .     S
C275   C276    1.389   .     A
C276   H283    1.079   .     S
C277   H295    1.077   .     S
C278   H281    1.083   .     S
Cu279  O309    1.940   .     S
Cu279  N297    2.014   .     S
Cu279  O303    1.961   .     S
Cu279  O305    1.953   .     S
Cu279  Cu280   2.679   .     S
Cu279  O307    1.959   .     S
Cu280  O306    1.940   .     S
Cu280  N298    2.013   .     S
Cu280  O308    1.961   .     S
Cu280  O310    1.953   .     S
Cu280  O304    1.959   .     S
H282   C826    1.084   1_554 S
H285   N301    1.046   .     S
H286   N301    1.046   .     S
H287   N302    1.045   .     S
H288   N302    1.045   .     S
H294   C823    1.084   .     S
C311   O365    1.291   .     A
C311   O366    1.290   .     A
C311   C319    1.449   .     S
C312   C314    1.485   .     S
C312   C333    1.426   .     A
C312   C329    1.419   .     A
C313   C319    1.397   .     A
C313   H346    1.084   .     S
C313   C501    1.382   .     S
C314   O367    1.298   .     A
C314   O368    1.300   .     A
C315   C316    1.397   .     A
C315   H351    1.084   .     S
C316   C317    1.410   .     A
C316   C325    1.447   .     S
C317   C332    1.453   .     S
C318   C334    1.449   .     S
C318   C319    1.412   .     A
C318   C503    1.401   .     S
C320   N360    1.373   .     A
C320   N363    1.429   .     S
C320   C197    1.419   1_655 S
C321   N359    1.362   .     A
C321   H352    1.078   .     S
C322   C333    1.418   .     A
C322   C889    1.413   .     S
C322   C893    1.421   .     S
C323   N359    1.368   .     A
C323   H353    1.082   .     S
C324   N360    1.367   .     A
C324   H354    1.082   .     S
C324   C199    1.417   1_655 S
C325   O370    1.290   .     A
C325   O369    1.289   .     A
C326   O372    1.295   .     A
C326   O371    1.294   .     A
C326   C328    1.463   .     S
C327   C340    1.394   .     A
C327   C894    1.404   1_554 S
C327   H914    1.084   1_554 S
C328   C339    1.395   .     A
C328   C340    1.400   .     A
C329   C330    1.392   .     A
C329   N364    1.433   .     S
C330   C889    1.385   .     S
C330   H902    1.084   .     S
C331   H358    1.078   .     S
C331   C880    1.413   1_554 S
C331   C888    1.385   1_554 S
C332   N361    1.158   .     T
C333   C338    1.415   .     A
C334   N362    1.156   .     T
C335   C339    1.401   .     A
C335   C880    1.421   1_554 S
C335   C894    1.418   1_554 S
C336   C337    1.392   .     A
C336   C885    1.404   .     S
C336   C893    1.418   .     S
C337   H355    1.084   .     S
C337   C338    1.389   .     A
C338   H345    1.079   .     S
C339   H357    1.077   .     S
C340   H343    1.083   .     S
Cu341  O371    1.940   .     S
Cu341  N359    2.014   .     S
Cu341  O365    1.961   .     S
Cu341  O367    1.953   .     S
Cu341  Cu342   2.679   .     S
Cu341  O369    1.959   .     S
Cu342  O368    1.940   .     S
Cu342  N360    2.013   .     S
Cu342  O370    1.961   .     S
Cu342  O372    1.953   .     S
Cu342  O366    1.959   .     S
H344   C888    1.084   1_554 S
H347   N363    1.046   .     S
H348   N363    1.046   .     S
H349   N364    1.045   .     S
H350   N364    1.045   .     S
H356   C885    1.084   .     S
C373   O427    1.291   .     A
C373   O428    1.290   .     A
C373   C381    1.449   .     S
C374   C376    1.485   .     S
C374   C395    1.426   .     A
C374   C391    1.419   .     A
C375   C381    1.397   .     A
C375   H408    1.084   .     S
C375   C5      1.382   1_565 S
C376   O429    1.298   .     A
C376   O430    1.300   .     A
C377   C378    1.397   .     A
C377   H413    1.084   .     S
C378   C379    1.410   .     A
C378   C387    1.447   .     S
C379   C394    1.453   .     S
C380   C396    1.449   .     S
C380   C381    1.412   .     A
C380   C7      1.401   1_565 S
C382   N422    1.373   .     A
C382   N425    1.429   .     S
C382   C445    1.419   .     S
C383   N421    1.362   .     A
C383   H414    1.078   .     S
C383   C506    1.419   1_455 S
C384   C395    1.418   .     A
C384   C951    1.413   .     S
C384   C955    1.421   .     S
C385   N421    1.368   .     A
C385   H415    1.082   .     S
C385   C510    1.417   1_455 S
C386   N422    1.367   .     A
C386   H416    1.082   .     S
C386   C447    1.417   .     S
C387   O432    1.290   .     A
C387   O431    1.289   .     A
C388   O434    1.295   .     A
C388   O433    1.294   .     A
C388   C390    1.463   .     S
C389   C402    1.394   .     A
C389   C956    1.404   1_554 S
C389   H976    1.084   1_554 S
C390   C401    1.395   .     A
C390   C402    1.400   .     A
C391   C392    1.392   .     A
C391   N426    1.433   .     S
C392   C951    1.385   .     S
C392   H964    1.084   .     S
C393   H420    1.078   .     S
C393   C942    1.413   1_554 S
C393   C950    1.385   1_554 S
C394   N423    1.158   .     T
C395   C400    1.415   .     A
C396   N424    1.156   .     T
C397   C401    1.401   .     A
C397   C942    1.421   1_554 S
C397   C956    1.418   1_554 S
C398   C399    1.392   .     A
C398   C947    1.404   .     S
C398   C955    1.418   .     S
C399   H417    1.084   .     S
C399   C400    1.389   .     A
C400   H407    1.079   .     S
C401   H419    1.077   .     S
C402   H405    1.083   .     S
Cu403  O433    1.940   .     S
Cu403  N421    2.014   .     S
Cu403  O427    1.961   .     S
Cu403  O429    1.953   .     S
Cu403  Cu404   2.679   .     S
Cu403  O431    1.959   .     S
Cu404  O430    1.940   .     S
Cu404  N422    2.013   .     S
Cu404  O432    1.961   .     S
Cu404  O434    1.953   .     S
Cu404  O428    1.959   .     S
H406   C950    1.084   1_554 S
H409   N425    1.046   .     S
H410   N425    1.046   .     S
H411   N426    1.045   .     S
H412   N426    1.045   .     S
H418   C947    1.084   .     S
C435   O489    1.291   .     A
C435   O490    1.290   .     A
C435   C443    1.449   .     S
C436   C438    1.485   .     S
C436   C457    1.426   .     A
C436   C453    1.419   .     A
C437   C443    1.397   .     A
C437   H470    1.084   .     S
C437   C67     1.382   1_565 S
C438   O491    1.298   .     A
C438   O492    1.300   .     A
C439   C440    1.397   .     A
C439   H475    1.084   .     S
C440   C441    1.410   .     A
C440   C449    1.447   .     S
C441   C456    1.453   .     S
C442   C458    1.449   .     S
C442   C443    1.412   .     A
C442   C69     1.401   1_565 S
C444   N484    1.373   .     A
C444   N487    1.429   .     S
C444   C507    1.419   .     S
C445   N483    1.362   .     A
C445   H476    1.078   .     S
C446   C457    1.418   .     A
C446   C1013   1.413   .     S
C446   C1017   1.421   .     S
C447   N483    1.368   .     A
C447   H477    1.082   .     S
C448   N484    1.367   .     A
C448   H478    1.082   .     S
C448   C509    1.417   .     S
C449   O494    1.290   .     A
C449   O493    1.289   .     A
C450   O496    1.295   .     A
C450   O495    1.294   .     A
C450   C452    1.463   .     S
C451   C464    1.394   .     A
C451   C1018   1.404   1_554 S
C451   H1038   1.084   1_554 S
C452   C463    1.395   .     A
C452   C464    1.400   .     A
C453   C454    1.392   .     A
C453   N488    1.433   .     S
C454   C1013   1.385   .     S
C454   H1026   1.084   .     S
C455   H482    1.078   .     S
C455   C1004   1.413   1_554 S
C455   C1012   1.385   1_554 S
C456   N485    1.158   .     T
C457   C462    1.415   .     A
C458   N486    1.156   .     T
C459   C463    1.401   .     A
C459   C1004   1.421   1_554 S
C459   C1018   1.418   1_554 S
C460   C461    1.392   .     A
C460   C1009   1.404   .     S
C460   C1017   1.418   .     S
C461   H479    1.084   .     S
C461   C462    1.389   .     A
C462   H469    1.079   .     S
C463   H481    1.077   .     S
C464   H467    1.083   .     S
Cu465  O495    1.940   .     S
Cu465  N483    2.014   .     S
Cu465  O489    1.961   .     S
Cu465  O491    1.953   .     S
Cu465  Cu466   2.679   .     S
Cu465  O493    1.959   .     S
Cu466  O492    1.940   .     S
Cu466  N484    2.013   .     S
Cu466  O494    1.961   .     S
Cu466  O496    1.953   .     S
Cu466  O490    1.959   .     S
H468   C1012   1.084   1_554 S
H471   N487    1.046   .     S
H472   N487    1.046   .     S
H473   N488    1.045   .     S
H474   N488    1.045   .     S
H480   C1009   1.084   .     S
C497   O551    1.291   .     A
C497   O552    1.290   .     A
C497   C505    1.449   .     S
C498   C500    1.485   .     S
C498   C519    1.426   .     A
C498   C515    1.419   .     A
C499   C505    1.397   .     A
C499   H532    1.084   .     S
C499   C129    1.382   1_565 S
C500   O553    1.298   .     A
C500   O554    1.300   .     A
C501   C502    1.397   .     A
C501   H537    1.084   .     S
C502   C503    1.410   .     A
C502   C511    1.447   .     S
C503   C518    1.453   .     S
C504   C520    1.449   .     S
C504   C505    1.412   .     A
C504   C131    1.401   1_565 S
C506   N546    1.373   .     A
C506   N549    1.429   .     S
C506   C383    1.419   1_655 S
C507   N545    1.362   .     A
C507   H538    1.078   .     S
C508   C519    1.418   .     A
C508   C1075   1.413   .     S
C508   C1079   1.421   .     S
C509   N545    1.368   .     A
C509   H539    1.082   .     S
C510   N546    1.367   .     A
C510   H540    1.082   .     S
C510   C385    1.417   1_655 S
C511   O556    1.290   .     A
C511   O555    1.289   .     A
C512   O558    1.295   .     A
C512   O557    1.294   .     A
C512   C514    1.463   .     S
C513   C526    1.394   .     A
C513   C1080   1.404   1_554 S
C513   H1100   1.084   1_554 S
C514   C525    1.395   .     A
C514   C526    1.400   .     A
C515   C516    1.392   .     A
C515   N550    1.433   .     S
C516   C1075   1.385   .     S
C516   H1088   1.084   .     S
C517   H544    1.078   .     S
C517   C1066   1.413   1_554 S
C517   C1074   1.385   1_554 S
C518   N547    1.158   .     T
C519   C524    1.415   .     A
C520   N548    1.156   .     T
C521   C525    1.401   .     A
C521   C1066   1.421   1_554 S
C521   C1080   1.418   1_554 S
C522   C523    1.392   .     A
C522   C1071   1.404   .     S
C522   C1079   1.418   .     S
C523   H541    1.084   .     S
C523   C524    1.389   .     A
C524   H531    1.079   .     S
C525   H543    1.077   .     S
C526   H529    1.083   .     S
Cu527  O557    1.940   .     S
Cu527  N545    2.014   .     S
Cu527  O551    1.961   .     S
Cu527  O553    1.953   .     S
Cu527  Cu528   2.679   .     S
Cu527  O555    1.959   .     S
Cu528  O554    1.940   .     S
Cu528  N546    2.013   .     S
Cu528  O556    1.961   .     S
Cu528  O558    1.953   .     S
Cu528  O552    1.959   .     S
H530   C1074   1.084   1_554 S
H533   N549    1.046   .     S
H534   N549    1.046   .     S
H535   N550    1.045   .     S
H536   N550    1.045   .     S
H542   C1071   1.084   .     S
C559   O613    1.291   .     A
C559   O614    1.290   .     A
C559   C567    1.449   .     S
C560   C562    1.485   .     S
C560   C581    1.426   .     A
C560   C577    1.419   .     A
C561   C567    1.397   .     A
C561   H594    1.084   .     S
C561   C749    1.382   .     S
C562   O615    1.298   .     A
C562   O616    1.300   .     A
C563   C564    1.397   .     A
C563   H599    1.084   .     S
C563   C933    1.382   1_545 S
C564   C565    1.410   .     A
C564   C573    1.447   .     S
C565   C580    1.453   .     S
C565   C938    1.401   1_545 S
C566   C582    1.449   .     S
C566   C567    1.412   .     A
C566   C751    1.401   .     S
C568   N608    1.373   .     A
C568   N611    1.429   .     S
C568   C631    1.419   .     S
C569   N607    1.362   .     A
C569   H600    1.078   .     S
C569   C692    1.419   1_455 S
C570   C581    1.418   .     A
C570   C21     1.413   1_556 S
C570   C25     1.421   1_556 S
C571   N607    1.368   .     A
C571   H601    1.082   .     S
C571   C696    1.417   1_455 S
C572   N608    1.367   .     A
C572   H602    1.082   .     S
C572   C633    1.417   .     S
C573   O618    1.290   .     A
C573   O617    1.289   .     A
C574   O620    1.295   .     A
C574   O619    1.294   .     A
C574   C576    1.463   .     S
C575   C588    1.394   .     A
C576   C587    1.395   .     A
C576   C588    1.400   .     A
C577   C578    1.392   .     A
C577   N612    1.433   .     S
C578   C21     1.385   1_556 S
C578   H34     1.084   1_556 S
C579   H606    1.078   .     S
C580   N609    1.158   .     T
C581   C586    1.415   .     A
C582   N610    1.156   .     T
C583   C587    1.401   .     A
C584   C585    1.392   .     A
C584   C17     1.404   1_556 S
C584   C25     1.418   1_556 S
C585   H603    1.084   .     S
C585   C586    1.389   .     A
C586   H593    1.079   .     S
C587   H605    1.077   .     S
C588   H591    1.083   .     S
Cu589  O619    1.940   .     S
Cu589  N607    2.014   .     S
Cu589  O613    1.961   .     S
Cu589  O615    1.953   .     S
Cu589  Cu590   2.679   .     S
Cu589  O617    1.959   .     S
Cu590  O616    1.940   .     S
Cu590  N608    2.013   .     S
Cu590  O618    1.961   .     S
Cu590  O620    1.953   .     S
Cu590  O614    1.959   .     S
H595   N611    1.046   .     S
H596   N611    1.046   .     S
H597   N612    1.045   .     S
H598   N612    1.045   .     S
H604   C17     1.084   1_556 S
C621   O675    1.291   .     A
C621   O676    1.290   .     A
C621   C629    1.449   .     S
C622   C624    1.485   .     S
C622   C643    1.426   .     A
C622   C639    1.419   .     A
C623   C629    1.397   .     A
C623   H656    1.084   .     S
C623   C811    1.382   .     S
C624   O677    1.298   .     A
C624   O678    1.300   .     A
C625   C626    1.397   .     A
C625   H661    1.084   .     S
C625   C995    1.382   1_545 S
C626   C627    1.410   .     A
C626   C635    1.447   .     S
C627   C642    1.453   .     S
C627   C1000   1.401   1_545 S
C628   C644    1.449   .     S
C628   C629    1.412   .     A
C628   C813    1.401   .     S
C630   N670    1.373   .     A
C630   N673    1.429   .     S
C630   C693    1.419   .     S
C631   N669    1.362   .     A
C631   H662    1.078   .     S
C632   C643    1.418   .     A
C632   C83     1.413   1_556 S
C632   C87     1.421   1_556 S
C633   N669    1.368   .     A
C633   H663    1.082   .     S
C634   N670    1.367   .     A
C634   H664    1.082   .     S
C634   C695    1.417   .     S
C635   O680    1.290   .     A
C635   O679    1.289   .     A
C636   O682    1.295   .     A
C636   O681    1.294   .     A
C636   C638    1.463   .     S
C637   C650    1.394   .     A
C638   C649    1.395   .     A
C638   C650    1.400   .     A
C639   C640    1.392   .     A
C639   N674    1.433   .     S
C640   C83     1.385   1_556 S
C640   H96     1.084   1_556 S
C641   H668    1.078   .     S
C642   N671    1.158   .     T
C643   C648    1.415   .     A
C644   N672    1.156   .     T
C645   C649    1.401   .     A
C646   C647    1.392   .     A
C646   C79     1.404   1_556 S
C646   C87     1.418   1_556 S
C647   H665    1.084   .     S
C647   C648    1.389   .     A
C648   H655    1.079   .     S
C649   H667    1.077   .     S
C650   H653    1.083   .     S
Cu651  O681    1.940   .     S
Cu651  N669    2.014   .     S
Cu651  O675    1.961   .     S
Cu651  O677    1.953   .     S
Cu651  Cu652   2.679   .     S
Cu651  O679    1.959   .     S
Cu652  O678    1.940   .     S
Cu652  N670    2.013   .     S
Cu652  O680    1.961   .     S
Cu652  O682    1.953   .     S
Cu652  O676    1.959   .     S
H657   N673    1.046   .     S
H658   N673    1.046   .     S
H659   N674    1.045   .     S
H660   N674    1.045   .     S
H666   C79     1.084   1_556 S
C683   O737    1.291   .     A
C683   O738    1.290   .     A
C683   C691    1.449   .     S
C684   C686    1.485   .     S
C684   C705    1.426   .     A
C684   C701    1.419   .     A
C685   C691    1.397   .     A
C685   H718    1.084   .     S
C685   C873    1.382   .     S
C686   O739    1.298   .     A
C686   O740    1.300   .     A
C687   C688    1.397   .     A
C687   H723    1.084   .     S
C687   C1057   1.382   1_545 S
C688   C689    1.410   .     A
C688   C697    1.447   .     S
C689   C704    1.453   .     S
C689   C1062   1.401   1_545 S
C690   C706    1.449   .     S
C690   C691    1.412   .     A
C690   C875    1.401   .     S
C692   N732    1.373   .     A
C692   N735    1.429   .     S
C692   C569    1.419   1_655 S
C693   N731    1.362   .     A
C693   H724    1.078   .     S
C694   C705    1.418   .     A
C694   C145    1.413   1_556 S
C694   C149    1.421   1_556 S
C695   N731    1.368   .     A
C695   H725    1.082   .     S
C696   N732    1.367   .     A
C696   H726    1.082   .     S
C696   C571    1.417   1_655 S
C697   O742    1.290   .     A
C697   O741    1.289   .     A
C698   O744    1.295   .     A
C698   O743    1.294   .     A
C698   C700    1.463   .     S
C699   C712    1.394   .     A
C700   C711    1.395   .     A
C700   C712    1.400   .     A
C701   C702    1.392   .     A
C701   N736    1.433   .     S
C702   C145    1.385   1_556 S
C702   H158    1.084   1_556 S
C703   H730    1.078   .     S
C704   N733    1.158   .     T
C705   C710    1.415   .     A
C706   N734    1.156   .     T
C707   C711    1.401   .     A
C708   C709    1.392   .     A
C708   C141    1.404   1_556 S
C708   C149    1.418   1_556 S
C709   H727    1.084   .     S
C709   C710    1.389   .     A
C710   H717    1.079   .     S
C711   H729    1.077   .     S
C712   H715    1.083   .     S
Cu713  O743    1.940   .     S
Cu713  N731    2.014   .     S
Cu713  O737    1.961   .     S
Cu713  O739    1.953   .     S
Cu713  Cu714   2.679   .     S
Cu713  O741    1.959   .     S
Cu714  O740    1.940   .     S
Cu714  N732    2.013   .     S
Cu714  O742    1.961   .     S
Cu714  O744    1.953   .     S
Cu714  O738    1.959   .     S
H719   N735    1.046   .     S
H720   N735    1.046   .     S
H721   N736    1.045   .     S
H722   N736    1.045   .     S
H728   C141    1.084   1_556 S
C745   O799    1.291   .     A
C745   O800    1.290   .     A
C745   C753    1.449   .     S
C746   C748    1.485   .     S
C746   C767    1.426   .     A
C746   C763    1.419   .     A
C747   C753    1.397   .     A
C747   H780    1.084   .     S
C747   C935    1.382   .     S
C748   O801    1.298   .     A
C748   O802    1.300   .     A
C749   C750    1.397   .     A
C749   H785    1.084   .     S
C750   C751    1.410   .     A
C750   C759    1.447   .     S
C751   C766    1.453   .     S
C752   C768    1.449   .     S
C752   C753    1.412   .     A
C752   C937    1.401   .     S
C754   N794    1.373   .     A
C754   N797    1.429   .     S
C754   C817    1.419   .     S
C755   N793    1.362   .     A
C755   H786    1.078   .     S
C755   C878    1.419   1_455 S
C756   C767    1.418   .     A
C756   C207    1.413   1_556 S
C756   C211    1.421   1_556 S
C757   N793    1.368   .     A
C757   H787    1.082   .     S
C757   C882    1.417   1_455 S
C758   N794    1.367   .     A
C758   H788    1.082   .     S
C758   C819    1.417   .     S
C759   O804    1.290   .     A
C759   O803    1.289   .     A
C760   O806    1.295   .     A
C760   O805    1.294   .     A
C760   C762    1.463   .     S
C761   C774    1.394   .     A
C762   C773    1.395   .     A
C762   C774    1.400   .     A
C763   C764    1.392   .     A
C763   N798    1.433   .     S
C764   C207    1.385   1_556 S
C764   H220    1.084   1_556 S
C765   H792    1.078   .     S
C766   N795    1.158   .     T
C767   C772    1.415   .     A
C768   N796    1.156   .     T
C769   C773    1.401   .     A
C770   C771    1.392   .     A
C770   C203    1.404   1_556 S
C770   C211    1.418   1_556 S
C771   H789    1.084   .     S
C771   C772    1.389   .     A
C772   H779    1.079   .     S
C773   H791    1.077   .     S
C774   H777    1.083   .     S
Cu775  O805    1.940   .     S
Cu775  N793    2.014   .     S
Cu775  O799    1.961   .     S
Cu775  O801    1.953   .     S
Cu775  Cu776   2.679   .     S
Cu775  O803    1.959   .     S
Cu776  O802    1.940   .     S
Cu776  N794    2.013   .     S
Cu776  O804    1.961   .     S
Cu776  O806    1.953   .     S
Cu776  O800    1.959   .     S
H781   N797    1.046   .     S
H782   N797    1.046   .     S
H783   N798    1.045   .     S
H784   N798    1.045   .     S
H790   C203    1.084   1_556 S
C807   O861    1.291   .     A
C807   O862    1.290   .     A
C807   C815    1.449   .     S
C808   C810    1.485   .     S
C808   C829    1.426   .     A
C808   C825    1.419   .     A
C809   C815    1.397   .     A
C809   H842    1.084   .     S
C809   C997    1.382   .     S
C810   O863    1.298   .     A
C810   O864    1.300   .     A
C811   C812    1.397   .     A
C811   H847    1.084   .     S
C812   C813    1.410   .     A
C812   C821    1.447   .     S
C813   C828    1.453   .     S
C814   C830    1.449   .     S
C814   C815    1.412   .     A
C814   C999    1.401   .     S
C816   N856    1.373   .     A
C816   N859    1.429   .     S
C816   C879    1.419   .     S
C817   N855    1.362   .     A
C817   H848    1.078   .     S
C818   C829    1.418   .     A
C818   C269    1.413   1_556 S
C818   C273    1.421   1_556 S
C819   N855    1.368   .     A
C819   H849    1.082   .     S
C820   N856    1.367   .     A
C820   H850    1.082   .     S
C820   C881    1.417   .     S
C821   O866    1.290   .     A
C821   O865    1.289   .     A
C822   O868    1.295   .     A
C822   O867    1.294   .     A
C822   C824    1.463   .     S
C823   C836    1.394   .     A
C824   C835    1.395   .     A
C824   C836    1.400   .     A
C825   C826    1.392   .     A
C825   N860    1.433   .     S
C826   C269    1.385   1_556 S
C826   H282    1.084   1_556 S
C827   H854    1.078   .     S
C828   N857    1.158   .     T
C829   C834    1.415   .     A
C830   N858    1.156   .     T
C831   C835    1.401   .     A
C832   C833    1.392   .     A
C832   C265    1.404   1_556 S
C832   C273    1.418   1_556 S
C833   H851    1.084   .     S
C833   C834    1.389   .     A
C834   H841    1.079   .     S
C835   H853    1.077   .     S
C836   H839    1.083   .     S
Cu837  O867    1.940   .     S
Cu837  N855    2.014   .     S
Cu837  O861    1.961   .     S
Cu837  O863    1.953   .     S
Cu837  Cu838   2.679   .     S
Cu837  O865    1.959   .     S
Cu838  O864    1.940   .     S
Cu838  N856    2.013   .     S
Cu838  O866    1.961   .     S
Cu838  O868    1.953   .     S
Cu838  O862    1.959   .     S
H843   N859    1.046   .     S
H844   N859    1.046   .     S
H845   N860    1.045   .     S
H846   N860    1.045   .     S
H852   C265    1.084   1_556 S
C869   O923    1.291   .     A
C869   O924    1.290   .     A
C869   C877    1.449   .     S
C870   C872    1.485   .     S
C870   C891    1.426   .     A
C870   C887    1.419   .     A
C871   C877    1.397   .     A
C871   H904    1.084   .     S
C871   C1059   1.382   .     S
C872   O925    1.298   .     A
C872   O926    1.300   .     A
C873   C874    1.397   .     A
C873   H909    1.084   .     S
C874   C875    1.410   .     A
C874   C883    1.447   .     S
C875   C890    1.453   .     S
C876   C892    1.449   .     S
C876   C877    1.412   .     A
C876   C1061   1.401   .     S
C878   N918    1.373   .     A
C878   N921    1.429   .     S
C878   C755    1.419   1_655 S
C879   N917    1.362   .     A
C879   H910    1.078   .     S
C880   C891    1.418   .     A
C880   C331    1.413   1_556 S
C880   C335    1.421   1_556 S
C881   N917    1.368   .     A
C881   H911    1.082   .     S
C882   N918    1.367   .     A
C882   H912    1.082   .     S
C882   C757    1.417   1_655 S
C883   O928    1.290   .     A
C883   O927    1.289   .     A
C884   O930    1.295   .     A
C884   O929    1.294   .     A
C884   C886    1.463   .     S
C885   C898    1.394   .     A
C886   C897    1.395   .     A
C886   C898    1.400   .     A
C887   C888    1.392   .     A
C887   N922    1.433   .     S
C888   C331    1.385   1_556 S
C888   H344    1.084   1_556 S
C889   H916    1.078   .     S
C890   N919    1.158   .     T
C891   C896    1.415   .     A
C892   N920    1.156   .     T
C893   C897    1.401   .     A
C894   C895    1.392   .     A
C894   C327    1.404   1_556 S
C894   C335    1.418   1_556 S
C895   H913    1.084   .     S
C895   C896    1.389   .     A
C896   H903    1.079   .     S
C897   H915    1.077   .     S
C898   H901    1.083   .     S
Cu899  O929    1.940   .     S
Cu899  N917    2.014   .     S
Cu899  O923    1.961   .     S
Cu899  O925    1.953   .     S
Cu899  Cu900   2.679   .     S
Cu899  O927    1.959   .     S
Cu900  O926    1.940   .     S
Cu900  N918    2.013   .     S
Cu900  O928    1.961   .     S
Cu900  O930    1.953   .     S
Cu900  O924    1.959   .     S
H905   N921    1.046   .     S
H906   N921    1.046   .     S
H907   N922    1.045   .     S
H908   N922    1.045   .     S
H914   C327    1.084   1_556 S
C931   O985    1.291   .     A
C931   O986    1.290   .     A
C931   C939    1.449   .     S
C932   C934    1.485   .     S
C932   C953    1.426   .     A
C932   C949    1.419   .     A
C933   C939    1.397   .     A
C933   H966    1.084   .     S
C933   C563    1.382   1_565 S
C934   O987    1.298   .     A
C934   O988    1.300   .     A
C935   C936    1.397   .     A
C935   H971    1.084   .     S
C936   C937    1.410   .     A
C936   C945    1.447   .     S
C937   C952    1.453   .     S
C938   C954    1.449   .     S
C938   C939    1.412   .     A
C938   C565    1.401   1_565 S
C940   N980    1.373   .     A
C940   N983    1.429   .     S
C940   C1003   1.419   .     S
C941   N979    1.362   .     A
C941   H972    1.078   .     S
C941   C1064   1.419   1_455 S
C942   C953    1.418   .     A
C942   C393    1.413   1_556 S
C942   C397    1.421   1_556 S
C943   N979    1.368   .     A
C943   H973    1.082   .     S
C943   C1068   1.417   1_455 S
C944   N980    1.367   .     A
C944   H974    1.082   .     S
C944   C1005   1.417   .     S
C945   O990    1.290   .     A
C945   O989    1.289   .     A
C946   O992    1.295   .     A
C946   O991    1.294   .     A
C946   C948    1.463   .     S
C947   C960    1.394   .     A
C948   C959    1.395   .     A
C948   C960    1.400   .     A
C949   C950    1.392   .     A
C949   N984    1.433   .     S
C950   C393    1.385   1_556 S
C950   H406    1.084   1_556 S
C951   H978    1.078   .     S
C952   N981    1.158   .     T
C953   C958    1.415   .     A
C954   N982    1.156   .     T
C955   C959    1.401   .     A
C956   C957    1.392   .     A
C956   C389    1.404   1_556 S
C956   C397    1.418   1_556 S
C957   H975    1.084   .     S
C957   C958    1.389   .     A
C958   H965    1.079   .     S
C959   H977    1.077   .     S
C960   H963    1.083   .     S
Cu961  O991    1.940   .     S
Cu961  N979    2.014   .     S
Cu961  O985    1.961   .     S
Cu961  O987    1.953   .     S
Cu961  Cu962   2.679   .     S
Cu961  O989    1.959   .     S
Cu962  O988    1.940   .     S
Cu962  N980    2.013   .     S
Cu962  O990    1.961   .     S
Cu962  O992    1.953   .     S
Cu962  O986    1.959   .     S
H967   N983    1.046   .     S
H968   N983    1.046   .     S
H969   N984    1.045   .     S
H970   N984    1.045   .     S
H976   C389    1.084   1_556 S
C993   O1047   1.291   .     A
C993   O1048   1.290   .     A
C993   C1001   1.449   .     S
C994   C996    1.485   .     S
C994   C1015   1.426   .     A
C994   C1011   1.419   .     A
C995   C1001   1.397   .     A
C995   H1028   1.084   .     S
C995   C625    1.382   1_565 S
C996   O1049   1.298   .     A
C996   O1050   1.300   .     A
C997   C998    1.397   .     A
C997   H1033   1.084   .     S
C998   C999    1.410   .     A
C998   C1007   1.447   .     S
C999   C1014   1.453   .     S
C1000  C1016   1.449   .     S
C1000  C1001   1.412   .     A
C1000  C627    1.401   1_565 S
C1002  N1042   1.373   .     A
C1002  N1045   1.429   .     S
C1002  C1065   1.419   .     S
C1003  N1041   1.362   .     A
C1003  H1034   1.078   .     S
C1004  C1015   1.418   .     A
C1004  C455    1.413   1_556 S
C1004  C459    1.421   1_556 S
C1005  N1041   1.368   .     A
C1005  H1035   1.082   .     S
C1006  N1042   1.367   .     A
C1006  H1036   1.082   .     S
C1006  C1067   1.417   .     S
C1007  O1052   1.290   .     A
C1007  O1051   1.289   .     A
C1008  O1054   1.295   .     A
C1008  O1053   1.294   .     A
C1008  C1010   1.463   .     S
C1009  C1022   1.394   .     A
C1010  C1021   1.395   .     A
C1010  C1022   1.400   .     A
C1011  C1012   1.392   .     A
C1011  N1046   1.433   .     S
C1012  C455    1.385   1_556 S
C1012  H468    1.084   1_556 S
C1013  H1040   1.078   .     S
C1014  N1043   1.158   .     T
C1015  C1020   1.415   .     A
C1016  N1044   1.156   .     T
C1017  C1021   1.401   .     A
C1018  C1019   1.392   .     A
C1018  C451    1.404   1_556 S
C1018  C459    1.418   1_556 S
C1019  H1037   1.084   .     S
C1019  C1020   1.389   .     A
C1020  H1027   1.079   .     S
C1021  H1039   1.077   .     S
C1022  H1025   1.083   .     S
Cu1023 O1053   1.940   .     S
Cu1023 N1041   2.014   .     S
Cu1023 O1047   1.961   .     S
Cu1023 O1049   1.953   .     S
Cu1023 Cu1024  2.679   .     S
Cu1023 O1051   1.959   .     S
Cu1024 O1050   1.940   .     S
Cu1024 N1042   2.013   .     S
Cu1024 O1052   1.961   .     S
Cu1024 O1054   1.953   .     S
Cu1024 O1048   1.959   .     S
H1029  N1045   1.046   .     S
H1030  N1045   1.046   .     S
H1031  N1046   1.045   .     S
H1032  N1046   1.045   .     S
H1038  C451    1.084   1_556 S
C1055  O1109   1.291   .     A
C1055  O1110   1.290   .     A
C1055  C1063   1.449   .     S
C1056  C1058   1.485   .     S
C1056  C1077   1.426   .     A
C1056  C1073   1.419   .     A
C1057  C1063   1.397   .     A
C1057  H1090   1.084   .     S
C1057  C687    1.382   1_565 S
C1058  O1111   1.298   .     A
C1058  O1112   1.300   .     A
C1059  C1060   1.397   .     A
C1059  H1095   1.084   .     S
C1060  C1061   1.410   .     A
C1060  C1069   1.447   .     S
C1061  C1076   1.453   .     S
C1062  C1078   1.449   .     S
C1062  C1063   1.412   .     A
C1062  C689    1.401   1_565 S
C1064  N1104   1.373   .     A
C1064  N1107   1.429   .     S
C1064  C941    1.419   1_655 S
C1065  N1103   1.362   .     A
C1065  H1096   1.078   .     S
C1066  C1077   1.418   .     A
C1066  C517    1.413   1_556 S
C1066  C521    1.421   1_556 S
C1067  N1103   1.368   .     A
C1067  H1097   1.082   .     S
C1068  N1104   1.367   .     A
C1068  H1098   1.082   .     S
C1068  C943    1.417   1_655 S
C1069  O1114   1.290   .     A
C1069  O1113   1.289   .     A
C1070  O1116   1.295   .     A
C1070  O1115   1.294   .     A
C1070  C1072   1.463   .     S
C1071  C1084   1.394   .     A
C1072  C1083   1.395   .     A
C1072  C1084   1.400   .     A
C1073  C1074   1.392   .     A
C1073  N1108   1.433   .     S
C1074  C517    1.385   1_556 S
C1074  H530    1.084   1_556 S
C1075  H1102   1.078   .     S
C1076  N1105   1.158   .     T
C1077  C1082   1.415   .     A
C1078  N1106   1.156   .     T
C1079  C1083   1.401   .     A
C1080  C1081   1.392   .     A
C1080  C513    1.404   1_556 S
C1080  C521    1.418   1_556 S
C1081  H1099   1.084   .     S
C1081  C1082   1.389   .     A
C1082  H1089   1.079   .     S
C1083  H1101   1.077   .     S
C1084  H1087   1.083   .     S
Cu1085 O1115   1.940   .     S
Cu1085 N1103   2.014   .     S
Cu1085 O1109   1.961   .     S
Cu1085 O1111   1.953   .     S
Cu1085 Cu1086  2.679   .     S
Cu1085 O1113   1.959   .     S
Cu1086 O1112   1.940   .     S
Cu1086 N1104   2.013   .     S
Cu1086 O1114   1.961   .     S
Cu1086 O1116   1.953   .     S
Cu1086 O1110   1.959   .     S
H1091  N1107   1.046   .     S
H1092  N1107   1.046   .     S
H1093  N1108   1.045   .     S
H1094  N1108   1.045   .     S
H1100  C513    1.084   1_556 S
