data_str_m2_o10_o16_pcu_sym.28
_audit_creation_date              2020-01-03
_audit_creation_method            'Materials Studio'
_symmetry_space_group_name_H-M    'P1'
_symmetry_Int_Tables_number       1
_symmetry_cell_setting            triclinic
loop_
_symmetry_equiv_pos_as_xyz
  x,y,z
_cell_length_a                    22.2591
_cell_length_b                    26.1454
_cell_length_c                    26.8871
_cell_angle_alpha                 94.1206
_cell_angle_beta                  77.5111
_cell_angle_gamma                 103.0835
loop_
_atom_site_label
_atom_site_type_symbol
_atom_site_fract_x
_atom_site_fract_y
_atom_site_fract_z
_atom_site_U_iso_or_equiv
_atom_site_adp_type
_atom_site_occupancy
O1     O     0.12797   0.23807   0.24633   0.00000  Uiso   1.00
O2     O     0.22858   0.24755   0.25587   0.00000  Uiso   1.00
C3     C     0.18217   0.26667   0.24995   0.00000  Uiso   1.00
O4     O     0.09181   0.15960   0.31840   0.00000  Uiso   1.00
O5     O     0.19242   0.16908   0.32793   0.00000  Uiso   1.00
C6     C     0.13324   0.16564   0.34725   0.00000  Uiso   1.00
Cu7    Cu    0.10710   0.16105   0.24436   0.00000  Uiso   1.00
Cu8    Cu    0.22623   0.17228   0.25565   0.00000  Uiso   1.00
O9     O     0.10476   0.08578   0.24414   0.00000  Uiso   1.00
O10    O     0.20536   0.09526   0.25367   0.00000  Uiso   1.00
O11    O     0.14092   0.16425   0.17207   0.00000  Uiso   1.00
O12    O     0.24152   0.17373   0.18161   0.00000  Uiso   1.00
C13    C     0.15235   0.06673   0.24634   0.00000  Uiso   1.00
C14    C     0.20046   0.17006   0.15299   0.00000  Uiso   1.00
C15    C     0.29820   0.20738   0.02309   0.00000  Uiso   1.00
H16    H     0.31982   0.20447   0.09659   0.00000  Uiso   1.00
H17    H     0.30869   0.24280   0.43087   0.00000  Uiso   1.00
H18    H     0.01262   0.22711   0.00645   0.00000  Uiso   1.00
C19    C     0.22057   0.17452   0.09762   0.00000  Uiso   1.00
C20    C     0.05258   0.13144   0.42243   0.00000  Uiso   1.00
C21    C     0.03899   0.10943   0.47003   0.00000  Uiso   1.00
C22    C     0.08475   0.11689   0.49961   0.00000  Uiso   1.00
C23    C     0.14308   0.15401   0.48472   0.00000  Uiso   1.00
C24    C     0.15694   0.17590   0.43552   0.00000  Uiso   1.00
C25    C     0.18926   0.16906   0.01554   0.00000  Uiso   1.00
C26    C     0.25096   0.19695   0.49426   0.00000  Uiso   1.00
C27    C     0.26317   0.21810   0.44624   0.00000  Uiso   1.00
C28    C     0.21539   0.21114   0.41920   0.00000  Uiso   1.00
C29    C     0.17429   0.16243   0.06811   0.00000  Uiso   1.00
C30    C     0.28334   0.19478   0.07442   0.00000  Uiso   1.00
C31    C     0.11295   0.16082   0.40303   0.00000  Uiso   1.00
H32    H     0.12556   0.15212   0.08714   0.00000  Uiso   1.00
H33    H     0.01782   0.12064   0.39871   0.00000  Uiso   1.00
H34    H     0.32748   0.08240   0.48195   0.00000  Uiso   1.00
H35    H     0.22528   0.23365   0.38509   0.00000  Uiso   1.00
C36    C     0.18974   0.32249   0.25040   0.00000  Uiso   1.00
H37    H     0.22943   0.01244   0.26520   0.00000  Uiso   1.00
C38    C     0.14660   0.01131   0.23779   0.00000  Uiso   1.00
N39    N     0.31574   0.18074   0.26416   0.00000  Uiso   1.00
H40    H     0.00376   0.20589   0.28957   0.00000  Uiso   1.00
N41    N     0.01759   0.15259   0.23584   0.00000  Uiso   1.00
H42    H     0.32957   0.12746   0.21043   0.00000  Uiso   1.00
N43    N     0.09739   0.31599   0.21293   0.00000  Uiso   1.00
O44    O     0.03902   0.31882   0.23084   0.00000  Uiso   1.00
O45    O     0.11197   0.29263   0.16898   0.00000  Uiso   1.00
Br46   Br    0.06783   0.06479   0.05109   0.00000  Uiso   1.00
O47    O     0.46131   0.23807   0.24633   0.00000  Uiso   1.00
O48    O     0.56191   0.24755   0.25587   0.00000  Uiso   1.00
C49    C     0.51550   0.26667   0.24995   0.00000  Uiso   1.00
O50    O     0.42515   0.15960   0.31840   0.00000  Uiso   1.00
O51    O     0.52575   0.16908   0.32793   0.00000  Uiso   1.00
C52    C     0.46657   0.16564   0.34725   0.00000  Uiso   1.00
Cu53   Cu    0.44043   0.16105   0.24436   0.00000  Uiso   1.00
Cu54   Cu    0.55957   0.17228   0.25565   0.00000  Uiso   1.00
O55    O     0.43809   0.08578   0.24414   0.00000  Uiso   1.00
O56    O     0.53869   0.09526   0.25367   0.00000  Uiso   1.00
O57    O     0.47425   0.16425   0.17207   0.00000  Uiso   1.00
O58    O     0.57485   0.17373   0.18161   0.00000  Uiso   1.00
C59    C     0.48568   0.06673   0.24634   0.00000  Uiso   1.00
C60    C     0.53380   0.17006   0.15299   0.00000  Uiso   1.00
C61    C     0.63153   0.20738   0.02309   0.00000  Uiso   1.00
H62    H     0.65315   0.20447   0.09659   0.00000  Uiso   1.00
H63    H     0.64202   0.24280   0.43087   0.00000  Uiso   1.00
H64    H     0.34595   0.22711   0.00645   0.00000  Uiso   1.00
C65    C     0.55390   0.17452   0.09762   0.00000  Uiso   1.00
C66    C     0.38592   0.13144   0.42243   0.00000  Uiso   1.00
C67    C     0.37233   0.10943   0.47003   0.00000  Uiso   1.00
C68    C     0.41808   0.11689   0.49961   0.00000  Uiso   1.00
C69    C     0.47641   0.15401   0.48472   0.00000  Uiso   1.00
C70    C     0.49027   0.17590   0.43552   0.00000  Uiso   1.00
C71    C     0.52259   0.16906   0.01554   0.00000  Uiso   1.00
C72    C     0.58429   0.19695   0.49426   0.00000  Uiso   1.00
C73    C     0.59651   0.21810   0.44624   0.00000  Uiso   1.00
C74    C     0.54872   0.21114   0.41920   0.00000  Uiso   1.00
C75    C     0.50762   0.16243   0.06811   0.00000  Uiso   1.00
C76    C     0.61668   0.19478   0.07442   0.00000  Uiso   1.00
C77    C     0.44628   0.16082   0.40303   0.00000  Uiso   1.00
H78    H     0.45889   0.15212   0.08714   0.00000  Uiso   1.00
H79    H     0.35115   0.12064   0.39871   0.00000  Uiso   1.00
H80    H     0.66082   0.08240   0.48195   0.00000  Uiso   1.00
H81    H     0.55861   0.23365   0.38509   0.00000  Uiso   1.00
C82    C     0.52307   0.32249   0.25040   0.00000  Uiso   1.00
H83    H     0.56276   0.01244   0.26520   0.00000  Uiso   1.00
C84    C     0.47993   0.01131   0.23779   0.00000  Uiso   1.00
N85    N     0.64908   0.18074   0.26416   0.00000  Uiso   1.00
H86    H     0.33709   0.20589   0.28957   0.00000  Uiso   1.00
N87    N     0.35092   0.15259   0.23584   0.00000  Uiso   1.00
H88    H     0.66291   0.12746   0.21043   0.00000  Uiso   1.00
N89    N     0.43073   0.31599   0.21293   0.00000  Uiso   1.00
O90    O     0.37235   0.31882   0.23084   0.00000  Uiso   1.00
O91    O     0.44531   0.29263   0.16898   0.00000  Uiso   1.00
Br92   Br    0.40116   0.06479   0.05109   0.00000  Uiso   1.00
O93    O     0.79464   0.23807   0.24633   0.00000  Uiso   1.00
O94    O     0.89524   0.24755   0.25587   0.00000  Uiso   1.00
C95    C     0.84883   0.26667   0.24995   0.00000  Uiso   1.00
O96    O     0.75848   0.15960   0.31840   0.00000  Uiso   1.00
O97    O     0.85908   0.16908   0.32793   0.00000  Uiso   1.00
C98    C     0.79990   0.16564   0.34725   0.00000  Uiso   1.00
Cu99   Cu    0.77377   0.16105   0.24436   0.00000  Uiso   1.00
Cu100  Cu    0.89290   0.17228   0.25565   0.00000  Uiso   1.00
O101   O     0.77142   0.08578   0.24414   0.00000  Uiso   1.00
O102   O     0.87203   0.09526   0.25367   0.00000  Uiso   1.00
O103   O     0.80758   0.16425   0.17207   0.00000  Uiso   1.00
O104   O     0.90819   0.17373   0.18161   0.00000  Uiso   1.00
C105   C     0.81902   0.06673   0.24634   0.00000  Uiso   1.00
C106   C     0.86713   0.17006   0.15299   0.00000  Uiso   1.00
C107   C     0.96487   0.20738   0.02309   0.00000  Uiso   1.00
H108   H     0.98648   0.20447   0.09659   0.00000  Uiso   1.00
H109   H     0.97536   0.24280   0.43087   0.00000  Uiso   1.00
H110   H     0.67929   0.22711   0.00645   0.00000  Uiso   1.00
C111   C     0.88723   0.17452   0.09762   0.00000  Uiso   1.00
C112   C     0.71925   0.13144   0.42243   0.00000  Uiso   1.00
C113   C     0.70566   0.10943   0.47003   0.00000  Uiso   1.00
C114   C     0.75142   0.11689   0.49961   0.00000  Uiso   1.00
C115   C     0.80974   0.15401   0.48472   0.00000  Uiso   1.00
C116   C     0.82361   0.17590   0.43552   0.00000  Uiso   1.00
C117   C     0.85592   0.16906   0.01554   0.00000  Uiso   1.00
C118   C     0.91763   0.19695   0.49426   0.00000  Uiso   1.00
C119   C     0.92984   0.21810   0.44624   0.00000  Uiso   1.00
C120   C     0.88205   0.21114   0.41920   0.00000  Uiso   1.00
C121   C     0.84095   0.16243   0.06811   0.00000  Uiso   1.00
C122   C     0.95001   0.19478   0.07442   0.00000  Uiso   1.00
C123   C     0.77962   0.16082   0.40303   0.00000  Uiso   1.00
H124   H     0.79223   0.15212   0.08714   0.00000  Uiso   1.00
H125   H     0.68448   0.12064   0.39871   0.00000  Uiso   1.00
H126   H     0.99415   0.08240   0.48195   0.00000  Uiso   1.00
H127   H     0.89195   0.23365   0.38509   0.00000  Uiso   1.00
C128   C     0.85641   0.32249   0.25040   0.00000  Uiso   1.00
H129   H     0.89610   0.01244   0.26520   0.00000  Uiso   1.00
C130   C     0.81326   0.01131   0.23779   0.00000  Uiso   1.00
N131   N     0.98241   0.18074   0.26416   0.00000  Uiso   1.00
H132   H     0.67043   0.20589   0.28957   0.00000  Uiso   1.00
N133   N     0.68426   0.15259   0.23584   0.00000  Uiso   1.00
H134   H     0.99624   0.12746   0.21043   0.00000  Uiso   1.00
N135   N     0.76406   0.31599   0.21293   0.00000  Uiso   1.00
O136   O     0.70569   0.31882   0.23084   0.00000  Uiso   1.00
O137   O     0.77864   0.29263   0.16898   0.00000  Uiso   1.00
Br138  Br    0.73449   0.06479   0.05109   0.00000  Uiso   1.00
O139   O     0.12797   0.57141   0.24633   0.00000  Uiso   1.00
O140   O     0.22858   0.58089   0.25587   0.00000  Uiso   1.00
C141   C     0.18217   0.60000   0.24995   0.00000  Uiso   1.00
O142   O     0.09181   0.49293   0.31840   0.00000  Uiso   1.00
O143   O     0.19242   0.50241   0.32793   0.00000  Uiso   1.00
C144   C     0.13324   0.49898   0.34725   0.00000  Uiso   1.00
Cu145  Cu    0.10710   0.49439   0.24436   0.00000  Uiso   1.00
Cu146  Cu    0.22623   0.50561   0.25565   0.00000  Uiso   1.00
O147   O     0.10476   0.41911   0.24414   0.00000  Uiso   1.00
O148   O     0.20536   0.42859   0.25367   0.00000  Uiso   1.00
O149   O     0.14092   0.49759   0.17207   0.00000  Uiso   1.00
O150   O     0.24152   0.50707   0.18161   0.00000  Uiso   1.00
C151   C     0.15235   0.40007   0.24634   0.00000  Uiso   1.00
C152   C     0.20046   0.50339   0.15299   0.00000  Uiso   1.00
C153   C     0.29820   0.54072   0.02309   0.00000  Uiso   1.00
H154   H     0.31982   0.53781   0.09659   0.00000  Uiso   1.00
H155   H     0.30869   0.57613   0.43087   0.00000  Uiso   1.00
H156   H     0.01262   0.56044   0.00645   0.00000  Uiso   1.00
C157   C     0.22057   0.50786   0.09762   0.00000  Uiso   1.00
C158   C     0.05258   0.46478   0.42243   0.00000  Uiso   1.00
C159   C     0.03899   0.44276   0.47003   0.00000  Uiso   1.00
C160   C     0.08475   0.45022   0.49961   0.00000  Uiso   1.00
C161   C     0.14308   0.48735   0.48472   0.00000  Uiso   1.00
C162   C     0.15694   0.50924   0.43552   0.00000  Uiso   1.00
C163   C     0.18926   0.50239   0.01554   0.00000  Uiso   1.00
C164   C     0.25096   0.53029   0.49426   0.00000  Uiso   1.00
C165   C     0.26317   0.55143   0.44624   0.00000  Uiso   1.00
C166   C     0.21539   0.54447   0.41920   0.00000  Uiso   1.00
C167   C     0.17429   0.49576   0.06811   0.00000  Uiso   1.00
C168   C     0.28334   0.52811   0.07442   0.00000  Uiso   1.00
C169   C     0.11295   0.49416   0.40303   0.00000  Uiso   1.00
H170   H     0.12556   0.48546   0.08714   0.00000  Uiso   1.00
H171   H     0.01782   0.45398   0.39871   0.00000  Uiso   1.00
H172   H     0.32748   0.41574   0.48195   0.00000  Uiso   1.00
H173   H     0.22528   0.56698   0.38509   0.00000  Uiso   1.00
C174   C     0.18974   0.65583   0.25040   0.00000  Uiso   1.00
H175   H     0.22943   0.34578   0.26520   0.00000  Uiso   1.00
C176   C     0.14660   0.34465   0.23779   0.00000  Uiso   1.00
N177   N     0.31574   0.51407   0.26416   0.00000  Uiso   1.00
H178   H     0.00376   0.53922   0.28957   0.00000  Uiso   1.00
N179   N     0.01759   0.48593   0.23584   0.00000  Uiso   1.00
H180   H     0.32957   0.46079   0.21043   0.00000  Uiso   1.00
N181   N     0.09739   0.64932   0.21293   0.00000  Uiso   1.00
O182   O     0.03902   0.65215   0.23084   0.00000  Uiso   1.00
O183   O     0.11197   0.62597   0.16898   0.00000  Uiso   1.00
Br184  Br    0.06783   0.39812   0.05109   0.00000  Uiso   1.00
O185   O     0.46131   0.57141   0.24633   0.00000  Uiso   1.00
O186   O     0.56191   0.58089   0.25587   0.00000  Uiso   1.00
C187   C     0.51550   0.60000   0.24995   0.00000  Uiso   1.00
O188   O     0.42515   0.49293   0.31840   0.00000  Uiso   1.00
O189   O     0.52575   0.50241   0.32793   0.00000  Uiso   1.00
C190   C     0.46657   0.49898   0.34725   0.00000  Uiso   1.00
Cu191  Cu    0.44043   0.49439   0.24436   0.00000  Uiso   1.00
Cu192  Cu    0.55957   0.50561   0.25565   0.00000  Uiso   1.00
O193   O     0.43809   0.41911   0.24414   0.00000  Uiso   1.00
O194   O     0.53869   0.42859   0.25367   0.00000  Uiso   1.00
O195   O     0.47425   0.49759   0.17207   0.00000  Uiso   1.00
O196   O     0.57485   0.50707   0.18161   0.00000  Uiso   1.00
C197   C     0.48568   0.40007   0.24634   0.00000  Uiso   1.00
C198   C     0.53380   0.50339   0.15299   0.00000  Uiso   1.00
C199   C     0.63153   0.54072   0.02309   0.00000  Uiso   1.00
H200   H     0.65315   0.53781   0.09659   0.00000  Uiso   1.00
H201   H     0.64202   0.57613   0.43087   0.00000  Uiso   1.00
H202   H     0.34595   0.56044   0.00645   0.00000  Uiso   1.00
C203   C     0.55390   0.50786   0.09762   0.00000  Uiso   1.00
C204   C     0.38592   0.46478   0.42243   0.00000  Uiso   1.00
C205   C     0.37233   0.44276   0.47003   0.00000  Uiso   1.00
C206   C     0.41808   0.45022   0.49961   0.00000  Uiso   1.00
C207   C     0.47641   0.48735   0.48472   0.00000  Uiso   1.00
C208   C     0.49027   0.50924   0.43552   0.00000  Uiso   1.00
C209   C     0.52259   0.50239   0.01554   0.00000  Uiso   1.00
C210   C     0.58429   0.53029   0.49426   0.00000  Uiso   1.00
C211   C     0.59651   0.55143   0.44624   0.00000  Uiso   1.00
C212   C     0.54872   0.54447   0.41920   0.00000  Uiso   1.00
C213   C     0.50762   0.49576   0.06811   0.00000  Uiso   1.00
C214   C     0.61668   0.52811   0.07442   0.00000  Uiso   1.00
C215   C     0.44628   0.49416   0.40303   0.00000  Uiso   1.00
H216   H     0.45889   0.48546   0.08714   0.00000  Uiso   1.00
H217   H     0.35115   0.45398   0.39871   0.00000  Uiso   1.00
H218   H     0.66082   0.41574   0.48195   0.00000  Uiso   1.00
H219   H     0.55861   0.56698   0.38509   0.00000  Uiso   1.00
C220   C     0.52307   0.65583   0.25040   0.00000  Uiso   1.00
H221   H     0.56276   0.34578   0.26520   0.00000  Uiso   1.00
C222   C     0.47993   0.34465   0.23779   0.00000  Uiso   1.00
N223   N     0.64908   0.51407   0.26416   0.00000  Uiso   1.00
H224   H     0.33709   0.53922   0.28957   0.00000  Uiso   1.00
N225   N     0.35092   0.48593   0.23584   0.00000  Uiso   1.00
H226   H     0.66291   0.46079   0.21043   0.00000  Uiso   1.00
N227   N     0.43073   0.64932   0.21293   0.00000  Uiso   1.00
O228   O     0.37235   0.65215   0.23084   0.00000  Uiso   1.00
O229   O     0.44531   0.62597   0.16898   0.00000  Uiso   1.00
Br230  Br    0.40116   0.39812   0.05109   0.00000  Uiso   1.00
O231   O     0.79464   0.57141   0.24633   0.00000  Uiso   1.00
O232   O     0.89524   0.58089   0.25587   0.00000  Uiso   1.00
C233   C     0.84883   0.60000   0.24995   0.00000  Uiso   1.00
O234   O     0.75848   0.49293   0.31840   0.00000  Uiso   1.00
O235   O     0.85908   0.50241   0.32793   0.00000  Uiso   1.00
C236   C     0.79990   0.49898   0.34725   0.00000  Uiso   1.00
Cu237  Cu    0.77377   0.49439   0.24436   0.00000  Uiso   1.00
Cu238  Cu    0.89290   0.50561   0.25565   0.00000  Uiso   1.00
O239   O     0.77142   0.41911   0.24414   0.00000  Uiso   1.00
O240   O     0.87203   0.42859   0.25367   0.00000  Uiso   1.00
O241   O     0.80758   0.49759   0.17207   0.00000  Uiso   1.00
O242   O     0.90819   0.50707   0.18161   0.00000  Uiso   1.00
C243   C     0.81902   0.40007   0.24634   0.00000  Uiso   1.00
C244   C     0.86713   0.50339   0.15299   0.00000  Uiso   1.00
C245   C     0.96487   0.54072   0.02309   0.00000  Uiso   1.00
H246   H     0.98648   0.53781   0.09659   0.00000  Uiso   1.00
H247   H     0.97536   0.57613   0.43087   0.00000  Uiso   1.00
H248   H     0.67929   0.56044   0.00645   0.00000  Uiso   1.00
C249   C     0.88723   0.50786   0.09762   0.00000  Uiso   1.00
C250   C     0.71925   0.46478   0.42243   0.00000  Uiso   1.00
C251   C     0.70566   0.44276   0.47003   0.00000  Uiso   1.00
C252   C     0.75142   0.45022   0.49961   0.00000  Uiso   1.00
C253   C     0.80974   0.48735   0.48472   0.00000  Uiso   1.00
C254   C     0.82361   0.50924   0.43552   0.00000  Uiso   1.00
C255   C     0.85592   0.50239   0.01554   0.00000  Uiso   1.00
C256   C     0.91763   0.53029   0.49426   0.00000  Uiso   1.00
C257   C     0.92984   0.55143   0.44624   0.00000  Uiso   1.00
C258   C     0.88205   0.54447   0.41920   0.00000  Uiso   1.00
C259   C     0.84095   0.49576   0.06811   0.00000  Uiso   1.00
C260   C     0.95001   0.52811   0.07442   0.00000  Uiso   1.00
C261   C     0.77962   0.49416   0.40303   0.00000  Uiso   1.00
H262   H     0.79223   0.48546   0.08714   0.00000  Uiso   1.00
H263   H     0.68448   0.45398   0.39871   0.00000  Uiso   1.00
H264   H     0.99415   0.41574   0.48195   0.00000  Uiso   1.00
H265   H     0.89195   0.56698   0.38509   0.00000  Uiso   1.00
C266   C     0.85641   0.65583   0.25040   0.00000  Uiso   1.00
H267   H     0.89610   0.34578   0.26520   0.00000  Uiso   1.00
C268   C     0.81326   0.34465   0.23779   0.00000  Uiso   1.00
N269   N     0.98241   0.51407   0.26416   0.00000  Uiso   1.00
H270   H     0.67043   0.53922   0.28957   0.00000  Uiso   1.00
N271   N     0.68426   0.48593   0.23584   0.00000  Uiso   1.00
H272   H     0.99624   0.46079   0.21043   0.00000  Uiso   1.00
N273   N     0.76406   0.64932   0.21293   0.00000  Uiso   1.00
O274   O     0.70569   0.65215   0.23084   0.00000  Uiso   1.00
O275   O     0.77864   0.62597   0.16898   0.00000  Uiso   1.00
Br276  Br    0.73449   0.39812   0.05109   0.00000  Uiso   1.00
O277   O     0.12797   0.90474   0.24633   0.00000  Uiso   1.00
O278   O     0.22858   0.91422   0.25587   0.00000  Uiso   1.00
C279   C     0.18217   0.93333   0.24995   0.00000  Uiso   1.00
O280   O     0.09181   0.82627   0.31840   0.00000  Uiso   1.00
O281   O     0.19242   0.83575   0.32793   0.00000  Uiso   1.00
C282   C     0.13324   0.83231   0.34725   0.00000  Uiso   1.00
Cu283  Cu    0.10710   0.82772   0.24436   0.00000  Uiso   1.00
Cu284  Cu    0.22623   0.83895   0.25565   0.00000  Uiso   1.00
O285   O     0.10476   0.75245   0.24414   0.00000  Uiso   1.00
O286   O     0.20536   0.76193   0.25367   0.00000  Uiso   1.00
O287   O     0.14092   0.83092   0.17207   0.00000  Uiso   1.00
O288   O     0.24152   0.84040   0.18161   0.00000  Uiso   1.00
C289   C     0.15235   0.73340   0.24634   0.00000  Uiso   1.00
C290   C     0.20046   0.83672   0.15299   0.00000  Uiso   1.00
C291   C     0.29820   0.87405   0.02309   0.00000  Uiso   1.00
H292   H     0.31982   0.87114   0.09659   0.00000  Uiso   1.00
H293   H     0.30869   0.90947   0.43087   0.00000  Uiso   1.00
H294   H     0.01262   0.89377   0.00645   0.00000  Uiso   1.00
C295   C     0.22057   0.84119   0.09762   0.00000  Uiso   1.00
C296   C     0.05258   0.79811   0.42243   0.00000  Uiso   1.00
C297   C     0.03899   0.77609   0.47003   0.00000  Uiso   1.00
C298   C     0.08475   0.78355   0.49961   0.00000  Uiso   1.00
C299   C     0.14308   0.82068   0.48472   0.00000  Uiso   1.00
C300   C     0.15694   0.84257   0.43552   0.00000  Uiso   1.00
C301   C     0.18926   0.83572   0.01554   0.00000  Uiso   1.00
C302   C     0.25096   0.86362   0.49426   0.00000  Uiso   1.00
C303   C     0.26317   0.88476   0.44624   0.00000  Uiso   1.00
C304   C     0.21539   0.87780   0.41920   0.00000  Uiso   1.00
C305   C     0.17429   0.82909   0.06811   0.00000  Uiso   1.00
C306   C     0.28334   0.86145   0.07442   0.00000  Uiso   1.00
C307   C     0.11295   0.82749   0.40303   0.00000  Uiso   1.00
H308   H     0.12556   0.81879   0.08714   0.00000  Uiso   1.00
H309   H     0.01782   0.78731   0.39871   0.00000  Uiso   1.00
H310   H     0.32748   0.74907   0.48195   0.00000  Uiso   1.00
H311   H     0.22528   0.90031   0.38509   0.00000  Uiso   1.00
C312   C     0.18974   0.98916   0.25040   0.00000  Uiso   1.00
H313   H     0.22943   0.67911   0.26520   0.00000  Uiso   1.00
C314   C     0.14660   0.67798   0.23779   0.00000  Uiso   1.00
N315   N     0.31574   0.84741   0.26416   0.00000  Uiso   1.00
H316   H     0.00376   0.87255   0.28957   0.00000  Uiso   1.00
N317   N     0.01759   0.81926   0.23584   0.00000  Uiso   1.00
H318   H     0.32957   0.79412   0.21043   0.00000  Uiso   1.00
N319   N     0.09739   0.98265   0.21293   0.00000  Uiso   1.00
O320   O     0.03902   0.98549   0.23084   0.00000  Uiso   1.00
O321   O     0.11197   0.95930   0.16898   0.00000  Uiso   1.00
Br322  Br    0.06783   0.73145   0.05109   0.00000  Uiso   1.00
O323   O     0.46131   0.90474   0.24633   0.00000  Uiso   1.00
O324   O     0.56191   0.91422   0.25587   0.00000  Uiso   1.00
C325   C     0.51550   0.93333   0.24995   0.00000  Uiso   1.00
O326   O     0.42515   0.82627   0.31840   0.00000  Uiso   1.00
O327   O     0.52575   0.83575   0.32793   0.00000  Uiso   1.00
C328   C     0.46657   0.83231   0.34725   0.00000  Uiso   1.00
Cu329  Cu    0.44043   0.82772   0.24436   0.00000  Uiso   1.00
Cu330  Cu    0.55957   0.83895   0.25565   0.00000  Uiso   1.00
O331   O     0.43809   0.75245   0.24414   0.00000  Uiso   1.00
O332   O     0.53869   0.76193   0.25367   0.00000  Uiso   1.00
O333   O     0.47425   0.83092   0.17207   0.00000  Uiso   1.00
O334   O     0.57485   0.84040   0.18161   0.00000  Uiso   1.00
C335   C     0.48568   0.73340   0.24634   0.00000  Uiso   1.00
C336   C     0.53380   0.83672   0.15299   0.00000  Uiso   1.00
C337   C     0.63153   0.87405   0.02309   0.00000  Uiso   1.00
H338   H     0.65315   0.87114   0.09659   0.00000  Uiso   1.00
H339   H     0.64202   0.90947   0.43087   0.00000  Uiso   1.00
H340   H     0.34595   0.89377   0.00645   0.00000  Uiso   1.00
C341   C     0.55390   0.84119   0.09762   0.00000  Uiso   1.00
C342   C     0.38592   0.79811   0.42243   0.00000  Uiso   1.00
C343   C     0.37233   0.77609   0.47003   0.00000  Uiso   1.00
C344   C     0.41808   0.78355   0.49961   0.00000  Uiso   1.00
C345   C     0.47641   0.82068   0.48472   0.00000  Uiso   1.00
C346   C     0.49027   0.84257   0.43552   0.00000  Uiso   1.00
C347   C     0.52259   0.83572   0.01554   0.00000  Uiso   1.00
C348   C     0.58429   0.86362   0.49426   0.00000  Uiso   1.00
C349   C     0.59651   0.88476   0.44624   0.00000  Uiso   1.00
C350   C     0.54872   0.87780   0.41920   0.00000  Uiso   1.00
C351   C     0.50762   0.82909   0.06811   0.00000  Uiso   1.00
C352   C     0.61668   0.86145   0.07442   0.00000  Uiso   1.00
C353   C     0.44628   0.82749   0.40303   0.00000  Uiso   1.00
H354   H     0.45889   0.81879   0.08714   0.00000  Uiso   1.00
H355   H     0.35115   0.78731   0.39871   0.00000  Uiso   1.00
H356   H     0.66082   0.74907   0.48195   0.00000  Uiso   1.00
H357   H     0.55861   0.90031   0.38509   0.00000  Uiso   1.00
C358   C     0.52307   0.98916   0.25040   0.00000  Uiso   1.00
H359   H     0.56276   0.67911   0.26520   0.00000  Uiso   1.00
C360   C     0.47993   0.67798   0.23779   0.00000  Uiso   1.00
N361   N     0.64908   0.84741   0.26416   0.00000  Uiso   1.00
H362   H     0.33709   0.87255   0.28957   0.00000  Uiso   1.00
N363   N     0.35092   0.81926   0.23584   0.00000  Uiso   1.00
H364   H     0.66291   0.79412   0.21043   0.00000  Uiso   1.00
N365   N     0.43073   0.98265   0.21293   0.00000  Uiso   1.00
O366   O     0.37235   0.98549   0.23084   0.00000  Uiso   1.00
O367   O     0.44531   0.95930   0.16898   0.00000  Uiso   1.00
Br368  Br    0.40116   0.73145   0.05109   0.00000  Uiso   1.00
O369   O     0.79464   0.90474   0.24633   0.00000  Uiso   1.00
O370   O     0.89524   0.91422   0.25587   0.00000  Uiso   1.00
C371   C     0.84883   0.93333   0.24995   0.00000  Uiso   1.00
O372   O     0.75848   0.82627   0.31840   0.00000  Uiso   1.00
O373   O     0.85908   0.83575   0.32793   0.00000  Uiso   1.00
C374   C     0.79990   0.83231   0.34725   0.00000  Uiso   1.00
Cu375  Cu    0.77377   0.82772   0.24436   0.00000  Uiso   1.00
Cu376  Cu    0.89290   0.83895   0.25565   0.00000  Uiso   1.00
O377   O     0.77142   0.75245   0.24414   0.00000  Uiso   1.00
O378   O     0.87203   0.76193   0.25367   0.00000  Uiso   1.00
O379   O     0.80758   0.83092   0.17207   0.00000  Uiso   1.00
O380   O     0.90819   0.84040   0.18161   0.00000  Uiso   1.00
C381   C     0.81902   0.73340   0.24634   0.00000  Uiso   1.00
C382   C     0.86713   0.83672   0.15299   0.00000  Uiso   1.00
C383   C     0.96487   0.87405   0.02309   0.00000  Uiso   1.00
H384   H     0.98648   0.87114   0.09659   0.00000  Uiso   1.00
H385   H     0.97536   0.90947   0.43087   0.00000  Uiso   1.00
H386   H     0.67929   0.89377   0.00645   0.00000  Uiso   1.00
C387   C     0.88723   0.84119   0.09762   0.00000  Uiso   1.00
C388   C     0.71925   0.79811   0.42243   0.00000  Uiso   1.00
C389   C     0.70566   0.77609   0.47003   0.00000  Uiso   1.00
C390   C     0.75142   0.78355   0.49961   0.00000  Uiso   1.00
C391   C     0.80974   0.82068   0.48472   0.00000  Uiso   1.00
C392   C     0.82361   0.84257   0.43552   0.00000  Uiso   1.00
C393   C     0.85592   0.83572   0.01554   0.00000  Uiso   1.00
C394   C     0.91763   0.86362   0.49426   0.00000  Uiso   1.00
C395   C     0.92984   0.88476   0.44624   0.00000  Uiso   1.00
C396   C     0.88205   0.87780   0.41920   0.00000  Uiso   1.00
C397   C     0.84095   0.82909   0.06811   0.00000  Uiso   1.00
C398   C     0.95001   0.86145   0.07442   0.00000  Uiso   1.00
C399   C     0.77962   0.82749   0.40303   0.00000  Uiso   1.00
H400   H     0.79223   0.81879   0.08714   0.00000  Uiso   1.00
H401   H     0.68448   0.78731   0.39871   0.00000  Uiso   1.00
H402   H     0.99415   0.74907   0.48195   0.00000  Uiso   1.00
H403   H     0.89195   0.90031   0.38509   0.00000  Uiso   1.00
C404   C     0.85641   0.98916   0.25040   0.00000  Uiso   1.00
H405   H     0.89610   0.67911   0.26520   0.00000  Uiso   1.00
C406   C     0.81326   0.67798   0.23779   0.00000  Uiso   1.00
N407   N     0.98241   0.84741   0.26416   0.00000  Uiso   1.00
H408   H     0.67043   0.87255   0.28957   0.00000  Uiso   1.00
N409   N     0.68426   0.81926   0.23584   0.00000  Uiso   1.00
H410   H     0.99624   0.79412   0.21043   0.00000  Uiso   1.00
N411   N     0.76406   0.98265   0.21293   0.00000  Uiso   1.00
O412   O     0.70569   0.98549   0.23084   0.00000  Uiso   1.00
O413   O     0.77864   0.95930   0.16898   0.00000  Uiso   1.00
Br414  Br    0.73449   0.73145   0.05109   0.00000  Uiso   1.00
O415   O     0.12797   0.23807   0.74633   0.00000  Uiso   1.00
O416   O     0.22858   0.24755   0.75587   0.00000  Uiso   1.00
C417   C     0.18217   0.26667   0.74995   0.00000  Uiso   1.00
O418   O     0.09181   0.15960   0.81840   0.00000  Uiso   1.00
O419   O     0.19242   0.16908   0.82793   0.00000  Uiso   1.00
C420   C     0.13324   0.16564   0.84725   0.00000  Uiso   1.00
Cu421  Cu    0.10710   0.16105   0.74436   0.00000  Uiso   1.00
Cu422  Cu    0.22623   0.17228   0.75565   0.00000  Uiso   1.00
O423   O     0.10476   0.08578   0.74414   0.00000  Uiso   1.00
O424   O     0.20536   0.09526   0.75367   0.00000  Uiso   1.00
O425   O     0.14092   0.16425   0.67207   0.00000  Uiso   1.00
O426   O     0.24152   0.17373   0.68161   0.00000  Uiso   1.00
C427   C     0.15235   0.06673   0.74634   0.00000  Uiso   1.00
C428   C     0.20046   0.17006   0.65299   0.00000  Uiso   1.00
C429   C     0.29820   0.20738   0.52309   0.00000  Uiso   1.00
H430   H     0.31982   0.20447   0.59659   0.00000  Uiso   1.00
H431   H     0.30869   0.24280   0.93087   0.00000  Uiso   1.00
H432   H     0.01262   0.22711   0.50645   0.00000  Uiso   1.00
C433   C     0.22057   0.17452   0.59762   0.00000  Uiso   1.00
C434   C     0.05258   0.13144   0.92243   0.00000  Uiso   1.00
C435   C     0.03899   0.10943   0.97003   0.00000  Uiso   1.00
C436   C     0.08475   0.11689   0.99961   0.00000  Uiso   1.00
C437   C     0.14308   0.15401   0.98472   0.00000  Uiso   1.00
C438   C     0.15694   0.17590   0.93552   0.00000  Uiso   1.00
C439   C     0.18926   0.16906   0.51554   0.00000  Uiso   1.00
C440   C     0.25096   0.19695   0.99426   0.00000  Uiso   1.00
C441   C     0.26317   0.21810   0.94624   0.00000  Uiso   1.00
C442   C     0.21539   0.21114   0.91920   0.00000  Uiso   1.00
C443   C     0.17429   0.16243   0.56811   0.00000  Uiso   1.00
C444   C     0.28334   0.19478   0.57442   0.00000  Uiso   1.00
C445   C     0.11295   0.16082   0.90303   0.00000  Uiso   1.00
H446   H     0.12556   0.15212   0.58714   0.00000  Uiso   1.00
H447   H     0.01782   0.12064   0.89871   0.00000  Uiso   1.00
H448   H     0.32748   0.08240   0.98195   0.00000  Uiso   1.00
H449   H     0.22528   0.23365   0.88509   0.00000  Uiso   1.00
C450   C     0.18974   0.32249   0.75040   0.00000  Uiso   1.00
H451   H     0.22943   0.01244   0.76520   0.00000  Uiso   1.00
C452   C     0.14660   0.01131   0.73779   0.00000  Uiso   1.00
N453   N     0.31574   0.18074   0.76416   0.00000  Uiso   1.00
H454   H     0.00376   0.20589   0.78957   0.00000  Uiso   1.00
N455   N     0.01759   0.15259   0.73584   0.00000  Uiso   1.00
H456   H     0.32957   0.12746   0.71043   0.00000  Uiso   1.00
N457   N     0.09739   0.31599   0.71293   0.00000  Uiso   1.00
O458   O     0.03902   0.31882   0.73084   0.00000  Uiso   1.00
O459   O     0.11197   0.29263   0.66898   0.00000  Uiso   1.00
Br460  Br    0.06783   0.06479   0.55109   0.00000  Uiso   1.00
O461   O     0.46131   0.23807   0.74633   0.00000  Uiso   1.00
O462   O     0.56191   0.24755   0.75587   0.00000  Uiso   1.00
C463   C     0.51550   0.26667   0.74995   0.00000  Uiso   1.00
O464   O     0.42515   0.15960   0.81840   0.00000  Uiso   1.00
O465   O     0.52575   0.16908   0.82793   0.00000  Uiso   1.00
C466   C     0.46657   0.16564   0.84725   0.00000  Uiso   1.00
Cu467  Cu    0.44043   0.16105   0.74436   0.00000  Uiso   1.00
Cu468  Cu    0.55957   0.17228   0.75565   0.00000  Uiso   1.00
O469   O     0.43809   0.08578   0.74414   0.00000  Uiso   1.00
O470   O     0.53869   0.09526   0.75367   0.00000  Uiso   1.00
O471   O     0.47425   0.16425   0.67207   0.00000  Uiso   1.00
O472   O     0.57485   0.17373   0.68161   0.00000  Uiso   1.00
C473   C     0.48568   0.06673   0.74634   0.00000  Uiso   1.00
C474   C     0.53380   0.17006   0.65299   0.00000  Uiso   1.00
C475   C     0.63153   0.20738   0.52309   0.00000  Uiso   1.00
H476   H     0.65315   0.20447   0.59659   0.00000  Uiso   1.00
H477   H     0.64202   0.24280   0.93087   0.00000  Uiso   1.00
H478   H     0.34595   0.22711   0.50645   0.00000  Uiso   1.00
C479   C     0.55390   0.17452   0.59762   0.00000  Uiso   1.00
C480   C     0.38592   0.13144   0.92243   0.00000  Uiso   1.00
C481   C     0.37233   0.10943   0.97003   0.00000  Uiso   1.00
C482   C     0.41808   0.11689   0.99961   0.00000  Uiso   1.00
C483   C     0.47641   0.15401   0.98472   0.00000  Uiso   1.00
C484   C     0.49027   0.17590   0.93552   0.00000  Uiso   1.00
C485   C     0.52259   0.16906   0.51554   0.00000  Uiso   1.00
C486   C     0.58429   0.19695   0.99426   0.00000  Uiso   1.00
C487   C     0.59651   0.21810   0.94624   0.00000  Uiso   1.00
C488   C     0.54872   0.21114   0.91920   0.00000  Uiso   1.00
C489   C     0.50762   0.16243   0.56811   0.00000  Uiso   1.00
C490   C     0.61668   0.19478   0.57442   0.00000  Uiso   1.00
C491   C     0.44628   0.16082   0.90303   0.00000  Uiso   1.00
H492   H     0.45889   0.15212   0.58714   0.00000  Uiso   1.00
H493   H     0.35115   0.12064   0.89871   0.00000  Uiso   1.00
H494   H     0.66082   0.08240   0.98195   0.00000  Uiso   1.00
H495   H     0.55861   0.23365   0.88509   0.00000  Uiso   1.00
C496   C     0.52307   0.32249   0.75040   0.00000  Uiso   1.00
H497   H     0.56276   0.01244   0.76520   0.00000  Uiso   1.00
C498   C     0.47993   0.01131   0.73779   0.00000  Uiso   1.00
N499   N     0.64908   0.18074   0.76416   0.00000  Uiso   1.00
H500   H     0.33709   0.20589   0.78957   0.00000  Uiso   1.00
N501   N     0.35092   0.15259   0.73584   0.00000  Uiso   1.00
H502   H     0.66291   0.12746   0.71043   0.00000  Uiso   1.00
N503   N     0.43073   0.31599   0.71293   0.00000  Uiso   1.00
O504   O     0.37235   0.31882   0.73084   0.00000  Uiso   1.00
O505   O     0.44531   0.29263   0.66898   0.00000  Uiso   1.00
Br506  Br    0.40116   0.06479   0.55109   0.00000  Uiso   1.00
O507   O     0.79464   0.23807   0.74633   0.00000  Uiso   1.00
O508   O     0.89524   0.24755   0.75587   0.00000  Uiso   1.00
C509   C     0.84883   0.26667   0.74995   0.00000  Uiso   1.00
O510   O     0.75848   0.15960   0.81840   0.00000  Uiso   1.00
O511   O     0.85908   0.16908   0.82793   0.00000  Uiso   1.00
C512   C     0.79990   0.16564   0.84725   0.00000  Uiso   1.00
Cu513  Cu    0.77377   0.16105   0.74436   0.00000  Uiso   1.00
Cu514  Cu    0.89290   0.17228   0.75565   0.00000  Uiso   1.00
O515   O     0.77142   0.08578   0.74414   0.00000  Uiso   1.00
O516   O     0.87203   0.09526   0.75367   0.00000  Uiso   1.00
O517   O     0.80758   0.16425   0.67207   0.00000  Uiso   1.00
O518   O     0.90819   0.17373   0.68161   0.00000  Uiso   1.00
C519   C     0.81902   0.06673   0.74634   0.00000  Uiso   1.00
C520   C     0.86713   0.17006   0.65299   0.00000  Uiso   1.00
C521   C     0.96487   0.20738   0.52309   0.00000  Uiso   1.00
H522   H     0.98648   0.20447   0.59659   0.00000  Uiso   1.00
H523   H     0.97536   0.24280   0.93087   0.00000  Uiso   1.00
H524   H     0.67929   0.22711   0.50645   0.00000  Uiso   1.00
C525   C     0.88723   0.17452   0.59762   0.00000  Uiso   1.00
C526   C     0.71925   0.13144   0.92243   0.00000  Uiso   1.00
C527   C     0.70566   0.10943   0.97003   0.00000  Uiso   1.00
C528   C     0.75142   0.11689   0.99961   0.00000  Uiso   1.00
C529   C     0.80974   0.15401   0.98472   0.00000  Uiso   1.00
C530   C     0.82361   0.17590   0.93552   0.00000  Uiso   1.00
C531   C     0.85592   0.16906   0.51554   0.00000  Uiso   1.00
C532   C     0.91763   0.19695   0.99426   0.00000  Uiso   1.00
C533   C     0.92984   0.21810   0.94624   0.00000  Uiso   1.00
C534   C     0.88205   0.21114   0.91920   0.00000  Uiso   1.00
C535   C     0.84095   0.16243   0.56811   0.00000  Uiso   1.00
C536   C     0.95001   0.19478   0.57442   0.00000  Uiso   1.00
C537   C     0.77962   0.16082   0.90303   0.00000  Uiso   1.00
H538   H     0.79223   0.15212   0.58714   0.00000  Uiso   1.00
H539   H     0.68448   0.12064   0.89871   0.00000  Uiso   1.00
H540   H     0.99415   0.08240   0.98195   0.00000  Uiso   1.00
H541   H     0.89195   0.23365   0.88509   0.00000  Uiso   1.00
C542   C     0.85641   0.32249   0.75040   0.00000  Uiso   1.00
H543   H     0.89610   0.01244   0.76520   0.00000  Uiso   1.00
C544   C     0.81326   0.01131   0.73779   0.00000  Uiso   1.00
N545   N     0.98241   0.18074   0.76416   0.00000  Uiso   1.00
H546   H     0.67043   0.20589   0.78957   0.00000  Uiso   1.00
N547   N     0.68426   0.15259   0.73584   0.00000  Uiso   1.00
H548   H     0.99624   0.12746   0.71043   0.00000  Uiso   1.00
N549   N     0.76406   0.31599   0.71293   0.00000  Uiso   1.00
O550   O     0.70569   0.31882   0.73084   0.00000  Uiso   1.00
O551   O     0.77864   0.29263   0.66898   0.00000  Uiso   1.00
Br552  Br    0.73449   0.06479   0.55109   0.00000  Uiso   1.00
O553   O     0.12797   0.57141   0.74633   0.00000  Uiso   1.00
O554   O     0.22858   0.58089   0.75587   0.00000  Uiso   1.00
C555   C     0.18217   0.60000   0.74995   0.00000  Uiso   1.00
O556   O     0.09181   0.49293   0.81840   0.00000  Uiso   1.00
O557   O     0.19242   0.50241   0.82793   0.00000  Uiso   1.00
C558   C     0.13324   0.49898   0.84725   0.00000  Uiso   1.00
Cu559  Cu    0.10710   0.49439   0.74436   0.00000  Uiso   1.00
Cu560  Cu    0.22623   0.50561   0.75565   0.00000  Uiso   1.00
O561   O     0.10476   0.41911   0.74414   0.00000  Uiso   1.00
O562   O     0.20536   0.42859   0.75367   0.00000  Uiso   1.00
O563   O     0.14092   0.49759   0.67207   0.00000  Uiso   1.00
O564   O     0.24152   0.50707   0.68161   0.00000  Uiso   1.00
C565   C     0.15235   0.40007   0.74634   0.00000  Uiso   1.00
C566   C     0.20046   0.50339   0.65299   0.00000  Uiso   1.00
C567   C     0.29820   0.54072   0.52309   0.00000  Uiso   1.00
H568   H     0.31982   0.53781   0.59659   0.00000  Uiso   1.00
H569   H     0.30869   0.57613   0.93087   0.00000  Uiso   1.00
H570   H     0.01262   0.56044   0.50645   0.00000  Uiso   1.00
C571   C     0.22057   0.50786   0.59762   0.00000  Uiso   1.00
C572   C     0.05258   0.46478   0.92243   0.00000  Uiso   1.00
C573   C     0.03899   0.44276   0.97003   0.00000  Uiso   1.00
C574   C     0.08475   0.45022   0.99961   0.00000  Uiso   1.00
C575   C     0.14308   0.48735   0.98472   0.00000  Uiso   1.00
C576   C     0.15694   0.50924   0.93552   0.00000  Uiso   1.00
C577   C     0.18926   0.50239   0.51554   0.00000  Uiso   1.00
C578   C     0.25096   0.53029   0.99426   0.00000  Uiso   1.00
C579   C     0.26317   0.55143   0.94624   0.00000  Uiso   1.00
C580   C     0.21539   0.54447   0.91920   0.00000  Uiso   1.00
C581   C     0.17429   0.49576   0.56811   0.00000  Uiso   1.00
C582   C     0.28334   0.52811   0.57442   0.00000  Uiso   1.00
C583   C     0.11295   0.49416   0.90303   0.00000  Uiso   1.00
H584   H     0.12556   0.48546   0.58714   0.00000  Uiso   1.00
H585   H     0.01782   0.45398   0.89871   0.00000  Uiso   1.00
H586   H     0.32748   0.41574   0.98195   0.00000  Uiso   1.00
H587   H     0.22528   0.56698   0.88509   0.00000  Uiso   1.00
C588   C     0.18974   0.65583   0.75040   0.00000  Uiso   1.00
H589   H     0.22943   0.34578   0.76520   0.00000  Uiso   1.00
C590   C     0.14660   0.34465   0.73779   0.00000  Uiso   1.00
N591   N     0.31574   0.51407   0.76416   0.00000  Uiso   1.00
H592   H     0.00376   0.53922   0.78957   0.00000  Uiso   1.00
N593   N     0.01759   0.48593   0.73584   0.00000  Uiso   1.00
H594   H     0.32957   0.46079   0.71043   0.00000  Uiso   1.00
N595   N     0.09739   0.64932   0.71293   0.00000  Uiso   1.00
O596   O     0.03902   0.65215   0.73084   0.00000  Uiso   1.00
O597   O     0.11197   0.62597   0.66898   0.00000  Uiso   1.00
Br598  Br    0.06783   0.39812   0.55109   0.00000  Uiso   1.00
O599   O     0.46131   0.57141   0.74633   0.00000  Uiso   1.00
O600   O     0.56191   0.58089   0.75587   0.00000  Uiso   1.00
C601   C     0.51550   0.60000   0.74995   0.00000  Uiso   1.00
O602   O     0.42515   0.49293   0.81840   0.00000  Uiso   1.00
O603   O     0.52575   0.50241   0.82793   0.00000  Uiso   1.00
C604   C     0.46657   0.49898   0.84725   0.00000  Uiso   1.00
Cu605  Cu    0.44043   0.49439   0.74436   0.00000  Uiso   1.00
Cu606  Cu    0.55957   0.50561   0.75565   0.00000  Uiso   1.00
O607   O     0.43809   0.41911   0.74414   0.00000  Uiso   1.00
O608   O     0.53869   0.42859   0.75367   0.00000  Uiso   1.00
O609   O     0.47425   0.49759   0.67207   0.00000  Uiso   1.00
O610   O     0.57485   0.50707   0.68161   0.00000  Uiso   1.00
C611   C     0.48568   0.40007   0.74634   0.00000  Uiso   1.00
C612   C     0.53380   0.50339   0.65299   0.00000  Uiso   1.00
C613   C     0.63153   0.54072   0.52309   0.00000  Uiso   1.00
H614   H     0.65315   0.53781   0.59659   0.00000  Uiso   1.00
H615   H     0.64202   0.57613   0.93087   0.00000  Uiso   1.00
H616   H     0.34595   0.56044   0.50645   0.00000  Uiso   1.00
C617   C     0.55390   0.50786   0.59762   0.00000  Uiso   1.00
C618   C     0.38592   0.46478   0.92243   0.00000  Uiso   1.00
C619   C     0.37233   0.44276   0.97003   0.00000  Uiso   1.00
C620   C     0.41808   0.45022   0.99961   0.00000  Uiso   1.00
C621   C     0.47641   0.48735   0.98472   0.00000  Uiso   1.00
C622   C     0.49027   0.50924   0.93552   0.00000  Uiso   1.00
C623   C     0.52259   0.50239   0.51554   0.00000  Uiso   1.00
C624   C     0.58429   0.53029   0.99426   0.00000  Uiso   1.00
C625   C     0.59651   0.55143   0.94624   0.00000  Uiso   1.00
C626   C     0.54872   0.54447   0.91920   0.00000  Uiso   1.00
C627   C     0.50762   0.49576   0.56811   0.00000  Uiso   1.00
C628   C     0.61668   0.52811   0.57442   0.00000  Uiso   1.00
C629   C     0.44628   0.49416   0.90303   0.00000  Uiso   1.00
H630   H     0.45889   0.48546   0.58714   0.00000  Uiso   1.00
H631   H     0.35115   0.45398   0.89871   0.00000  Uiso   1.00
H632   H     0.66082   0.41574   0.98195   0.00000  Uiso   1.00
H633   H     0.55861   0.56698   0.88509   0.00000  Uiso   1.00
C634   C     0.52307   0.65583   0.75040   0.00000  Uiso   1.00
H635   H     0.56276   0.34578   0.76520   0.00000  Uiso   1.00
C636   C     0.47993   0.34465   0.73779   0.00000  Uiso   1.00
N637   N     0.64908   0.51407   0.76416   0.00000  Uiso   1.00
H638   H     0.33709   0.53922   0.78957   0.00000  Uiso   1.00
N639   N     0.35092   0.48593   0.73584   0.00000  Uiso   1.00
H640   H     0.66291   0.46079   0.71043   0.00000  Uiso   1.00
N641   N     0.43073   0.64932   0.71293   0.00000  Uiso   1.00
O642   O     0.37235   0.65215   0.73084   0.00000  Uiso   1.00
O643   O     0.44531   0.62597   0.66898   0.00000  Uiso   1.00
Br644  Br    0.40116   0.39812   0.55109   0.00000  Uiso   1.00
O645   O     0.79464   0.57141   0.74633   0.00000  Uiso   1.00
O646   O     0.89524   0.58089   0.75587   0.00000  Uiso   1.00
C647   C     0.84883   0.60000   0.74995   0.00000  Uiso   1.00
O648   O     0.75848   0.49293   0.81840   0.00000  Uiso   1.00
O649   O     0.85908   0.50241   0.82793   0.00000  Uiso   1.00
C650   C     0.79990   0.49898   0.84725   0.00000  Uiso   1.00
Cu651  Cu    0.77377   0.49439   0.74436   0.00000  Uiso   1.00
Cu652  Cu    0.89290   0.50561   0.75565   0.00000  Uiso   1.00
O653   O     0.77142   0.41911   0.74414   0.00000  Uiso   1.00
O654   O     0.87203   0.42859   0.75367   0.00000  Uiso   1.00
O655   O     0.80758   0.49759   0.67207   0.00000  Uiso   1.00
O656   O     0.90819   0.50707   0.68161   0.00000  Uiso   1.00
C657   C     0.81902   0.40007   0.74634   0.00000  Uiso   1.00
C658   C     0.86713   0.50339   0.65299   0.00000  Uiso   1.00
C659   C     0.96487   0.54072   0.52309   0.00000  Uiso   1.00
H660   H     0.98648   0.53781   0.59659   0.00000  Uiso   1.00
H661   H     0.97536   0.57613   0.93087   0.00000  Uiso   1.00
H662   H     0.67929   0.56044   0.50645   0.00000  Uiso   1.00
C663   C     0.88723   0.50786   0.59762   0.00000  Uiso   1.00
C664   C     0.71925   0.46478   0.92243   0.00000  Uiso   1.00
C665   C     0.70566   0.44276   0.97003   0.00000  Uiso   1.00
C666   C     0.75142   0.45022   0.99961   0.00000  Uiso   1.00
C667   C     0.80974   0.48735   0.98472   0.00000  Uiso   1.00
C668   C     0.82361   0.50924   0.93552   0.00000  Uiso   1.00
C669   C     0.85592   0.50239   0.51554   0.00000  Uiso   1.00
C670   C     0.91763   0.53029   0.99426   0.00000  Uiso   1.00
C671   C     0.92984   0.55143   0.94624   0.00000  Uiso   1.00
C672   C     0.88205   0.54447   0.91920   0.00000  Uiso   1.00
C673   C     0.84095   0.49576   0.56811   0.00000  Uiso   1.00
C674   C     0.95001   0.52811   0.57442   0.00000  Uiso   1.00
C675   C     0.77962   0.49416   0.90303   0.00000  Uiso   1.00
H676   H     0.79223   0.48546   0.58714   0.00000  Uiso   1.00
H677   H     0.68448   0.45398   0.89871   0.00000  Uiso   1.00
H678   H     0.99415   0.41574   0.98195   0.00000  Uiso   1.00
H679   H     0.89195   0.56698   0.88509   0.00000  Uiso   1.00
C680   C     0.85641   0.65583   0.75040   0.00000  Uiso   1.00
H681   H     0.89610   0.34578   0.76520   0.00000  Uiso   1.00
C682   C     0.81326   0.34465   0.73779   0.00000  Uiso   1.00
N683   N     0.98241   0.51407   0.76416   0.00000  Uiso   1.00
H684   H     0.67043   0.53922   0.78957   0.00000  Uiso   1.00
N685   N     0.68426   0.48593   0.73584   0.00000  Uiso   1.00
H686   H     0.99624   0.46079   0.71043   0.00000  Uiso   1.00
N687   N     0.76406   0.64932   0.71293   0.00000  Uiso   1.00
O688   O     0.70569   0.65215   0.73084   0.00000  Uiso   1.00
O689   O     0.77864   0.62597   0.66898   0.00000  Uiso   1.00
Br690  Br    0.73449   0.39812   0.55109   0.00000  Uiso   1.00
O691   O     0.12797   0.90474   0.74633   0.00000  Uiso   1.00
O692   O     0.22858   0.91422   0.75587   0.00000  Uiso   1.00
C693   C     0.18217   0.93333   0.74995   0.00000  Uiso   1.00
O694   O     0.09181   0.82627   0.81840   0.00000  Uiso   1.00
O695   O     0.19242   0.83575   0.82793   0.00000  Uiso   1.00
C696   C     0.13324   0.83231   0.84725   0.00000  Uiso   1.00
Cu697  Cu    0.10710   0.82772   0.74436   0.00000  Uiso   1.00
Cu698  Cu    0.22623   0.83895   0.75565   0.00000  Uiso   1.00
O699   O     0.10476   0.75245   0.74414   0.00000  Uiso   1.00
O700   O     0.20536   0.76193   0.75367   0.00000  Uiso   1.00
O701   O     0.14092   0.83092   0.67207   0.00000  Uiso   1.00
O702   O     0.24152   0.84040   0.68161   0.00000  Uiso   1.00
C703   C     0.15235   0.73340   0.74634   0.00000  Uiso   1.00
C704   C     0.20046   0.83672   0.65299   0.00000  Uiso   1.00
C705   C     0.29820   0.87405   0.52309   0.00000  Uiso   1.00
H706   H     0.31982   0.87114   0.59659   0.00000  Uiso   1.00
H707   H     0.30869   0.90947   0.93087   0.00000  Uiso   1.00
H708   H     0.01262   0.89377   0.50645   0.00000  Uiso   1.00
C709   C     0.22057   0.84119   0.59762   0.00000  Uiso   1.00
C710   C     0.05258   0.79811   0.92243   0.00000  Uiso   1.00
C711   C     0.03899   0.77609   0.97003   0.00000  Uiso   1.00
C712   C     0.08475   0.78355   0.99961   0.00000  Uiso   1.00
C713   C     0.14308   0.82068   0.98472   0.00000  Uiso   1.00
C714   C     0.15694   0.84257   0.93552   0.00000  Uiso   1.00
C715   C     0.18926   0.83572   0.51554   0.00000  Uiso   1.00
C716   C     0.25096   0.86362   0.99426   0.00000  Uiso   1.00
C717   C     0.26317   0.88476   0.94624   0.00000  Uiso   1.00
C718   C     0.21539   0.87780   0.91920   0.00000  Uiso   1.00
C719   C     0.17429   0.82909   0.56811   0.00000  Uiso   1.00
C720   C     0.28334   0.86145   0.57442   0.00000  Uiso   1.00
C721   C     0.11295   0.82749   0.90303   0.00000  Uiso   1.00
H722   H     0.12556   0.81879   0.58714   0.00000  Uiso   1.00
H723   H     0.01782   0.78731   0.89871   0.00000  Uiso   1.00
H724   H     0.32748   0.74907   0.98195   0.00000  Uiso   1.00
H725   H     0.22528   0.90031   0.88509   0.00000  Uiso   1.00
C726   C     0.18974   0.98916   0.75040   0.00000  Uiso   1.00
H727   H     0.22943   0.67911   0.76520   0.00000  Uiso   1.00
C728   C     0.14660   0.67798   0.73779   0.00000  Uiso   1.00
N729   N     0.31574   0.84741   0.76416   0.00000  Uiso   1.00
H730   H     0.00376   0.87255   0.78957   0.00000  Uiso   1.00
N731   N     0.01759   0.81926   0.73584   0.00000  Uiso   1.00
H732   H     0.32957   0.79412   0.71043   0.00000  Uiso   1.00
N733   N     0.09739   0.98265   0.71293   0.00000  Uiso   1.00
O734   O     0.03902   0.98549   0.73084   0.00000  Uiso   1.00
O735   O     0.11197   0.95930   0.66898   0.00000  Uiso   1.00
Br736  Br    0.06783   0.73145   0.55109   0.00000  Uiso   1.00
O737   O     0.46131   0.90474   0.74633   0.00000  Uiso   1.00
O738   O     0.56191   0.91422   0.75587   0.00000  Uiso   1.00
C739   C     0.51550   0.93333   0.74995   0.00000  Uiso   1.00
O740   O     0.42515   0.82627   0.81840   0.00000  Uiso   1.00
O741   O     0.52575   0.83575   0.82793   0.00000  Uiso   1.00
C742   C     0.46657   0.83231   0.84725   0.00000  Uiso   1.00
Cu743  Cu    0.44043   0.82772   0.74436   0.00000  Uiso   1.00
Cu744  Cu    0.55957   0.83895   0.75565   0.00000  Uiso   1.00
O745   O     0.43809   0.75245   0.74414   0.00000  Uiso   1.00
O746   O     0.53869   0.76193   0.75367   0.00000  Uiso   1.00
O747   O     0.47425   0.83092   0.67207   0.00000  Uiso   1.00
O748   O     0.57485   0.84040   0.68161   0.00000  Uiso   1.00
C749   C     0.48568   0.73340   0.74634   0.00000  Uiso   1.00
C750   C     0.53380   0.83672   0.65299   0.00000  Uiso   1.00
C751   C     0.63153   0.87405   0.52309   0.00000  Uiso   1.00
H752   H     0.65315   0.87114   0.59659   0.00000  Uiso   1.00
H753   H     0.64202   0.90947   0.93087   0.00000  Uiso   1.00
H754   H     0.34595   0.89377   0.50645   0.00000  Uiso   1.00
C755   C     0.55390   0.84119   0.59762   0.00000  Uiso   1.00
C756   C     0.38592   0.79811   0.92243   0.00000  Uiso   1.00
C757   C     0.37233   0.77609   0.97003   0.00000  Uiso   1.00
C758   C     0.41808   0.78355   0.99961   0.00000  Uiso   1.00
C759   C     0.47641   0.82068   0.98472   0.00000  Uiso   1.00
C760   C     0.49027   0.84257   0.93552   0.00000  Uiso   1.00
C761   C     0.52259   0.83572   0.51554   0.00000  Uiso   1.00
C762   C     0.58429   0.86362   0.99426   0.00000  Uiso   1.00
C763   C     0.59651   0.88476   0.94624   0.00000  Uiso   1.00
C764   C     0.54872   0.87780   0.91920   0.00000  Uiso   1.00
C765   C     0.50762   0.82909   0.56811   0.00000  Uiso   1.00
C766   C     0.61668   0.86145   0.57442   0.00000  Uiso   1.00
C767   C     0.44628   0.82749   0.90303   0.00000  Uiso   1.00
H768   H     0.45889   0.81879   0.58714   0.00000  Uiso   1.00
H769   H     0.35115   0.78731   0.89871   0.00000  Uiso   1.00
H770   H     0.66082   0.74907   0.98195   0.00000  Uiso   1.00
H771   H     0.55861   0.90031   0.88509   0.00000  Uiso   1.00
C772   C     0.52307   0.98916   0.75040   0.00000  Uiso   1.00
H773   H     0.56276   0.67911   0.76520   0.00000  Uiso   1.00
C774   C     0.47993   0.67798   0.73779   0.00000  Uiso   1.00
N775   N     0.64908   0.84741   0.76416   0.00000  Uiso   1.00
H776   H     0.33709   0.87255   0.78957   0.00000  Uiso   1.00
N777   N     0.35092   0.81926   0.73584   0.00000  Uiso   1.00
H778   H     0.66291   0.79412   0.71043   0.00000  Uiso   1.00
N779   N     0.43073   0.98265   0.71293   0.00000  Uiso   1.00
O780   O     0.37235   0.98549   0.73084   0.00000  Uiso   1.00
O781   O     0.44531   0.95930   0.66898   0.00000  Uiso   1.00
Br782  Br    0.40116   0.73145   0.55109   0.00000  Uiso   1.00
O783   O     0.79464   0.90474   0.74633   0.00000  Uiso   1.00
O784   O     0.89524   0.91422   0.75587   0.00000  Uiso   1.00
C785   C     0.84883   0.93333   0.74995   0.00000  Uiso   1.00
O786   O     0.75848   0.82627   0.81840   0.00000  Uiso   1.00
O787   O     0.85908   0.83575   0.82793   0.00000  Uiso   1.00
C788   C     0.79990   0.83231   0.84725   0.00000  Uiso   1.00
Cu789  Cu    0.77377   0.82772   0.74436   0.00000  Uiso   1.00
Cu790  Cu    0.89290   0.83895   0.75565   0.00000  Uiso   1.00
O791   O     0.77142   0.75245   0.74414   0.00000  Uiso   1.00
O792   O     0.87203   0.76193   0.75367   0.00000  Uiso   1.00
O793   O     0.80758   0.83092   0.67207   0.00000  Uiso   1.00
O794   O     0.90819   0.84040   0.68161   0.00000  Uiso   1.00
C795   C     0.81902   0.73340   0.74634   0.00000  Uiso   1.00
C796   C     0.86713   0.83672   0.65299   0.00000  Uiso   1.00
C797   C     0.96487   0.87405   0.52309   0.00000  Uiso   1.00
H798   H     0.98648   0.87114   0.59659   0.00000  Uiso   1.00
H799   H     0.97536   0.90947   0.93087   0.00000  Uiso   1.00
H800   H     0.67929   0.89377   0.50645   0.00000  Uiso   1.00
C801   C     0.88723   0.84119   0.59762   0.00000  Uiso   1.00
C802   C     0.71925   0.79811   0.92243   0.00000  Uiso   1.00
C803   C     0.70566   0.77609   0.97003   0.00000  Uiso   1.00
C804   C     0.75142   0.78355   0.99961   0.00000  Uiso   1.00
C805   C     0.80974   0.82068   0.98472   0.00000  Uiso   1.00
C806   C     0.82361   0.84257   0.93552   0.00000  Uiso   1.00
C807   C     0.85592   0.83572   0.51554   0.00000  Uiso   1.00
C808   C     0.91763   0.86362   0.99426   0.00000  Uiso   1.00
C809   C     0.92984   0.88476   0.94624   0.00000  Uiso   1.00
C810   C     0.88205   0.87780   0.91920   0.00000  Uiso   1.00
C811   C     0.84095   0.82909   0.56811   0.00000  Uiso   1.00
C812   C     0.95001   0.86145   0.57442   0.00000  Uiso   1.00
C813   C     0.77962   0.82749   0.90303   0.00000  Uiso   1.00
H814   H     0.79223   0.81879   0.58714   0.00000  Uiso   1.00
H815   H     0.68448   0.78731   0.89871   0.00000  Uiso   1.00
H816   H     0.99415   0.74907   0.98195   0.00000  Uiso   1.00
H817   H     0.89195   0.90031   0.88509   0.00000  Uiso   1.00
C818   C     0.85641   0.98916   0.75040   0.00000  Uiso   1.00
H819   H     0.89610   0.67911   0.76520   0.00000  Uiso   1.00
C820   C     0.81326   0.67798   0.73779   0.00000  Uiso   1.00
N821   N     0.98241   0.84741   0.76416   0.00000  Uiso   1.00
H822   H     0.67043   0.87255   0.78957   0.00000  Uiso   1.00
N823   N     0.68426   0.81926   0.73584   0.00000  Uiso   1.00
H824   H     0.99624   0.79412   0.71043   0.00000  Uiso   1.00
N825   N     0.76406   0.98265   0.71293   0.00000  Uiso   1.00
O826   O     0.70569   0.98549   0.73084   0.00000  Uiso   1.00
O827   O     0.77864   0.95930   0.66898   0.00000  Uiso   1.00
Br828  Br    0.73449   0.73145   0.55109   0.00000  Uiso   1.00
loop_
_geom_bond_atom_site_label_1
_geom_bond_atom_site_label_2
_geom_bond_distance
_geom_bond_site_symmetry_2
_ccdc_geom_bond_type
O1     Cu7     1.961   .     S
O1     C3      1.287   .     A
O2     C3      1.288   .     A
O2     Cu8     1.957   .     S
C3     C36     1.430   .     S
O4     Cu7     1.947   .     S
O4     C6      1.305   .     A
O5     Cu8     1.927   .     S
O5     C6      1.292   .     A
C6     C31     1.476   .     S
Cu7    Cu8     2.682   .     S
Cu7    O11     1.927   .     S
Cu7    O9      1.957   .     S
Cu7    N41     2.015   .     S
Cu8    N39     2.015   .     S
Cu8    O12     1.947   .     S
Cu8    O10     1.961   .     S
O9     C13     1.282   .     A
O10    C13     1.292   .     A
O11    C14     1.292   .     A
O12    C14     1.300   .     A
C13    C38     1.432   .     S
C14    C19     1.464   .     S
C15    C30     1.393   .     A
C15    H64     1.084   .     S
C15    C440    1.405   1_554 S
H16    C30     1.083   .     S
H17    C27     1.084   .     S
H18    C107    1.084   1_455 S
C19    C30     1.399   .     A
C19    C29     1.400   .     A
C20    H33     1.083   .     S
C20    C21     1.386   .     A
C20    C31     1.398   .     A
C21    C22     1.395   .     A
C21    H126    1.083   1_455 S
C22    C23     1.431   .     A
C22    Br460   1.930   .     S
C23    C24     1.423   .     A
C23    C439    1.427   .     S
C24    C31     1.422   .     A
C24    C28     1.415   .     A
C25    C29     1.394   .     A
C25    C437    1.427   1_554 S
C25    C440    1.419   1_554 S
C26    C27     1.389   .     A
C26    C439    1.419   .     S
C26    C429    1.405   .     S
C27    C28     1.386   .     A
C28    H35     1.081   .     S
C29    H32     1.076   .     S
H34    C67     1.083   .     S
C36    H175    1.088   .     S
C36    C176    1.339   .     S
H37    C312    1.088   1_545 S
C38    C312    1.339   1_545 S
C38    N319    1.442   1_545 S
N39    H86     1.029   .     S
N39    N87     1.287   .     S
H40    N131    1.029   1_455 S
N41    N131    1.287   1_455 S
N41    H134    1.029   1_455 S
H42    N87     1.029   .     S
N43    O45     1.302   .     A
N43    O44     1.301   .     A
N43    C176    1.442   .     S
Br46   C436    1.930   1_554 S
O47    Cu53    1.961   .     S
O47    C49     1.287   .     A
O48    C49     1.288   .     A
O48    Cu54    1.957   .     S
C49    C82     1.430   .     S
O50    Cu53    1.947   .     S
O50    C52     1.305   .     A
O51    Cu54    1.927   .     S
O51    C52     1.292   .     A
C52    C77     1.476   .     S
Cu53   Cu54    2.682   .     S
Cu53   O57     1.927   .     S
Cu53   O55     1.957   .     S
Cu53   N87     2.015   .     S
Cu54   N85     2.015   .     S
Cu54   O58     1.947   .     S
Cu54   O56     1.961   .     S
O55    C59     1.282   .     A
O56    C59     1.292   .     A
O57    C60     1.292   .     A
O58    C60     1.300   .     A
C59    C84     1.432   .     S
C60    C65     1.464   .     S
C61    C76     1.393   .     A
C61    H110    1.084   .     S
C61    C486    1.405   1_554 S
H62    C76     1.083   .     S
H63    C73     1.084   .     S
C65    C76     1.399   .     A
C65    C75     1.400   .     A
C66    H79     1.083   .     S
C66    C67     1.386   .     A
C66    C77     1.398   .     A
C67    C68     1.395   .     A
C68    C69     1.431   .     A
C68    Br506   1.930   .     S
C69    C70     1.423   .     A
C69    C485    1.427   .     S
C70    C77     1.422   .     A
C70    C74     1.415   .     A
C71    C75     1.394   .     A
C71    C483    1.427   1_554 S
C71    C486    1.419   1_554 S
C72    C73     1.389   .     A
C72    C485    1.419   .     S
C72    C475    1.405   .     S
C73    C74     1.386   .     A
C74    H81     1.081   .     S
C75    H78     1.076   .     S
H80    C113    1.083   .     S
C82    H221    1.088   .     S
C82    C222    1.339   .     S
H83    C358    1.088   1_545 S
C84    C358    1.339   1_545 S
C84    N365    1.442   1_545 S
N85    H132    1.029   .     S
N85    N133    1.287   .     S
H88    N133    1.029   .     S
N89    O91     1.302   .     A
N89    O90     1.301   .     A
N89    C222    1.442   .     S
Br92   C482    1.930   1_554 S
O93    Cu99    1.961   .     S
O93    C95     1.287   .     A
O94    C95     1.288   .     A
O94    Cu100   1.957   .     S
C95    C128    1.430   .     S
O96    Cu99    1.947   .     S
O96    C98     1.305   .     A
O97    Cu100   1.927   .     S
O97    C98     1.292   .     A
C98    C123    1.476   .     S
Cu99   Cu100   2.682   .     S
Cu99   O103    1.927   .     S
Cu99   O101    1.957   .     S
Cu99   N133    2.015   .     S
Cu100  N131    2.015   .     S
Cu100  O104    1.947   .     S
Cu100  O102    1.961   .     S
O101   C105    1.282   .     A
O102   C105    1.292   .     A
O103   C106    1.292   .     A
O104   C106    1.300   .     A
C105   C130    1.432   .     S
C106   C111    1.464   .     S
C107   C122    1.393   .     A
C107   H18     1.084   1_655 S
C107   C532    1.405   1_554 S
H108   C122    1.083   .     S
H109   C119    1.084   .     S
C111   C122    1.399   .     A
C111   C121    1.400   .     A
C112   H125    1.083   .     S
C112   C113    1.386   .     A
C112   C123    1.398   .     A
C113   C114    1.395   .     A
C114   C115    1.431   .     A
C114   Br552   1.930   .     S
C115   C116    1.423   .     A
C115   C531    1.427   .     S
C116   C123    1.422   .     A
C116   C120    1.415   .     A
C117   C121    1.394   .     A
C117   C529    1.427   1_554 S
C117   C532    1.419   1_554 S
C118   C119    1.389   .     A
C118   C531    1.419   .     S
C118   C521    1.405   .     S
C119   C120    1.386   .     A
C120   H127    1.081   .     S
C121   H124    1.076   .     S
H126   C21     1.083   1_655 S
C128   H267    1.088   .     S
C128   C268    1.339   .     S
H129   C404    1.088   1_545 S
C130   C404    1.339   1_545 S
C130   N411    1.442   1_545 S
N131   H40     1.029   1_655 S
N131   N41     1.287   1_655 S
H134   N41     1.029   1_655 S
N135   O137    1.302   .     A
N135   O136    1.301   .     A
N135   C268    1.442   .     S
Br138  C528    1.930   1_554 S
O139   Cu145   1.961   .     S
O139   C141    1.287   .     A
O140   C141    1.288   .     A
O140   Cu146   1.957   .     S
C141   C174    1.430   .     S
O142   Cu145   1.947   .     S
O142   C144    1.305   .     A
O143   Cu146   1.927   .     S
O143   C144    1.292   .     A
C144   C169    1.476   .     S
Cu145  Cu146   2.682   .     S
Cu145  O149    1.927   .     S
Cu145  O147    1.957   .     S
Cu145  N179    2.015   .     S
Cu146  N177    2.015   .     S
Cu146  O150    1.947   .     S
Cu146  O148    1.961   .     S
O147   C151    1.282   .     A
O148   C151    1.292   .     A
O149   C152    1.292   .     A
O150   C152    1.300   .     A
C151   C176    1.432   .     S
C152   C157    1.464   .     S
C153   C168    1.393   .     A
C153   H202    1.084   .     S
C153   C578    1.405   1_554 S
H154   C168    1.083   .     S
H155   C165    1.084   .     S
H156   C245    1.084   1_455 S
C157   C168    1.399   .     A
C157   C167    1.400   .     A
C158   H171    1.083   .     S
C158   C159    1.386   .     A
C158   C169    1.398   .     A
C159   C160    1.395   .     A
C159   H264    1.083   1_455 S
C160   C161    1.431   .     A
C160   Br598   1.930   .     S
C161   C162    1.423   .     A
C161   C577    1.427   .     S
C162   C169    1.422   .     A
C162   C166    1.415   .     A
C163   C167    1.394   .     A
C163   C575    1.427   1_554 S
C163   C578    1.419   1_554 S
C164   C165    1.389   .     A
C164   C577    1.419   .     S
C164   C567    1.405   .     S
C165   C166    1.386   .     A
C166   H173    1.081   .     S
C167   H170    1.076   .     S
H172   C205    1.083   .     S
C174   H313    1.088   .     S
C174   C314    1.339   .     S
N177   H224    1.029   .     S
N177   N225    1.287   .     S
H178   N269    1.029   1_455 S
N179   N269    1.287   1_455 S
N179   H272    1.029   1_455 S
H180   N225    1.029   .     S
N181   O183    1.302   .     A
N181   O182    1.301   .     A
N181   C314    1.442   .     S
Br184  C574    1.930   1_554 S
O185   Cu191   1.961   .     S
O185   C187    1.287   .     A
O186   C187    1.288   .     A
O186   Cu192   1.957   .     S
C187   C220    1.430   .     S
O188   Cu191   1.947   .     S
O188   C190    1.305   .     A
O189   Cu192   1.927   .     S
O189   C190    1.292   .     A
C190   C215    1.476   .     S
Cu191  Cu192   2.682   .     S
Cu191  O195    1.927   .     S
Cu191  O193    1.957   .     S
Cu191  N225    2.015   .     S
Cu192  N223    2.015   .     S
Cu192  O196    1.947   .     S
Cu192  O194    1.961   .     S
O193   C197    1.282   .     A
O194   C197    1.292   .     A
O195   C198    1.292   .     A
O196   C198    1.300   .     A
C197   C222    1.432   .     S
C198   C203    1.464   .     S
C199   C214    1.393   .     A
C199   H248    1.084   .     S
C199   C624    1.405   1_554 S
H200   C214    1.083   .     S
H201   C211    1.084   .     S
C203   C214    1.399   .     A
C203   C213    1.400   .     A
C204   H217    1.083   .     S
C204   C205    1.386   .     A
C204   C215    1.398   .     A
C205   C206    1.395   .     A
C206   C207    1.431   .     A
C206   Br644   1.930   .     S
C207   C208    1.423   .     A
C207   C623    1.427   .     S
C208   C215    1.422   .     A
C208   C212    1.415   .     A
C209   C213    1.394   .     A
C209   C621    1.427   1_554 S
C209   C624    1.419   1_554 S
C210   C211    1.389   .     A
C210   C623    1.419   .     S
C210   C613    1.405   .     S
C211   C212    1.386   .     A
C212   H219    1.081   .     S
C213   H216    1.076   .     S
H218   C251    1.083   .     S
C220   H359    1.088   .     S
C220   C360    1.339   .     S
N223   H270    1.029   .     S
N223   N271    1.287   .     S
H226   N271    1.029   .     S
N227   O229    1.302   .     A
N227   O228    1.301   .     A
N227   C360    1.442   .     S
Br230  C620    1.930   1_554 S
O231   Cu237   1.961   .     S
O231   C233    1.287   .     A
O232   C233    1.288   .     A
O232   Cu238   1.957   .     S
C233   C266    1.430   .     S
O234   Cu237   1.947   .     S
O234   C236    1.305   .     A
O235   Cu238   1.927   .     S
O235   C236    1.292   .     A
C236   C261    1.476   .     S
Cu237  Cu238   2.682   .     S
Cu237  O241    1.927   .     S
Cu237  O239    1.957   .     S
Cu237  N271    2.015   .     S
Cu238  N269    2.015   .     S
Cu238  O242    1.947   .     S
Cu238  O240    1.961   .     S
O239   C243    1.282   .     A
O240   C243    1.292   .     A
O241   C244    1.292   .     A
O242   C244    1.300   .     A
C243   C268    1.432   .     S
C244   C249    1.464   .     S
C245   C260    1.393   .     A
C245   H156    1.084   1_655 S
C245   C670    1.405   1_554 S
H246   C260    1.083   .     S
H247   C257    1.084   .     S
C249   C260    1.399   .     A
C249   C259    1.400   .     A
C250   H263    1.083   .     S
C250   C251    1.386   .     A
C250   C261    1.398   .     A
C251   C252    1.395   .     A
C252   C253    1.431   .     A
C252   Br690   1.930   .     S
C253   C254    1.423   .     A
C253   C669    1.427   .     S
C254   C261    1.422   .     A
C254   C258    1.415   .     A
C255   C259    1.394   .     A
C255   C667    1.427   1_554 S
C255   C670    1.419   1_554 S
C256   C257    1.389   .     A
C256   C669    1.419   .     S
C256   C659    1.405   .     S
C257   C258    1.386   .     A
C258   H265    1.081   .     S
C259   H262    1.076   .     S
H264   C159    1.083   1_655 S
C266   H405    1.088   .     S
C266   C406    1.339   .     S
N269   H178    1.029   1_655 S
N269   N179    1.287   1_655 S
H272   N179    1.029   1_655 S
N273   O275    1.302   .     A
N273   O274    1.301   .     A
N273   C406    1.442   .     S
Br276  C666    1.930   1_554 S
O277   Cu283   1.961   .     S
O277   C279    1.287   .     A
O278   C279    1.288   .     A
O278   Cu284   1.957   .     S
C279   C312    1.430   .     S
O280   Cu283   1.947   .     S
O280   C282    1.305   .     A
O281   Cu284   1.927   .     S
O281   C282    1.292   .     A
C282   C307    1.476   .     S
Cu283  Cu284   2.682   .     S
Cu283  O287    1.927   .     S
Cu283  O285    1.957   .     S
Cu283  N317    2.015   .     S
Cu284  N315    2.015   .     S
Cu284  O288    1.947   .     S
Cu284  O286    1.961   .     S
O285   C289    1.282   .     A
O286   C289    1.292   .     A
O287   C290    1.292   .     A
O288   C290    1.300   .     A
C289   C314    1.432   .     S
C290   C295    1.464   .     S
C291   C306    1.393   .     A
C291   H340    1.084   .     S
C291   C716    1.405   1_554 S
H292   C306    1.083   .     S
H293   C303    1.084   .     S
H294   C383    1.084   1_455 S
C295   C306    1.399   .     A
C295   C305    1.400   .     A
C296   H309    1.083   .     S
C296   C297    1.386   .     A
C296   C307    1.398   .     A
C297   C298    1.395   .     A
C297   H402    1.083   1_455 S
C298   C299    1.431   .     A
C298   Br736   1.930   .     S
C299   C300    1.423   .     A
C299   C715    1.427   .     S
C300   C307    1.422   .     A
C300   C304    1.415   .     A
C301   C305    1.394   .     A
C301   C713    1.427   1_554 S
C301   C716    1.419   1_554 S
C302   C303    1.389   .     A
C302   C715    1.419   .     S
C302   C705    1.405   .     S
C303   C304    1.386   .     A
C304   H311    1.081   .     S
C305   H308    1.076   .     S
H310   C343    1.083   .     S
C312   H37     1.088   1_565 S
C312   C38     1.339   1_565 S
N315   H362    1.029   .     S
N315   N363    1.287   .     S
H316   N407    1.029   1_455 S
N317   N407    1.287   1_455 S
N317   H410    1.029   1_455 S
H318   N363    1.029   .     S
N319   O321    1.302   .     A
N319   O320    1.301   .     A
N319   C38     1.442   1_565 S
Br322  C712    1.930   1_554 S
O323   Cu329   1.961   .     S
O323   C325    1.287   .     A
O324   C325    1.288   .     A
O324   Cu330   1.957   .     S
C325   C358    1.430   .     S
O326   Cu329   1.947   .     S
O326   C328    1.305   .     A
O327   Cu330   1.927   .     S
O327   C328    1.292   .     A
C328   C353    1.476   .     S
Cu329  Cu330   2.682   .     S
Cu329  O333    1.927   .     S
Cu329  O331    1.957   .     S
Cu329  N363    2.015   .     S
Cu330  N361    2.015   .     S
Cu330  O334    1.947   .     S
Cu330  O332    1.961   .     S
O331   C335    1.282   .     A
O332   C335    1.292   .     A
O333   C336    1.292   .     A
O334   C336    1.300   .     A
C335   C360    1.432   .     S
C336   C341    1.464   .     S
C337   C352    1.393   .     A
C337   H386    1.084   .     S
C337   C762    1.405   1_554 S
H338   C352    1.083   .     S
H339   C349    1.084   .     S
C341   C352    1.399   .     A
C341   C351    1.400   .     A
C342   H355    1.083   .     S
C342   C343    1.386   .     A
C342   C353    1.398   .     A
C343   C344    1.395   .     A
C344   C345    1.431   .     A
C344   Br782   1.930   .     S
C345   C346    1.423   .     A
C345   C761    1.427   .     S
C346   C353    1.422   .     A
C346   C350    1.415   .     A
C347   C351    1.394   .     A
C347   C759    1.427   1_554 S
C347   C762    1.419   1_554 S
C348   C349    1.389   .     A
C348   C761    1.419   .     S
C348   C751    1.405   .     S
C349   C350    1.386   .     A
C350   H357    1.081   .     S
C351   H354    1.076   .     S
H356   C389    1.083   .     S
C358   H83     1.088   1_565 S
C358   C84     1.339   1_565 S
N361   H408    1.029   .     S
N361   N409    1.287   .     S
H364   N409    1.029   .     S
N365   O367    1.302   .     A
N365   O366    1.301   .     A
N365   C84     1.442   1_565 S
Br368  C758    1.930   1_554 S
O369   Cu375   1.961   .     S
O369   C371    1.287   .     A
O370   C371    1.288   .     A
O370   Cu376   1.957   .     S
C371   C404    1.430   .     S
O372   Cu375   1.947   .     S
O372   C374    1.305   .     A
O373   Cu376   1.927   .     S
O373   C374    1.292   .     A
C374   C399    1.476   .     S
Cu375  Cu376   2.682   .     S
Cu375  O379    1.927   .     S
Cu375  O377    1.957   .     S
Cu375  N409    2.015   .     S
Cu376  N407    2.015   .     S
Cu376  O380    1.947   .     S
Cu376  O378    1.961   .     S
O377   C381    1.282   .     A
O378   C381    1.292   .     A
O379   C382    1.292   .     A
O380   C382    1.300   .     A
C381   C406    1.432   .     S
C382   C387    1.464   .     S
C383   C398    1.393   .     A
C383   H294    1.084   1_655 S
C383   C808    1.405   1_554 S
H384   C398    1.083   .     S
H385   C395    1.084   .     S
C387   C398    1.399   .     A
C387   C397    1.400   .     A
C388   H401    1.083   .     S
C388   C389    1.386   .     A
C388   C399    1.398   .     A
C389   C390    1.395   .     A
C390   C391    1.431   .     A
C390   Br828   1.930   .     S
C391   C392    1.423   .     A
C391   C807    1.427   .     S
C392   C399    1.422   .     A
C392   C396    1.415   .     A
C393   C397    1.394   .     A
C393   C805    1.427   1_554 S
C393   C808    1.419   1_554 S
C394   C395    1.389   .     A
C394   C807    1.419   .     S
C394   C797    1.405   .     S
C395   C396    1.386   .     A
C396   H403    1.081   .     S
C397   H400    1.076   .     S
H402   C297    1.083   1_655 S
C404   H129    1.088   1_565 S
C404   C130    1.339   1_565 S
N407   H316    1.029   1_655 S
N407   N317    1.287   1_655 S
H410   N317    1.029   1_655 S
N411   O413    1.302   .     A
N411   O412    1.301   .     A
N411   C130    1.442   1_565 S
Br414  C804    1.930   1_554 S
O415   Cu421   1.961   .     S
O415   C417    1.287   .     A
O416   C417    1.288   .     A
O416   Cu422   1.957   .     S
C417   C450    1.430   .     S
O418   Cu421   1.947   .     S
O418   C420    1.305   .     A
O419   Cu422   1.927   .     S
O419   C420    1.292   .     A
C420   C445    1.476   .     S
Cu421  Cu422   2.682   .     S
Cu421  O425    1.927   .     S
Cu421  O423    1.957   .     S
Cu421  N455    2.015   .     S
Cu422  N453    2.015   .     S
Cu422  O426    1.947   .     S
Cu422  O424    1.961   .     S
O423   C427    1.282   .     A
O424   C427    1.292   .     A
O425   C428    1.292   .     A
O426   C428    1.300   .     A
C427   C452    1.432   .     S
C428   C433    1.464   .     S
C429   C444    1.393   .     A
C429   H478    1.084   .     S
H430   C444    1.083   .     S
H431   C441    1.084   .     S
H432   C521    1.084   1_455 S
C433   C444    1.399   .     A
C433   C443    1.400   .     A
C434   H447    1.083   .     S
C434   C435    1.386   .     A
C434   C445    1.398   .     A
C435   C436    1.395   .     A
C435   H540    1.083   1_455 S
C436   C437    1.431   .     A
C436   Br46    1.930   1_556 S
C437   C438    1.423   .     A
C437   C25     1.427   1_556 S
C438   C445    1.422   .     A
C438   C442    1.415   .     A
C439   C443    1.394   .     A
C440   C441    1.389   .     A
C440   C25     1.419   1_556 S
C440   C15     1.405   1_556 S
C441   C442    1.386   .     A
C442   H449    1.081   .     S
C443   H446    1.076   .     S
H448   C481    1.083   .     S
C450   H589    1.088   .     S
C450   C590    1.339   .     S
H451   C726    1.088   1_545 S
C452   C726    1.339   1_545 S
C452   N733    1.442   1_545 S
N453   H500    1.029   .     S
N453   N501    1.287   .     S
H454   N545    1.029   1_455 S
N455   N545    1.287   1_455 S
N455   H548    1.029   1_455 S
H456   N501    1.029   .     S
N457   O459    1.302   .     A
N457   O458    1.301   .     A
N457   C590    1.442   .     S
O461   Cu467   1.961   .     S
O461   C463    1.287   .     A
O462   C463    1.288   .     A
O462   Cu468   1.957   .     S
C463   C496    1.430   .     S
O464   Cu467   1.947   .     S
O464   C466    1.305   .     A
O465   Cu468   1.927   .     S
O465   C466    1.292   .     A
C466   C491    1.476   .     S
Cu467  Cu468   2.682   .     S
Cu467  O471    1.927   .     S
Cu467  O469    1.957   .     S
Cu467  N501    2.015   .     S
Cu468  N499    2.015   .     S
Cu468  O472    1.947   .     S
Cu468  O470    1.961   .     S
O469   C473    1.282   .     A
O470   C473    1.292   .     A
O471   C474    1.292   .     A
O472   C474    1.300   .     A
C473   C498    1.432   .     S
C474   C479    1.464   .     S
C475   C490    1.393   .     A
C475   H524    1.084   .     S
H476   C490    1.083   .     S
H477   C487    1.084   .     S
C479   C490    1.399   .     A
C479   C489    1.400   .     A
C480   H493    1.083   .     S
C480   C481    1.386   .     A
C480   C491    1.398   .     A
C481   C482    1.395   .     A
C482   C483    1.431   .     A
C482   Br92    1.930   1_556 S
C483   C484    1.423   .     A
C483   C71     1.427   1_556 S
C484   C491    1.422   .     A
C484   C488    1.415   .     A
C485   C489    1.394   .     A
C486   C487    1.389   .     A
C486   C71     1.419   1_556 S
C486   C61     1.405   1_556 S
C487   C488    1.386   .     A
C488   H495    1.081   .     S
C489   H492    1.076   .     S
H494   C527    1.083   .     S
C496   H635    1.088   .     S
C496   C636    1.339   .     S
H497   C772    1.088   1_545 S
C498   C772    1.339   1_545 S
C498   N779    1.442   1_545 S
N499   H546    1.029   .     S
N499   N547    1.287   .     S
H502   N547    1.029   .     S
N503   O505    1.302   .     A
N503   O504    1.301   .     A
N503   C636    1.442   .     S
O507   Cu513   1.961   .     S
O507   C509    1.287   .     A
O508   C509    1.288   .     A
O508   Cu514   1.957   .     S
C509   C542    1.430   .     S
O510   Cu513   1.947   .     S
O510   C512    1.305   .     A
O511   Cu514   1.927   .     S
O511   C512    1.292   .     A
C512   C537    1.476   .     S
Cu513  Cu514   2.682   .     S
Cu513  O517    1.927   .     S
Cu513  O515    1.957   .     S
Cu513  N547    2.015   .     S
Cu514  N545    2.015   .     S
Cu514  O518    1.947   .     S
Cu514  O516    1.961   .     S
O515   C519    1.282   .     A
O516   C519    1.292   .     A
O517   C520    1.292   .     A
O518   C520    1.300   .     A
C519   C544    1.432   .     S
C520   C525    1.464   .     S
C521   C536    1.393   .     A
C521   H432    1.084   1_655 S
H522   C536    1.083   .     S
H523   C533    1.084   .     S
C525   C536    1.399   .     A
C525   C535    1.400   .     A
C526   H539    1.083   .     S
C526   C527    1.386   .     A
C526   C537    1.398   .     A
C527   C528    1.395   .     A
C528   C529    1.431   .     A
C528   Br138   1.930   1_556 S
C529   C530    1.423   .     A
C529   C117    1.427   1_556 S
C530   C537    1.422   .     A
C530   C534    1.415   .     A
C531   C535    1.394   .     A
C532   C533    1.389   .     A
C532   C117    1.419   1_556 S
C532   C107    1.405   1_556 S
C533   C534    1.386   .     A
C534   H541    1.081   .     S
C535   H538    1.076   .     S
H540   C435    1.083   1_655 S
C542   H681    1.088   .     S
C542   C682    1.339   .     S
H543   C818    1.088   1_545 S
C544   C818    1.339   1_545 S
C544   N825    1.442   1_545 S
N545   H454    1.029   1_655 S
N545   N455    1.287   1_655 S
H548   N455    1.029   1_655 S
N549   O551    1.302   .     A
N549   O550    1.301   .     A
N549   C682    1.442   .     S
O553   Cu559   1.961   .     S
O553   C555    1.287   .     A
O554   C555    1.288   .     A
O554   Cu560   1.957   .     S
C555   C588    1.430   .     S
O556   Cu559   1.947   .     S
O556   C558    1.305   .     A
O557   Cu560   1.927   .     S
O557   C558    1.292   .     A
C558   C583    1.476   .     S
Cu559  Cu560   2.682   .     S
Cu559  O563    1.927   .     S
Cu559  O561    1.957   .     S
Cu559  N593    2.015   .     S
Cu560  N591    2.015   .     S
Cu560  O564    1.947   .     S
Cu560  O562    1.961   .     S
O561   C565    1.282   .     A
O562   C565    1.292   .     A
O563   C566    1.292   .     A
O564   C566    1.300   .     A
C565   C590    1.432   .     S
C566   C571    1.464   .     S
C567   C582    1.393   .     A
C567   H616    1.084   .     S
H568   C582    1.083   .     S
H569   C579    1.084   .     S
H570   C659    1.084   1_455 S
C571   C582    1.399   .     A
C571   C581    1.400   .     A
C572   H585    1.083   .     S
C572   C573    1.386   .     A
C572   C583    1.398   .     A
C573   C574    1.395   .     A
C573   H678    1.083   1_455 S
C574   C575    1.431   .     A
C574   Br184   1.930   1_556 S
C575   C576    1.423   .     A
C575   C163    1.427   1_556 S
C576   C583    1.422   .     A
C576   C580    1.415   .     A
C577   C581    1.394   .     A
C578   C579    1.389   .     A
C578   C163    1.419   1_556 S
C578   C153    1.405   1_556 S
C579   C580    1.386   .     A
C580   H587    1.081   .     S
C581   H584    1.076   .     S
H586   C619    1.083   .     S
C588   H727    1.088   .     S
C588   C728    1.339   .     S
N591   H638    1.029   .     S
N591   N639    1.287   .     S
H592   N683    1.029   1_455 S
N593   N683    1.287   1_455 S
N593   H686    1.029   1_455 S
H594   N639    1.029   .     S
N595   O597    1.302   .     A
N595   O596    1.301   .     A
N595   C728    1.442   .     S
O599   Cu605   1.961   .     S
O599   C601    1.287   .     A
O600   C601    1.288   .     A
O600   Cu606   1.957   .     S
C601   C634    1.430   .     S
O602   Cu605   1.947   .     S
O602   C604    1.305   .     A
O603   Cu606   1.927   .     S
O603   C604    1.292   .     A
C604   C629    1.476   .     S
Cu605  Cu606   2.682   .     S
Cu605  O609    1.927   .     S
Cu605  O607    1.957   .     S
Cu605  N639    2.015   .     S
Cu606  N637    2.015   .     S
Cu606  O610    1.947   .     S
Cu606  O608    1.961   .     S
O607   C611    1.282   .     A
O608   C611    1.292   .     A
O609   C612    1.292   .     A
O610   C612    1.300   .     A
C611   C636    1.432   .     S
C612   C617    1.464   .     S
C613   C628    1.393   .     A
C613   H662    1.084   .     S
H614   C628    1.083   .     S
H615   C625    1.084   .     S
C617   C628    1.399   .     A
C617   C627    1.400   .     A
C618   H631    1.083   .     S
C618   C619    1.386   .     A
C618   C629    1.398   .     A
C619   C620    1.395   .     A
C620   C621    1.431   .     A
C620   Br230   1.930   1_556 S
C621   C622    1.423   .     A
C621   C209    1.427   1_556 S
C622   C629    1.422   .     A
C622   C626    1.415   .     A
C623   C627    1.394   .     A
C624   C625    1.389   .     A
C624   C209    1.419   1_556 S
C624   C199    1.405   1_556 S
C625   C626    1.386   .     A
C626   H633    1.081   .     S
C627   H630    1.076   .     S
H632   C665    1.083   .     S
C634   H773    1.088   .     S
C634   C774    1.339   .     S
N637   H684    1.029   .     S
N637   N685    1.287   .     S
H640   N685    1.029   .     S
N641   O643    1.302   .     A
N641   O642    1.301   .     A
N641   C774    1.442   .     S
O645   Cu651   1.961   .     S
O645   C647    1.287   .     A
O646   C647    1.288   .     A
O646   Cu652   1.957   .     S
C647   C680    1.430   .     S
O648   Cu651   1.947   .     S
O648   C650    1.305   .     A
O649   Cu652   1.927   .     S
O649   C650    1.292   .     A
C650   C675    1.476   .     S
Cu651  Cu652   2.682   .     S
Cu651  O655    1.927   .     S
Cu651  O653    1.957   .     S
Cu651  N685    2.015   .     S
Cu652  N683    2.015   .     S
Cu652  O656    1.947   .     S
Cu652  O654    1.961   .     S
O653   C657    1.282   .     A
O654   C657    1.292   .     A
O655   C658    1.292   .     A
O656   C658    1.300   .     A
C657   C682    1.432   .     S
C658   C663    1.464   .     S
C659   C674    1.393   .     A
C659   H570    1.084   1_655 S
H660   C674    1.083   .     S
H661   C671    1.084   .     S
C663   C674    1.399   .     A
C663   C673    1.400   .     A
C664   H677    1.083   .     S
C664   C665    1.386   .     A
C664   C675    1.398   .     A
C665   C666    1.395   .     A
C666   C667    1.431   .     A
C666   Br276   1.930   1_556 S
C667   C668    1.423   .     A
C667   C255    1.427   1_556 S
C668   C675    1.422   .     A
C668   C672    1.415   .     A
C669   C673    1.394   .     A
C670   C671    1.389   .     A
C670   C255    1.419   1_556 S
C670   C245    1.405   1_556 S
C671   C672    1.386   .     A
C672   H679    1.081   .     S
C673   H676    1.076   .     S
H678   C573    1.083   1_655 S
C680   H819    1.088   .     S
C680   C820    1.339   .     S
N683   H592    1.029   1_655 S
N683   N593    1.287   1_655 S
H686   N593    1.029   1_655 S
N687   O689    1.302   .     A
N687   O688    1.301   .     A
N687   C820    1.442   .     S
O691   Cu697   1.961   .     S
O691   C693    1.287   .     A
O692   C693    1.288   .     A
O692   Cu698   1.957   .     S
C693   C726    1.430   .     S
O694   Cu697   1.947   .     S
O694   C696    1.305   .     A
O695   Cu698   1.927   .     S
O695   C696    1.292   .     A
C696   C721    1.476   .     S
Cu697  Cu698   2.682   .     S
Cu697  O701    1.927   .     S
Cu697  O699    1.957   .     S
Cu697  N731    2.015   .     S
Cu698  N729    2.015   .     S
Cu698  O702    1.947   .     S
Cu698  O700    1.961   .     S
O699   C703    1.282   .     A
O700   C703    1.292   .     A
O701   C704    1.292   .     A
O702   C704    1.300   .     A
C703   C728    1.432   .     S
C704   C709    1.464   .     S
C705   C720    1.393   .     A
C705   H754    1.084   .     S
H706   C720    1.083   .     S
H707   C717    1.084   .     S
H708   C797    1.084   1_455 S
C709   C720    1.399   .     A
C709   C719    1.400   .     A
C710   H723    1.083   .     S
C710   C711    1.386   .     A
C710   C721    1.398   .     A
C711   C712    1.395   .     A
C711   H816    1.083   1_455 S
C712   C713    1.431   .     A
C712   Br322   1.930   1_556 S
C713   C714    1.423   .     A
C713   C301    1.427   1_556 S
C714   C721    1.422   .     A
C714   C718    1.415   .     A
C715   C719    1.394   .     A
C716   C717    1.389   .     A
C716   C301    1.419   1_556 S
C716   C291    1.405   1_556 S
C717   C718    1.386   .     A
C718   H725    1.081   .     S
C719   H722    1.076   .     S
H724   C757    1.083   .     S
C726   H451    1.088   1_565 S
C726   C452    1.339   1_565 S
N729   H776    1.029   .     S
N729   N777    1.287   .     S
H730   N821    1.029   1_455 S
N731   N821    1.287   1_455 S
N731   H824    1.029   1_455 S
H732   N777    1.029   .     S
N733   O735    1.302   .     A
N733   O734    1.301   .     A
N733   C452    1.442   1_565 S
O737   Cu743   1.961   .     S
O737   C739    1.287   .     A
O738   C739    1.288   .     A
O738   Cu744   1.957   .     S
C739   C772    1.430   .     S
O740   Cu743   1.947   .     S
O740   C742    1.305   .     A
O741   Cu744   1.927   .     S
O741   C742    1.292   .     A
C742   C767    1.476   .     S
Cu743  Cu744   2.682   .     S
Cu743  O747    1.927   .     S
Cu743  O745    1.957   .     S
Cu743  N777    2.015   .     S
Cu744  N775    2.015   .     S
Cu744  O748    1.947   .     S
Cu744  O746    1.961   .     S
O745   C749    1.282   .     A
O746   C749    1.292   .     A
O747   C750    1.292   .     A
O748   C750    1.300   .     A
C749   C774    1.432   .     S
C750   C755    1.464   .     S
C751   C766    1.393   .     A
C751   H800    1.084   .     S
H752   C766    1.083   .     S
H753   C763    1.084   .     S
C755   C766    1.399   .     A
C755   C765    1.400   .     A
C756   H769    1.083   .     S
C756   C757    1.386   .     A
C756   C767    1.398   .     A
C757   C758    1.395   .     A
C758   C759    1.431   .     A
C758   Br368   1.930   1_556 S
C759   C760    1.423   .     A
C759   C347    1.427   1_556 S
C760   C767    1.422   .     A
C760   C764    1.415   .     A
C761   C765    1.394   .     A
C762   C763    1.389   .     A
C762   C347    1.419   1_556 S
C762   C337    1.405   1_556 S
C763   C764    1.386   .     A
C764   H771    1.081   .     S
C765   H768    1.076   .     S
H770   C803    1.083   .     S
C772   H497    1.088   1_565 S
C772   C498    1.339   1_565 S
N775   H822    1.029   .     S
N775   N823    1.287   .     S
H778   N823    1.029   .     S
N779   O781    1.302   .     A
N779   O780    1.301   .     A
N779   C498    1.442   1_565 S
O783   Cu789   1.961   .     S
O783   C785    1.287   .     A
O784   C785    1.288   .     A
O784   Cu790   1.957   .     S
C785   C818    1.430   .     S
O786   Cu789   1.947   .     S
O786   C788    1.305   .     A
O787   Cu790   1.927   .     S
O787   C788    1.292   .     A
C788   C813    1.476   .     S
Cu789  Cu790   2.682   .     S
Cu789  O793    1.927   .     S
Cu789  O791    1.957   .     S
Cu789  N823    2.015   .     S
Cu790  N821    2.015   .     S
Cu790  O794    1.947   .     S
Cu790  O792    1.961   .     S
O791   C795    1.282   .     A
O792   C795    1.292   .     A
O793   C796    1.292   .     A
O794   C796    1.300   .     A
C795   C820    1.432   .     S
C796   C801    1.464   .     S
C797   C812    1.393   .     A
C797   H708    1.084   1_655 S
H798   C812    1.083   .     S
H799   C809    1.084   .     S
C801   C812    1.399   .     A
C801   C811    1.400   .     A
C802   H815    1.083   .     S
C802   C803    1.386   .     A
C802   C813    1.398   .     A
C803   C804    1.395   .     A
C804   C805    1.431   .     A
C804   Br414   1.930   1_556 S
C805   C806    1.423   .     A
C805   C393    1.427   1_556 S
C806   C813    1.422   .     A
C806   C810    1.415   .     A
C807   C811    1.394   .     A
C808   C809    1.389   .     A
C808   C393    1.419   1_556 S
C808   C383    1.405   1_556 S
C809   C810    1.386   .     A
C810   H817    1.081   .     S
C811   H814    1.076   .     S
H816   C711    1.083   1_655 S
C818   H543    1.088   1_565 S
C818   C544    1.339   1_565 S
N821   H730    1.029   1_655 S
N821   N731    1.287   1_655 S
H824   N731    1.029   1_655 S
N825   O827    1.302   .     A
N825   O826    1.301   .     A
N825   C544    1.442   1_565 S
