data_str_m2_o2_o10_pcu_sym.21
_audit_creation_date              2020-01-03
_audit_creation_method            'Materials Studio'
_symmetry_space_group_name_H-M    'P1'
_symmetry_Int_Tables_number       1
_symmetry_cell_setting            triclinic
loop_
_symmetry_equiv_pos_as_xyz
  x,y,z
_cell_length_a                    26.5801
_cell_length_b                    30.2394
_cell_length_c                    27.8809
_cell_angle_alpha                 90.1366
_cell_angle_beta                  97.3410
_cell_angle_gamma                 92.7835
loop_
_atom_site_label
_atom_site_type_symbol
_atom_site_fract_x
_atom_site_fract_y
_atom_site_fract_z
_atom_site_U_iso_or_equiv
_atom_site_adp_type
_atom_site_occupancy
C1     C     0.16556   0.16505   0.24945   0.00000  Uiso   1.00
C2     C     0.18140   0.29012   0.44773   0.00000  Uiso   1.00
C3     C     0.16774   0.25314   0.02775   0.00000  Uiso   1.00
C4     C     0.16913   0.25245   0.47361   0.00000  Uiso   1.00
C5     C     0.06818   0.24983   0.23791   0.00000  Uiso   1.00
C6     C     0.26522   0.25062   0.26226   0.00000  Uiso   1.00
C7     C     0.01321   0.24568   0.23172   0.00000  Uiso   1.00
C8     C     0.32032   0.25400   0.26921   0.00000  Uiso   1.00
C9     C     0.11935   0.04792   0.26798   0.00000  Uiso   1.00
C10    C     0.14059   0.44963   0.19984   0.00000  Uiso   1.00
C11    C     0.12406   0.09396   0.26973   0.00000  Uiso   1.00
C12    C     0.16445   0.33511   0.24960   0.00000  Uiso   1.00
C13    C     0.14582   0.40402   0.20257   0.00000  Uiso   1.00
C14    C     0.16076   0.11685   0.24658   0.00000  Uiso   1.00
C15    C     0.15844   0.38344   0.24757   0.00000  Uiso   1.00
C16    C     0.18853   0.09398   0.21591   0.00000  Uiso   1.00
C17    C     0.16411   0.40952   0.28985   0.00000  Uiso   1.00
C18    C     0.18291   0.04803   0.21183   0.00000  Uiso   1.00
C19    C     0.16288   0.45544   0.28730   0.00000  Uiso   1.00
C20    C     0.14990   0.02448   0.23966   0.00000  Uiso   1.00
C21    C     0.15069   0.47585   0.24217   0.00000  Uiso   1.00
C22    C     0.32038   0.18713   0.18180   0.00000  Uiso   1.00
C23    C     0.20711   0.27358   0.05978   0.00000  Uiso   1.00
C24    C     0.29243   0.17390   0.13244   0.00000  Uiso   1.00
C25    C     0.01607   0.24176   0.34899   0.00000  Uiso   1.00
C26    C     0.04383   0.26366   0.39482   0.00000  Uiso   1.00
C27    C     0.04452   0.00883   0.27375   0.00000  Uiso   1.00
C28    C     0.01694   0.48018   0.30785   0.00000  Uiso   1.00
C29    C     0.07670   0.47273   0.14466   0.00000  Uiso   1.00
C30    C     0.06301   0.47994   0.09072   0.00000  Uiso   1.00
C31    C     0.25543   0.01504   0.19911   0.00000  Uiso   1.00
C32    C     0.27460   0.48030   0.16736   0.00000  Uiso   1.00
C33    C     0.22204   0.49343   0.33998   0.00000  Uiso   1.00
C34    C     0.15890   0.21301   0.44732   0.00000  Uiso   1.00
C35    C     0.23094   0.01731   0.38858   0.00000  Uiso   1.00
C36    C     0.24733   0.34120   0.13322   0.00000  Uiso   1.00
C37    C     0.30302   0.35567   0.13343   0.00000  Uiso   1.00
C38    C     0.09513   0.14971   0.38940   0.00000  Uiso   1.00
C39    C     0.11158   0.10339   0.40407   0.00000  Uiso   1.00
C40    C     0.10597   0.15650   0.11876   0.00000  Uiso   1.00
C41    C     0.07676   0.12982   0.07678   0.00000  Uiso   1.00
C42    C     0.25856   0.32397   0.38662   0.00000  Uiso   1.00
C43    C     0.28259   0.35737   0.35454   0.00000  Uiso   1.00
C44    C     0.20435   0.27435   0.11029   0.00000  Uiso   1.00
C45    C     0.15205   0.21271   0.39559   0.00000  Uiso   1.00
C46    C     0.12957   0.22729   0.09883   0.00000  Uiso   1.00
C47    C     0.18457   0.28727   0.39750   0.00000  Uiso   1.00
C48    C     0.12769   0.23132   0.04814   0.00000  Uiso   1.00
Cu49   Cu    0.16667   0.24999   0.29821   0.00000  Uiso   1.00
Cu50   Cu    0.16667   0.25000   0.20178   0.00000  Uiso   1.00
F51    F     0.09033   0.11650   0.29127   0.00000  Uiso   1.00
F52    F     0.13692   0.38009   0.16077   0.00000  Uiso   1.00
F53    F     0.22092   0.11616   0.18956   0.00000  Uiso   1.00
F54    F     0.17062   0.39115   0.33415   0.00000  Uiso   1.00
F55    F     0.24906   0.29145   0.04259   0.00000  Uiso   1.00
F56    F     0.15698   0.17473   0.47246   0.00000  Uiso   1.00
F57    F     0.08651   0.21416   0.01901   0.00000  Uiso   1.00
F58    F     0.19157   0.32974   0.47086   0.00000  Uiso   1.00
H59    H     0.29974   0.17130   0.21013   0.00000  Uiso   1.00
H60    H     0.07957   0.28059   0.38683   0.00000  Uiso   1.00
H61    H     0.05147   0.48736   0.24320   0.00000  Uiso   1.00
H62    H     0.02005   0.03603   0.26013   0.00000  Uiso   1.00
H63    H     0.00593   0.00092   0.33736   0.00000  Uiso   1.00
H64    H     0.31573   0.46358   0.28779   0.00000  Uiso   1.00
H65    H     0.04206   0.45428   0.32382   0.00000  Uiso   1.00
H66    H     0.06551   0.00208   0.16411   0.00000  Uiso   1.00
H67    H     0.05467   0.44253   0.15467   0.00000  Uiso   1.00
H68    H     0.07296   0.45078   0.07020   0.00000  Uiso   1.00
H69    H     0.02161   0.48445   0.08237   0.00000  Uiso   1.00
H70    H     0.02594   0.17457   0.18484   0.00000  Uiso   1.00
H71    H     0.08407   0.00990   0.07931   0.00000  Uiso   1.00
H72    H     0.28206   0.04470   0.20162   0.00000  Uiso   1.00
H73    H     0.25463   0.00048   0.23560   0.00000  Uiso   1.00
H74    H     0.27947   0.49440   0.13142   0.00000  Uiso   1.00
H75    H     0.31151   0.46895   0.18469   0.00000  Uiso   1.00
H76    H     0.24709   0.45130   0.16251   0.00000  Uiso   1.00
H77    H     0.23331   0.01688   0.31215   0.00000  Uiso   1.00
H78    H     0.24654   0.46452   0.34193   0.00000  Uiso   1.00
H79    H     0.22017   0.49488   0.41747   0.00000  Uiso   1.00
H80    H     0.27169   0.02796   0.39706   0.00000  Uiso   1.00
H81    H     0.31125   0.19051   0.10351   0.00000  Uiso   1.00
H82    H     0.20783   0.04700   0.38745   0.00000  Uiso   1.00
H83    H     0.23308   0.35859   0.16347   0.00000  Uiso   1.00
H84    H     0.22543   0.35254   0.09903   0.00000  Uiso   1.00
H85    H     0.31904   0.33845   0.10405   0.00000  Uiso   1.00
H86    H     0.30670   0.39194   0.12769   0.00000  Uiso   1.00
H87    H     0.32495   0.34761   0.16869   0.00000  Uiso   1.00
H88    H     0.06206   0.14564   0.36103   0.00000  Uiso   1.00
H89    H     0.07964   0.16604   0.41970   0.00000  Uiso   1.00
H90    H     0.14502   0.10486   0.43224   0.00000  Uiso   1.00
H91    H     0.07988   0.08453   0.41830   0.00000  Uiso   1.00
H92    H     0.29266   0.13748   0.12741   0.00000  Uiso   1.00
H93    H     0.12197   0.08523   0.37254   0.00000  Uiso   1.00
H94    H     0.09503   0.14188   0.15263   0.00000  Uiso   1.00
H95    H     0.14754   0.15192   0.11963   0.00000  Uiso   1.00
H96    H     0.09372   0.13627   0.04300   0.00000  Uiso   1.00
H97    H     0.07890   0.09393   0.08463   0.00000  Uiso   1.00
H98    H     0.03626   0.13819   0.07155   0.00000  Uiso   1.00
H99    H     0.27289   0.29103   0.37988   0.00000  Uiso   1.00
H100   H     0.27046   0.33376   0.42504   0.00000  Uiso   1.00
H101   H     0.27091   0.39111   0.36217   0.00000  Uiso   1.00
H102   H     0.32461   0.35703   0.36188   0.00000  Uiso   1.00
H103   H     0.25248   0.18385   0.12953   0.00000  Uiso   1.00
H104   H     0.27062   0.34902   0.31582   0.00000  Uiso   1.00
H105   H     0.03856   0.21422   0.33858   0.00000  Uiso   1.00
H106   H     0.31222   0.22756   0.35723   0.00000  Uiso   1.00
H107   H     0.02096   0.28892   0.40923   0.00000  Uiso   1.00
H108   H     0.05212   0.23858   0.42326   0.00000  Uiso   1.00
N109   N     0.16667   0.25001   0.12935   0.00000  Uiso   1.00
N110   N     0.16667   0.24999   0.37065   0.00000  Uiso   1.00
O111   O     0.16667   0.18572   0.29071   0.00000  Uiso   1.00
O112   O     0.01087   0.27357   0.31186   0.00000  Uiso   1.00
O113   O     0.09011   0.02653   0.29937   0.00000  Uiso   1.00
O114   O     0.12958   0.46841   0.15476   0.00000  Uiso   1.00
O115   O     0.20696   0.02662   0.17797   0.00000  Uiso   1.00
O116   O     0.17025   0.47985   0.32988   0.00000  Uiso   1.00
O117   O     0.24332   0.29499   0.14131   0.00000  Uiso   1.00
O118   O     0.13502   0.17408   0.36997   0.00000  Uiso   1.00
O119   O     0.09256   0.20141   0.11747   0.00000  Uiso   1.00
O120   O     0.20530   0.32319   0.37559   0.00000  Uiso   1.00
O121   O     0.16666   0.31427   0.20929   0.00000  Uiso   1.00
O122   O     0.16667   0.18573   0.20928   0.00000  Uiso   1.00
O123   O     0.16666   0.31427   0.29072   0.00000  Uiso   1.00
O124   O     0.09161   0.24999   0.28132   0.00000  Uiso   1.00
O125   O     0.24172   0.25000   0.21868   0.00000  Uiso   1.00
O126   O     0.09161   0.25000   0.19989   0.00000  Uiso   1.00
O127   O     0.24172   0.25000   0.30011   0.00000  Uiso   1.00
O128   O     0.32217   0.23367   0.18625   0.00000  Uiso   1.00
C129   C     0.49890   0.16505   0.24945   0.00000  Uiso   1.00
C130   C     0.51474   0.29012   0.44773   0.00000  Uiso   1.00
C131   C     0.50107   0.25314   0.02775   0.00000  Uiso   1.00
C132   C     0.50246   0.25245   0.47361   0.00000  Uiso   1.00
C133   C     0.40151   0.24983   0.23791   0.00000  Uiso   1.00
C134   C     0.59855   0.25062   0.26226   0.00000  Uiso   1.00
C135   C     0.34654   0.24568   0.23172   0.00000  Uiso   1.00
C136   C     0.65366   0.25400   0.26921   0.00000  Uiso   1.00
C137   C     0.45268   0.04792   0.26798   0.00000  Uiso   1.00
C138   C     0.47392   0.44963   0.19984   0.00000  Uiso   1.00
C139   C     0.45739   0.09396   0.26973   0.00000  Uiso   1.00
C140   C     0.49778   0.33511   0.24960   0.00000  Uiso   1.00
C141   C     0.47915   0.40402   0.20257   0.00000  Uiso   1.00
C142   C     0.49409   0.11685   0.24658   0.00000  Uiso   1.00
C143   C     0.49177   0.38344   0.24757   0.00000  Uiso   1.00
C144   C     0.52186   0.09398   0.21591   0.00000  Uiso   1.00
C145   C     0.49745   0.40952   0.28985   0.00000  Uiso   1.00
C146   C     0.51624   0.04803   0.21183   0.00000  Uiso   1.00
C147   C     0.49621   0.45544   0.28730   0.00000  Uiso   1.00
C148   C     0.48323   0.02448   0.23966   0.00000  Uiso   1.00
C149   C     0.48402   0.47585   0.24217   0.00000  Uiso   1.00
C150   C     0.65371   0.18713   0.18180   0.00000  Uiso   1.00
C151   C     0.54044   0.27358   0.05978   0.00000  Uiso   1.00
C152   C     0.62577   0.17390   0.13244   0.00000  Uiso   1.00
C153   C     0.34941   0.24176   0.34899   0.00000  Uiso   1.00
C154   C     0.37716   0.26366   0.39482   0.00000  Uiso   1.00
C155   C     0.37786   0.00883   0.27375   0.00000  Uiso   1.00
C156   C     0.35027   0.48018   0.30785   0.00000  Uiso   1.00
C157   C     0.41003   0.47273   0.14466   0.00000  Uiso   1.00
C158   C     0.39634   0.47994   0.09072   0.00000  Uiso   1.00
C159   C     0.58877   0.01504   0.19911   0.00000  Uiso   1.00
C160   C     0.60793   0.48030   0.16736   0.00000  Uiso   1.00
C161   C     0.55538   0.49343   0.33998   0.00000  Uiso   1.00
C162   C     0.49223   0.21301   0.44732   0.00000  Uiso   1.00
C163   C     0.56427   0.01731   0.38858   0.00000  Uiso   1.00
C164   C     0.58066   0.34120   0.13322   0.00000  Uiso   1.00
C165   C     0.63635   0.35567   0.13343   0.00000  Uiso   1.00
C166   C     0.42847   0.14971   0.38940   0.00000  Uiso   1.00
C167   C     0.44492   0.10339   0.40407   0.00000  Uiso   1.00
C168   C     0.43931   0.15650   0.11876   0.00000  Uiso   1.00
C169   C     0.41009   0.12982   0.07678   0.00000  Uiso   1.00
C170   C     0.59190   0.32397   0.38662   0.00000  Uiso   1.00
C171   C     0.61592   0.35737   0.35454   0.00000  Uiso   1.00
C172   C     0.53768   0.27435   0.11029   0.00000  Uiso   1.00
C173   C     0.48538   0.21271   0.39559   0.00000  Uiso   1.00
C174   C     0.46291   0.22729   0.09883   0.00000  Uiso   1.00
C175   C     0.51791   0.28727   0.39750   0.00000  Uiso   1.00
C176   C     0.46102   0.23132   0.04814   0.00000  Uiso   1.00
Cu177  Cu    0.50000   0.24999   0.29821   0.00000  Uiso   1.00
Cu178  Cu    0.50000   0.25000   0.20178   0.00000  Uiso   1.00
F179   F     0.42366   0.11650   0.29127   0.00000  Uiso   1.00
F180   F     0.47025   0.38009   0.16077   0.00000  Uiso   1.00
F181   F     0.55426   0.11616   0.18956   0.00000  Uiso   1.00
F182   F     0.50396   0.39115   0.33415   0.00000  Uiso   1.00
F183   F     0.58239   0.29145   0.04259   0.00000  Uiso   1.00
F184   F     0.49032   0.17473   0.47246   0.00000  Uiso   1.00
F185   F     0.41984   0.21416   0.01901   0.00000  Uiso   1.00
F186   F     0.52491   0.32974   0.47086   0.00000  Uiso   1.00
H187   H     0.63307   0.17130   0.21013   0.00000  Uiso   1.00
H188   H     0.41290   0.28059   0.38683   0.00000  Uiso   1.00
H189   H     0.38480   0.48736   0.24320   0.00000  Uiso   1.00
H190   H     0.35338   0.03603   0.26013   0.00000  Uiso   1.00
H191   H     0.33926   0.00092   0.33736   0.00000  Uiso   1.00
H192   H     0.64907   0.46358   0.28779   0.00000  Uiso   1.00
H193   H     0.37539   0.45428   0.32382   0.00000  Uiso   1.00
H194   H     0.39884   0.00208   0.16411   0.00000  Uiso   1.00
H195   H     0.38800   0.44253   0.15467   0.00000  Uiso   1.00
H196   H     0.40629   0.45078   0.07020   0.00000  Uiso   1.00
H197   H     0.35495   0.48445   0.08237   0.00000  Uiso   1.00
H198   H     0.35928   0.17457   0.18484   0.00000  Uiso   1.00
H199   H     0.41740   0.00990   0.07931   0.00000  Uiso   1.00
H200   H     0.61540   0.04470   0.20162   0.00000  Uiso   1.00
H201   H     0.58797   0.00048   0.23560   0.00000  Uiso   1.00
H202   H     0.61280   0.49440   0.13142   0.00000  Uiso   1.00
H203   H     0.64485   0.46895   0.18469   0.00000  Uiso   1.00
H204   H     0.58042   0.45130   0.16251   0.00000  Uiso   1.00
H205   H     0.56664   0.01688   0.31215   0.00000  Uiso   1.00
H206   H     0.57987   0.46452   0.34193   0.00000  Uiso   1.00
H207   H     0.55351   0.49488   0.41747   0.00000  Uiso   1.00
H208   H     0.60502   0.02796   0.39706   0.00000  Uiso   1.00
H209   H     0.64458   0.19051   0.10351   0.00000  Uiso   1.00
H210   H     0.54116   0.04700   0.38745   0.00000  Uiso   1.00
H211   H     0.56641   0.35859   0.16347   0.00000  Uiso   1.00
H212   H     0.55876   0.35254   0.09903   0.00000  Uiso   1.00
H213   H     0.65237   0.33845   0.10405   0.00000  Uiso   1.00
H214   H     0.64003   0.39194   0.12769   0.00000  Uiso   1.00
H215   H     0.65828   0.34761   0.16869   0.00000  Uiso   1.00
H216   H     0.39540   0.14564   0.36103   0.00000  Uiso   1.00
H217   H     0.41297   0.16604   0.41970   0.00000  Uiso   1.00
H218   H     0.47836   0.10486   0.43224   0.00000  Uiso   1.00
H219   H     0.41321   0.08453   0.41830   0.00000  Uiso   1.00
H220   H     0.62600   0.13748   0.12741   0.00000  Uiso   1.00
H221   H     0.45531   0.08523   0.37254   0.00000  Uiso   1.00
H222   H     0.42836   0.14188   0.15263   0.00000  Uiso   1.00
H223   H     0.48088   0.15192   0.11963   0.00000  Uiso   1.00
H224   H     0.42705   0.13627   0.04300   0.00000  Uiso   1.00
H225   H     0.41224   0.09393   0.08463   0.00000  Uiso   1.00
H226   H     0.36959   0.13819   0.07155   0.00000  Uiso   1.00
H227   H     0.60622   0.29103   0.37988   0.00000  Uiso   1.00
H228   H     0.60379   0.33376   0.42504   0.00000  Uiso   1.00
H229   H     0.60425   0.39111   0.36217   0.00000  Uiso   1.00
H230   H     0.65795   0.35703   0.36188   0.00000  Uiso   1.00
H231   H     0.58581   0.18385   0.12953   0.00000  Uiso   1.00
H232   H     0.60396   0.34902   0.31582   0.00000  Uiso   1.00
H233   H     0.37189   0.21422   0.33858   0.00000  Uiso   1.00
H234   H     0.64555   0.22756   0.35723   0.00000  Uiso   1.00
H235   H     0.35430   0.28892   0.40923   0.00000  Uiso   1.00
H236   H     0.38545   0.23858   0.42326   0.00000  Uiso   1.00
N237   N     0.50000   0.25001   0.12935   0.00000  Uiso   1.00
N238   N     0.50000   0.24999   0.37065   0.00000  Uiso   1.00
O239   O     0.50000   0.18572   0.29071   0.00000  Uiso   1.00
O240   O     0.34420   0.27357   0.31186   0.00000  Uiso   1.00
O241   O     0.42345   0.02653   0.29937   0.00000  Uiso   1.00
O242   O     0.46291   0.46841   0.15476   0.00000  Uiso   1.00
O243   O     0.54029   0.02662   0.17797   0.00000  Uiso   1.00
O244   O     0.50359   0.47985   0.32988   0.00000  Uiso   1.00
O245   O     0.57665   0.29499   0.14131   0.00000  Uiso   1.00
O246   O     0.46836   0.17408   0.36997   0.00000  Uiso   1.00
O247   O     0.42589   0.20141   0.11747   0.00000  Uiso   1.00
O248   O     0.53863   0.32319   0.37559   0.00000  Uiso   1.00
O249   O     0.50000   0.31427   0.20929   0.00000  Uiso   1.00
O250   O     0.50000   0.18573   0.20928   0.00000  Uiso   1.00
O251   O     0.50000   0.31427   0.29072   0.00000  Uiso   1.00
O252   O     0.42495   0.24999   0.28132   0.00000  Uiso   1.00
O253   O     0.57505   0.25000   0.21868   0.00000  Uiso   1.00
O254   O     0.42495   0.25000   0.19989   0.00000  Uiso   1.00
O255   O     0.57505   0.25000   0.30011   0.00000  Uiso   1.00
O256   O     0.65551   0.23367   0.18625   0.00000  Uiso   1.00
C257   C     0.83223   0.16505   0.24945   0.00000  Uiso   1.00
C258   C     0.84807   0.29012   0.44773   0.00000  Uiso   1.00
C259   C     0.83441   0.25314   0.02775   0.00000  Uiso   1.00
C260   C     0.83579   0.25245   0.47361   0.00000  Uiso   1.00
C261   C     0.73484   0.24983   0.23791   0.00000  Uiso   1.00
C262   C     0.93189   0.25062   0.26226   0.00000  Uiso   1.00
C263   C     0.67987   0.24568   0.23172   0.00000  Uiso   1.00
C264   C     0.98699   0.25400   0.26921   0.00000  Uiso   1.00
C265   C     0.78602   0.04792   0.26798   0.00000  Uiso   1.00
C266   C     0.80725   0.44963   0.19984   0.00000  Uiso   1.00
C267   C     0.79072   0.09396   0.26973   0.00000  Uiso   1.00
C268   C     0.83111   0.33511   0.24960   0.00000  Uiso   1.00
C269   C     0.81249   0.40402   0.20257   0.00000  Uiso   1.00
C270   C     0.82743   0.11685   0.24658   0.00000  Uiso   1.00
C271   C     0.82511   0.38344   0.24757   0.00000  Uiso   1.00
C272   C     0.85520   0.09398   0.21591   0.00000  Uiso   1.00
C273   C     0.83078   0.40952   0.28985   0.00000  Uiso   1.00
C274   C     0.84958   0.04803   0.21183   0.00000  Uiso   1.00
C275   C     0.82955   0.45544   0.28730   0.00000  Uiso   1.00
C276   C     0.81657   0.02448   0.23966   0.00000  Uiso   1.00
C277   C     0.81736   0.47585   0.24217   0.00000  Uiso   1.00
C278   C     0.98705   0.18713   0.18180   0.00000  Uiso   1.00
C279   C     0.87378   0.27358   0.05978   0.00000  Uiso   1.00
C280   C     0.95910   0.17390   0.13244   0.00000  Uiso   1.00
C281   C     0.68274   0.24176   0.34899   0.00000  Uiso   1.00
C282   C     0.71049   0.26366   0.39482   0.00000  Uiso   1.00
C283   C     0.71119   0.00883   0.27375   0.00000  Uiso   1.00
C284   C     0.68360   0.48018   0.30785   0.00000  Uiso   1.00
C285   C     0.74337   0.47273   0.14466   0.00000  Uiso   1.00
C286   C     0.72967   0.47994   0.09072   0.00000  Uiso   1.00
C287   C     0.92210   0.01504   0.19911   0.00000  Uiso   1.00
C288   C     0.94127   0.48030   0.16736   0.00000  Uiso   1.00
C289   C     0.88871   0.49343   0.33998   0.00000  Uiso   1.00
C290   C     0.82557   0.21301   0.44732   0.00000  Uiso   1.00
C291   C     0.89760   0.01731   0.38858   0.00000  Uiso   1.00
C292   C     0.91399   0.34120   0.13322   0.00000  Uiso   1.00
C293   C     0.96968   0.35567   0.13343   0.00000  Uiso   1.00
C294   C     0.76180   0.14971   0.38940   0.00000  Uiso   1.00
C295   C     0.77825   0.10339   0.40407   0.00000  Uiso   1.00
C296   C     0.77264   0.15650   0.11876   0.00000  Uiso   1.00
C297   C     0.74343   0.12982   0.07678   0.00000  Uiso   1.00
C298   C     0.92523   0.32397   0.38662   0.00000  Uiso   1.00
C299   C     0.94926   0.35737   0.35454   0.00000  Uiso   1.00
C300   C     0.87101   0.27435   0.11029   0.00000  Uiso   1.00
C301   C     0.81871   0.21271   0.39559   0.00000  Uiso   1.00
C302   C     0.79624   0.22729   0.09883   0.00000  Uiso   1.00
C303   C     0.85124   0.28727   0.39750   0.00000  Uiso   1.00
C304   C     0.79435   0.23132   0.04814   0.00000  Uiso   1.00
Cu305  Cu    0.83333   0.24999   0.29821   0.00000  Uiso   1.00
Cu306  Cu    0.83333   0.25000   0.20178   0.00000  Uiso   1.00
F307   F     0.75700   0.11650   0.29127   0.00000  Uiso   1.00
F308   F     0.80359   0.38009   0.16077   0.00000  Uiso   1.00
F309   F     0.88759   0.11616   0.18956   0.00000  Uiso   1.00
F310   F     0.83729   0.39115   0.33415   0.00000  Uiso   1.00
F311   F     0.91573   0.29145   0.04259   0.00000  Uiso   1.00
F312   F     0.82365   0.17473   0.47246   0.00000  Uiso   1.00
F313   F     0.75318   0.21416   0.01901   0.00000  Uiso   1.00
F314   F     0.85824   0.32974   0.47086   0.00000  Uiso   1.00
H315   H     0.96641   0.17130   0.21013   0.00000  Uiso   1.00
H316   H     0.74624   0.28059   0.38683   0.00000  Uiso   1.00
H317   H     0.71813   0.48736   0.24320   0.00000  Uiso   1.00
H318   H     0.68671   0.03603   0.26013   0.00000  Uiso   1.00
H319   H     0.67260   0.00092   0.33736   0.00000  Uiso   1.00
H320   H     0.98240   0.46358   0.28779   0.00000  Uiso   1.00
H321   H     0.70873   0.45428   0.32382   0.00000  Uiso   1.00
H322   H     0.73217   0.00208   0.16411   0.00000  Uiso   1.00
H323   H     0.72133   0.44253   0.15467   0.00000  Uiso   1.00
H324   H     0.73962   0.45078   0.07020   0.00000  Uiso   1.00
H325   H     0.68828   0.48445   0.08237   0.00000  Uiso   1.00
H326   H     0.69261   0.17457   0.18484   0.00000  Uiso   1.00
H327   H     0.75073   0.00990   0.07931   0.00000  Uiso   1.00
H328   H     0.94873   0.04470   0.20162   0.00000  Uiso   1.00
H329   H     0.92130   0.00048   0.23560   0.00000  Uiso   1.00
H330   H     0.94613   0.49440   0.13142   0.00000  Uiso   1.00
H331   H     0.97818   0.46895   0.18469   0.00000  Uiso   1.00
H332   H     0.91375   0.45130   0.16251   0.00000  Uiso   1.00
H333   H     0.89997   0.01688   0.31215   0.00000  Uiso   1.00
H334   H     0.91321   0.46452   0.34193   0.00000  Uiso   1.00
H335   H     0.88684   0.49488   0.41747   0.00000  Uiso   1.00
H336   H     0.93836   0.02796   0.39706   0.00000  Uiso   1.00
H337   H     0.97792   0.19051   0.10351   0.00000  Uiso   1.00
H338   H     0.87450   0.04700   0.38745   0.00000  Uiso   1.00
H339   H     0.89975   0.35859   0.16347   0.00000  Uiso   1.00
H340   H     0.89209   0.35254   0.09903   0.00000  Uiso   1.00
H341   H     0.98571   0.33845   0.10405   0.00000  Uiso   1.00
H342   H     0.97336   0.39194   0.12769   0.00000  Uiso   1.00
H343   H     0.99162   0.34761   0.16869   0.00000  Uiso   1.00
H344   H     0.72873   0.14564   0.36103   0.00000  Uiso   1.00
H345   H     0.74630   0.16604   0.41970   0.00000  Uiso   1.00
H346   H     0.81169   0.10486   0.43224   0.00000  Uiso   1.00
H347   H     0.74654   0.08453   0.41830   0.00000  Uiso   1.00
H348   H     0.95933   0.13748   0.12741   0.00000  Uiso   1.00
H349   H     0.78864   0.08523   0.37254   0.00000  Uiso   1.00
H350   H     0.76169   0.14188   0.15263   0.00000  Uiso   1.00
H351   H     0.81421   0.15192   0.11963   0.00000  Uiso   1.00
H352   H     0.76038   0.13627   0.04300   0.00000  Uiso   1.00
H353   H     0.74557   0.09393   0.08463   0.00000  Uiso   1.00
H354   H     0.70293   0.13819   0.07155   0.00000  Uiso   1.00
H355   H     0.93955   0.29103   0.37988   0.00000  Uiso   1.00
H356   H     0.93713   0.33376   0.42504   0.00000  Uiso   1.00
H357   H     0.93758   0.39111   0.36217   0.00000  Uiso   1.00
H358   H     0.99128   0.35703   0.36188   0.00000  Uiso   1.00
H359   H     0.91915   0.18385   0.12953   0.00000  Uiso   1.00
H360   H     0.93729   0.34902   0.31582   0.00000  Uiso   1.00
H361   H     0.70522   0.21422   0.33858   0.00000  Uiso   1.00
H362   H     0.97888   0.22756   0.35723   0.00000  Uiso   1.00
H363   H     0.68763   0.28892   0.40923   0.00000  Uiso   1.00
H364   H     0.71878   0.23858   0.42326   0.00000  Uiso   1.00
N365   N     0.83333   0.25001   0.12935   0.00000  Uiso   1.00
N366   N     0.83333   0.24999   0.37065   0.00000  Uiso   1.00
O367   O     0.83334   0.18572   0.29071   0.00000  Uiso   1.00
O368   O     0.67753   0.27357   0.31186   0.00000  Uiso   1.00
O369   O     0.75678   0.02653   0.29937   0.00000  Uiso   1.00
O370   O     0.79624   0.46841   0.15476   0.00000  Uiso   1.00
O371   O     0.87362   0.02662   0.17797   0.00000  Uiso   1.00
O372   O     0.83692   0.47985   0.32988   0.00000  Uiso   1.00
O373   O     0.90998   0.29499   0.14131   0.00000  Uiso   1.00
O374   O     0.80169   0.17408   0.36997   0.00000  Uiso   1.00
O375   O     0.75923   0.20141   0.11747   0.00000  Uiso   1.00
O376   O     0.87197   0.32319   0.37559   0.00000  Uiso   1.00
O377   O     0.83333   0.31427   0.20929   0.00000  Uiso   1.00
O378   O     0.83334   0.18573   0.20928   0.00000  Uiso   1.00
O379   O     0.83333   0.31427   0.29072   0.00000  Uiso   1.00
O380   O     0.75828   0.24999   0.28132   0.00000  Uiso   1.00
O381   O     0.90839   0.25000   0.21868   0.00000  Uiso   1.00
O382   O     0.75828   0.25000   0.19989   0.00000  Uiso   1.00
O383   O     0.90839   0.25000   0.30011   0.00000  Uiso   1.00
O384   O     0.98884   0.23367   0.18625   0.00000  Uiso   1.00
C385   C     0.16556   0.66505   0.24945   0.00000  Uiso   1.00
C386   C     0.18140   0.79012   0.44773   0.00000  Uiso   1.00
C387   C     0.16774   0.75314   0.02775   0.00000  Uiso   1.00
C388   C     0.16913   0.75245   0.47361   0.00000  Uiso   1.00
C389   C     0.06818   0.74983   0.23791   0.00000  Uiso   1.00
C390   C     0.26522   0.75062   0.26226   0.00000  Uiso   1.00
C391   C     0.01321   0.74568   0.23172   0.00000  Uiso   1.00
C392   C     0.32032   0.75400   0.26921   0.00000  Uiso   1.00
C393   C     0.11935   0.54792   0.26798   0.00000  Uiso   1.00
C394   C     0.14059   0.94963   0.19984   0.00000  Uiso   1.00
C395   C     0.12406   0.59396   0.26973   0.00000  Uiso   1.00
C396   C     0.16445   0.83511   0.24960   0.00000  Uiso   1.00
C397   C     0.14582   0.90402   0.20257   0.00000  Uiso   1.00
C398   C     0.16076   0.61685   0.24658   0.00000  Uiso   1.00
C399   C     0.15844   0.88344   0.24757   0.00000  Uiso   1.00
C400   C     0.18853   0.59398   0.21591   0.00000  Uiso   1.00
C401   C     0.16411   0.90952   0.28985   0.00000  Uiso   1.00
C402   C     0.18291   0.54803   0.21183   0.00000  Uiso   1.00
C403   C     0.16288   0.95544   0.28730   0.00000  Uiso   1.00
C404   C     0.14990   0.52448   0.23966   0.00000  Uiso   1.00
C405   C     0.15069   0.97585   0.24217   0.00000  Uiso   1.00
C406   C     0.32038   0.68713   0.18180   0.00000  Uiso   1.00
C407   C     0.20711   0.77358   0.05978   0.00000  Uiso   1.00
C408   C     0.29243   0.67390   0.13244   0.00000  Uiso   1.00
C409   C     0.01607   0.74176   0.34899   0.00000  Uiso   1.00
C410   C     0.04383   0.76366   0.39482   0.00000  Uiso   1.00
C411   C     0.04452   0.50883   0.27375   0.00000  Uiso   1.00
C412   C     0.01694   0.98018   0.30785   0.00000  Uiso   1.00
C413   C     0.07670   0.97273   0.14466   0.00000  Uiso   1.00
C414   C     0.06301   0.97994   0.09072   0.00000  Uiso   1.00
C415   C     0.25543   0.51504   0.19911   0.00000  Uiso   1.00
C416   C     0.27460   0.98030   0.16736   0.00000  Uiso   1.00
C417   C     0.22204   0.99343   0.33998   0.00000  Uiso   1.00
C418   C     0.15890   0.71301   0.44732   0.00000  Uiso   1.00
C419   C     0.23094   0.51731   0.38858   0.00000  Uiso   1.00
C420   C     0.24733   0.84120   0.13322   0.00000  Uiso   1.00
C421   C     0.30302   0.85567   0.13343   0.00000  Uiso   1.00
C422   C     0.09513   0.64971   0.38940   0.00000  Uiso   1.00
C423   C     0.11158   0.60339   0.40407   0.00000  Uiso   1.00
C424   C     0.10597   0.65650   0.11876   0.00000  Uiso   1.00
C425   C     0.07676   0.62982   0.07678   0.00000  Uiso   1.00
C426   C     0.25856   0.82397   0.38662   0.00000  Uiso   1.00
C427   C     0.28259   0.85737   0.35454   0.00000  Uiso   1.00
C428   C     0.20435   0.77435   0.11029   0.00000  Uiso   1.00
C429   C     0.15205   0.71271   0.39559   0.00000  Uiso   1.00
C430   C     0.12957   0.72729   0.09883   0.00000  Uiso   1.00
C431   C     0.18457   0.78727   0.39750   0.00000  Uiso   1.00
C432   C     0.12769   0.73132   0.04814   0.00000  Uiso   1.00
Cu433  Cu    0.16667   0.74999   0.29821   0.00000  Uiso   1.00
Cu434  Cu    0.16667   0.75000   0.20178   0.00000  Uiso   1.00
F435   F     0.09033   0.61650   0.29127   0.00000  Uiso   1.00
F436   F     0.13692   0.88009   0.16077   0.00000  Uiso   1.00
F437   F     0.22092   0.61616   0.18956   0.00000  Uiso   1.00
F438   F     0.17062   0.89115   0.33415   0.00000  Uiso   1.00
F439   F     0.24906   0.79145   0.04259   0.00000  Uiso   1.00
F440   F     0.15698   0.67473   0.47246   0.00000  Uiso   1.00
F441   F     0.08651   0.71416   0.01901   0.00000  Uiso   1.00
F442   F     0.19157   0.82974   0.47086   0.00000  Uiso   1.00
H443   H     0.29974   0.67130   0.21013   0.00000  Uiso   1.00
H444   H     0.07957   0.78059   0.38683   0.00000  Uiso   1.00
H445   H     0.05147   0.98736   0.24320   0.00000  Uiso   1.00
H446   H     0.02005   0.53603   0.26013   0.00000  Uiso   1.00
H447   H     0.00593   0.50092   0.33736   0.00000  Uiso   1.00
H448   H     0.31573   0.96358   0.28779   0.00000  Uiso   1.00
H449   H     0.04206   0.95428   0.32382   0.00000  Uiso   1.00
H450   H     0.06551   0.50208   0.16411   0.00000  Uiso   1.00
H451   H     0.05467   0.94253   0.15467   0.00000  Uiso   1.00
H452   H     0.07296   0.95078   0.07020   0.00000  Uiso   1.00
H453   H     0.02161   0.98445   0.08237   0.00000  Uiso   1.00
H454   H     0.02594   0.67457   0.18484   0.00000  Uiso   1.00
H455   H     0.08407   0.50990   0.07931   0.00000  Uiso   1.00
H456   H     0.28206   0.54470   0.20162   0.00000  Uiso   1.00
H457   H     0.25463   0.50048   0.23560   0.00000  Uiso   1.00
H458   H     0.27947   0.99440   0.13142   0.00000  Uiso   1.00
H459   H     0.31151   0.96895   0.18469   0.00000  Uiso   1.00
H460   H     0.24709   0.95130   0.16251   0.00000  Uiso   1.00
H461   H     0.23331   0.51688   0.31215   0.00000  Uiso   1.00
H462   H     0.24654   0.96452   0.34193   0.00000  Uiso   1.00
H463   H     0.22017   0.99488   0.41747   0.00000  Uiso   1.00
H464   H     0.27169   0.52796   0.39706   0.00000  Uiso   1.00
H465   H     0.31125   0.69051   0.10351   0.00000  Uiso   1.00
H466   H     0.20783   0.54700   0.38745   0.00000  Uiso   1.00
H467   H     0.23308   0.85859   0.16347   0.00000  Uiso   1.00
H468   H     0.22543   0.85254   0.09903   0.00000  Uiso   1.00
H469   H     0.31904   0.83845   0.10405   0.00000  Uiso   1.00
H470   H     0.30670   0.89194   0.12769   0.00000  Uiso   1.00
H471   H     0.32495   0.84761   0.16869   0.00000  Uiso   1.00
H472   H     0.06206   0.64564   0.36103   0.00000  Uiso   1.00
H473   H     0.07964   0.66604   0.41970   0.00000  Uiso   1.00
H474   H     0.14502   0.60486   0.43224   0.00000  Uiso   1.00
H475   H     0.07988   0.58453   0.41830   0.00000  Uiso   1.00
H476   H     0.29266   0.63748   0.12741   0.00000  Uiso   1.00
H477   H     0.12197   0.58523   0.37254   0.00000  Uiso   1.00
H478   H     0.09503   0.64188   0.15263   0.00000  Uiso   1.00
H479   H     0.14754   0.65192   0.11963   0.00000  Uiso   1.00
H480   H     0.09372   0.63627   0.04300   0.00000  Uiso   1.00
H481   H     0.07890   0.59393   0.08463   0.00000  Uiso   1.00
H482   H     0.03626   0.63819   0.07155   0.00000  Uiso   1.00
H483   H     0.27289   0.79103   0.37988   0.00000  Uiso   1.00
H484   H     0.27046   0.83376   0.42504   0.00000  Uiso   1.00
H485   H     0.27091   0.89111   0.36217   0.00000  Uiso   1.00
H486   H     0.32461   0.85703   0.36188   0.00000  Uiso   1.00
H487   H     0.25248   0.68385   0.12953   0.00000  Uiso   1.00
H488   H     0.27062   0.84902   0.31582   0.00000  Uiso   1.00
H489   H     0.03856   0.71422   0.33858   0.00000  Uiso   1.00
H490   H     0.31222   0.72756   0.35723   0.00000  Uiso   1.00
H491   H     0.02096   0.78892   0.40923   0.00000  Uiso   1.00
H492   H     0.05212   0.73858   0.42326   0.00000  Uiso   1.00
N493   N     0.16667   0.75001   0.12935   0.00000  Uiso   1.00
N494   N     0.16667   0.74999   0.37065   0.00000  Uiso   1.00
O495   O     0.16667   0.68572   0.29071   0.00000  Uiso   1.00
O496   O     0.01087   0.77357   0.31186   0.00000  Uiso   1.00
O497   O     0.09011   0.52653   0.29937   0.00000  Uiso   1.00
O498   O     0.12958   0.96841   0.15476   0.00000  Uiso   1.00
O499   O     0.20696   0.52662   0.17797   0.00000  Uiso   1.00
O500   O     0.17025   0.97985   0.32988   0.00000  Uiso   1.00
O501   O     0.24332   0.79499   0.14131   0.00000  Uiso   1.00
O502   O     0.13502   0.67408   0.36997   0.00000  Uiso   1.00
O503   O     0.09256   0.70141   0.11747   0.00000  Uiso   1.00
O504   O     0.20530   0.82319   0.37559   0.00000  Uiso   1.00
O505   O     0.16666   0.81427   0.20929   0.00000  Uiso   1.00
O506   O     0.16667   0.68573   0.20928   0.00000  Uiso   1.00
O507   O     0.16666   0.81427   0.29072   0.00000  Uiso   1.00
O508   O     0.09161   0.74999   0.28132   0.00000  Uiso   1.00
O509   O     0.24172   0.75000   0.21868   0.00000  Uiso   1.00
O510   O     0.09161   0.75000   0.19989   0.00000  Uiso   1.00
O511   O     0.24172   0.75000   0.30011   0.00000  Uiso   1.00
O512   O     0.32217   0.73367   0.18625   0.00000  Uiso   1.00
C513   C     0.49890   0.66505   0.24945   0.00000  Uiso   1.00
C514   C     0.51474   0.79012   0.44773   0.00000  Uiso   1.00
C515   C     0.50107   0.75314   0.02775   0.00000  Uiso   1.00
C516   C     0.50246   0.75245   0.47361   0.00000  Uiso   1.00
C517   C     0.40151   0.74983   0.23791   0.00000  Uiso   1.00
C518   C     0.59855   0.75062   0.26226   0.00000  Uiso   1.00
C519   C     0.34654   0.74568   0.23172   0.00000  Uiso   1.00
C520   C     0.65366   0.75400   0.26921   0.00000  Uiso   1.00
C521   C     0.45268   0.54792   0.26798   0.00000  Uiso   1.00
C522   C     0.47392   0.94963   0.19984   0.00000  Uiso   1.00
C523   C     0.45739   0.59396   0.26973   0.00000  Uiso   1.00
C524   C     0.49778   0.83511   0.24960   0.00000  Uiso   1.00
C525   C     0.47915   0.90402   0.20257   0.00000  Uiso   1.00
C526   C     0.49409   0.61685   0.24658   0.00000  Uiso   1.00
C527   C     0.49177   0.88344   0.24757   0.00000  Uiso   1.00
C528   C     0.52186   0.59398   0.21591   0.00000  Uiso   1.00
C529   C     0.49745   0.90952   0.28985   0.00000  Uiso   1.00
C530   C     0.51624   0.54803   0.21183   0.00000  Uiso   1.00
C531   C     0.49621   0.95544   0.28730   0.00000  Uiso   1.00
C532   C     0.48323   0.52448   0.23966   0.00000  Uiso   1.00
C533   C     0.48402   0.97585   0.24217   0.00000  Uiso   1.00
C534   C     0.65371   0.68713   0.18180   0.00000  Uiso   1.00
C535   C     0.54044   0.77358   0.05978   0.00000  Uiso   1.00
C536   C     0.62577   0.67390   0.13244   0.00000  Uiso   1.00
C537   C     0.34941   0.74176   0.34899   0.00000  Uiso   1.00
C538   C     0.37716   0.76366   0.39482   0.00000  Uiso   1.00
C539   C     0.37786   0.50883   0.27375   0.00000  Uiso   1.00
C540   C     0.35027   0.98018   0.30785   0.00000  Uiso   1.00
C541   C     0.41003   0.97273   0.14466   0.00000  Uiso   1.00
C542   C     0.39634   0.97994   0.09072   0.00000  Uiso   1.00
C543   C     0.58877   0.51504   0.19911   0.00000  Uiso   1.00
C544   C     0.60793   0.98030   0.16736   0.00000  Uiso   1.00
C545   C     0.55538   0.99343   0.33998   0.00000  Uiso   1.00
C546   C     0.49223   0.71301   0.44732   0.00000  Uiso   1.00
C547   C     0.56427   0.51731   0.38858   0.00000  Uiso   1.00
C548   C     0.58066   0.84120   0.13322   0.00000  Uiso   1.00
C549   C     0.63635   0.85567   0.13343   0.00000  Uiso   1.00
C550   C     0.42847   0.64971   0.38940   0.00000  Uiso   1.00
C551   C     0.44492   0.60339   0.40407   0.00000  Uiso   1.00
C552   C     0.43931   0.65650   0.11876   0.00000  Uiso   1.00
C553   C     0.41009   0.62982   0.07678   0.00000  Uiso   1.00
C554   C     0.59190   0.82397   0.38662   0.00000  Uiso   1.00
C555   C     0.61592   0.85737   0.35454   0.00000  Uiso   1.00
C556   C     0.53768   0.77435   0.11029   0.00000  Uiso   1.00
C557   C     0.48538   0.71271   0.39559   0.00000  Uiso   1.00
C558   C     0.46291   0.72729   0.09883   0.00000  Uiso   1.00
C559   C     0.51791   0.78727   0.39750   0.00000  Uiso   1.00
C560   C     0.46102   0.73132   0.04814   0.00000  Uiso   1.00
Cu561  Cu    0.50000   0.74999   0.29821   0.00000  Uiso   1.00
Cu562  Cu    0.50000   0.75000   0.20178   0.00000  Uiso   1.00
F563   F     0.42366   0.61650   0.29127   0.00000  Uiso   1.00
F564   F     0.47025   0.88009   0.16077   0.00000  Uiso   1.00
F565   F     0.55426   0.61616   0.18956   0.00000  Uiso   1.00
F566   F     0.50396   0.89115   0.33415   0.00000  Uiso   1.00
F567   F     0.58239   0.79145   0.04259   0.00000  Uiso   1.00
F568   F     0.49032   0.67473   0.47246   0.00000  Uiso   1.00
F569   F     0.41984   0.71416   0.01901   0.00000  Uiso   1.00
F570   F     0.52491   0.82974   0.47086   0.00000  Uiso   1.00
H571   H     0.63307   0.67130   0.21013   0.00000  Uiso   1.00
H572   H     0.41290   0.78059   0.38683   0.00000  Uiso   1.00
H573   H     0.38480   0.98736   0.24320   0.00000  Uiso   1.00
H574   H     0.35338   0.53603   0.26013   0.00000  Uiso   1.00
H575   H     0.33926   0.50092   0.33736   0.00000  Uiso   1.00
H576   H     0.64907   0.96358   0.28779   0.00000  Uiso   1.00
H577   H     0.37539   0.95428   0.32382   0.00000  Uiso   1.00
H578   H     0.39884   0.50208   0.16411   0.00000  Uiso   1.00
H579   H     0.38800   0.94253   0.15467   0.00000  Uiso   1.00
H580   H     0.40629   0.95078   0.07020   0.00000  Uiso   1.00
H581   H     0.35495   0.98445   0.08237   0.00000  Uiso   1.00
H582   H     0.35928   0.67457   0.18484   0.00000  Uiso   1.00
H583   H     0.41740   0.50990   0.07931   0.00000  Uiso   1.00
H584   H     0.61540   0.54470   0.20162   0.00000  Uiso   1.00
H585   H     0.58797   0.50048   0.23560   0.00000  Uiso   1.00
H586   H     0.61280   0.99440   0.13142   0.00000  Uiso   1.00
H587   H     0.64485   0.96895   0.18469   0.00000  Uiso   1.00
H588   H     0.58042   0.95130   0.16251   0.00000  Uiso   1.00
H589   H     0.56664   0.51688   0.31215   0.00000  Uiso   1.00
H590   H     0.57987   0.96452   0.34193   0.00000  Uiso   1.00
H591   H     0.55351   0.99488   0.41747   0.00000  Uiso   1.00
H592   H     0.60502   0.52796   0.39706   0.00000  Uiso   1.00
H593   H     0.64458   0.69051   0.10351   0.00000  Uiso   1.00
H594   H     0.54116   0.54700   0.38745   0.00000  Uiso   1.00
H595   H     0.56641   0.85859   0.16347   0.00000  Uiso   1.00
H596   H     0.55876   0.85254   0.09903   0.00000  Uiso   1.00
H597   H     0.65237   0.83845   0.10405   0.00000  Uiso   1.00
H598   H     0.64003   0.89194   0.12769   0.00000  Uiso   1.00
H599   H     0.65828   0.84761   0.16869   0.00000  Uiso   1.00
H600   H     0.39540   0.64564   0.36103   0.00000  Uiso   1.00
H601   H     0.41297   0.66604   0.41970   0.00000  Uiso   1.00
H602   H     0.47836   0.60486   0.43224   0.00000  Uiso   1.00
H603   H     0.41321   0.58453   0.41830   0.00000  Uiso   1.00
H604   H     0.62600   0.63748   0.12741   0.00000  Uiso   1.00
H605   H     0.45531   0.58523   0.37254   0.00000  Uiso   1.00
H606   H     0.42836   0.64188   0.15263   0.00000  Uiso   1.00
H607   H     0.48088   0.65192   0.11963   0.00000  Uiso   1.00
H608   H     0.42705   0.63627   0.04300   0.00000  Uiso   1.00
H609   H     0.41224   0.59393   0.08463   0.00000  Uiso   1.00
H610   H     0.36959   0.63819   0.07155   0.00000  Uiso   1.00
H611   H     0.60622   0.79103   0.37988   0.00000  Uiso   1.00
H612   H     0.60379   0.83376   0.42504   0.00000  Uiso   1.00
H613   H     0.60425   0.89111   0.36217   0.00000  Uiso   1.00
H614   H     0.65795   0.85703   0.36188   0.00000  Uiso   1.00
H615   H     0.58581   0.68385   0.12953   0.00000  Uiso   1.00
H616   H     0.60396   0.84902   0.31582   0.00000  Uiso   1.00
H617   H     0.37189   0.71422   0.33858   0.00000  Uiso   1.00
H618   H     0.64555   0.72756   0.35723   0.00000  Uiso   1.00
H619   H     0.35430   0.78892   0.40923   0.00000  Uiso   1.00
H620   H     0.38545   0.73858   0.42326   0.00000  Uiso   1.00
N621   N     0.50000   0.75001   0.12935   0.00000  Uiso   1.00
N622   N     0.50000   0.74999   0.37065   0.00000  Uiso   1.00
O623   O     0.50000   0.68572   0.29071   0.00000  Uiso   1.00
O624   O     0.34420   0.77357   0.31186   0.00000  Uiso   1.00
O625   O     0.42345   0.52653   0.29937   0.00000  Uiso   1.00
O626   O     0.46291   0.96841   0.15476   0.00000  Uiso   1.00
O627   O     0.54029   0.52662   0.17797   0.00000  Uiso   1.00
O628   O     0.50359   0.97985   0.32988   0.00000  Uiso   1.00
O629   O     0.57665   0.79499   0.14131   0.00000  Uiso   1.00
O630   O     0.46836   0.67408   0.36997   0.00000  Uiso   1.00
O631   O     0.42589   0.70141   0.11747   0.00000  Uiso   1.00
O632   O     0.53863   0.82319   0.37559   0.00000  Uiso   1.00
O633   O     0.50000   0.81427   0.20929   0.00000  Uiso   1.00
O634   O     0.50000   0.68573   0.20928   0.00000  Uiso   1.00
O635   O     0.50000   0.81427   0.29072   0.00000  Uiso   1.00
O636   O     0.42495   0.74999   0.28132   0.00000  Uiso   1.00
O637   O     0.57505   0.75000   0.21868   0.00000  Uiso   1.00
O638   O     0.42495   0.75000   0.19989   0.00000  Uiso   1.00
O639   O     0.57505   0.75000   0.30011   0.00000  Uiso   1.00
O640   O     0.65551   0.73367   0.18625   0.00000  Uiso   1.00
C641   C     0.83223   0.66505   0.24945   0.00000  Uiso   1.00
C642   C     0.84807   0.79012   0.44773   0.00000  Uiso   1.00
C643   C     0.83441   0.75314   0.02775   0.00000  Uiso   1.00
C644   C     0.83579   0.75245   0.47361   0.00000  Uiso   1.00
C645   C     0.73484   0.74983   0.23791   0.00000  Uiso   1.00
C646   C     0.93189   0.75062   0.26226   0.00000  Uiso   1.00
C647   C     0.67987   0.74568   0.23172   0.00000  Uiso   1.00
C648   C     0.98699   0.75400   0.26921   0.00000  Uiso   1.00
C649   C     0.78602   0.54792   0.26798   0.00000  Uiso   1.00
C650   C     0.80725   0.94963   0.19984   0.00000  Uiso   1.00
C651   C     0.79072   0.59396   0.26973   0.00000  Uiso   1.00
C652   C     0.83111   0.83511   0.24960   0.00000  Uiso   1.00
C653   C     0.81249   0.90402   0.20257   0.00000  Uiso   1.00
C654   C     0.82743   0.61685   0.24658   0.00000  Uiso   1.00
C655   C     0.82511   0.88344   0.24757   0.00000  Uiso   1.00
C656   C     0.85520   0.59398   0.21591   0.00000  Uiso   1.00
C657   C     0.83078   0.90952   0.28985   0.00000  Uiso   1.00
C658   C     0.84958   0.54803   0.21183   0.00000  Uiso   1.00
C659   C     0.82955   0.95544   0.28730   0.00000  Uiso   1.00
C660   C     0.81657   0.52448   0.23966   0.00000  Uiso   1.00
C661   C     0.81736   0.97585   0.24217   0.00000  Uiso   1.00
C662   C     0.98705   0.68713   0.18180   0.00000  Uiso   1.00
C663   C     0.87378   0.77358   0.05978   0.00000  Uiso   1.00
C664   C     0.95910   0.67390   0.13244   0.00000  Uiso   1.00
C665   C     0.68274   0.74176   0.34899   0.00000  Uiso   1.00
C666   C     0.71049   0.76366   0.39482   0.00000  Uiso   1.00
C667   C     0.71119   0.50883   0.27375   0.00000  Uiso   1.00
C668   C     0.68360   0.98018   0.30785   0.00000  Uiso   1.00
C669   C     0.74337   0.97273   0.14466   0.00000  Uiso   1.00
C670   C     0.72967   0.97994   0.09072   0.00000  Uiso   1.00
C671   C     0.92210   0.51504   0.19911   0.00000  Uiso   1.00
C672   C     0.94127   0.98030   0.16736   0.00000  Uiso   1.00
C673   C     0.88871   0.99343   0.33998   0.00000  Uiso   1.00
C674   C     0.82557   0.71301   0.44732   0.00000  Uiso   1.00
C675   C     0.89760   0.51731   0.38858   0.00000  Uiso   1.00
C676   C     0.91399   0.84120   0.13322   0.00000  Uiso   1.00
C677   C     0.96968   0.85567   0.13343   0.00000  Uiso   1.00
C678   C     0.76180   0.64971   0.38940   0.00000  Uiso   1.00
C679   C     0.77825   0.60339   0.40407   0.00000  Uiso   1.00
C680   C     0.77264   0.65650   0.11876   0.00000  Uiso   1.00
C681   C     0.74343   0.62982   0.07678   0.00000  Uiso   1.00
C682   C     0.92523   0.82397   0.38662   0.00000  Uiso   1.00
C683   C     0.94926   0.85737   0.35454   0.00000  Uiso   1.00
C684   C     0.87101   0.77435   0.11029   0.00000  Uiso   1.00
C685   C     0.81871   0.71271   0.39559   0.00000  Uiso   1.00
C686   C     0.79624   0.72729   0.09883   0.00000  Uiso   1.00
C687   C     0.85124   0.78727   0.39750   0.00000  Uiso   1.00
C688   C     0.79435   0.73132   0.04814   0.00000  Uiso   1.00
Cu689  Cu    0.83333   0.74999   0.29821   0.00000  Uiso   1.00
Cu690  Cu    0.83333   0.75000   0.20178   0.00000  Uiso   1.00
F691   F     0.75700   0.61650   0.29127   0.00000  Uiso   1.00
F692   F     0.80359   0.88009   0.16077   0.00000  Uiso   1.00
F693   F     0.88759   0.61616   0.18956   0.00000  Uiso   1.00
F694   F     0.83729   0.89115   0.33415   0.00000  Uiso   1.00
F695   F     0.91573   0.79145   0.04259   0.00000  Uiso   1.00
F696   F     0.82365   0.67473   0.47246   0.00000  Uiso   1.00
F697   F     0.75318   0.71416   0.01901   0.00000  Uiso   1.00
F698   F     0.85824   0.82974   0.47086   0.00000  Uiso   1.00
H699   H     0.96641   0.67130   0.21013   0.00000  Uiso   1.00
H700   H     0.74624   0.78059   0.38683   0.00000  Uiso   1.00
H701   H     0.71813   0.98736   0.24320   0.00000  Uiso   1.00
H702   H     0.68671   0.53603   0.26013   0.00000  Uiso   1.00
H703   H     0.67260   0.50092   0.33736   0.00000  Uiso   1.00
H704   H     0.98240   0.96358   0.28779   0.00000  Uiso   1.00
H705   H     0.70873   0.95428   0.32382   0.00000  Uiso   1.00
H706   H     0.73217   0.50208   0.16411   0.00000  Uiso   1.00
H707   H     0.72133   0.94253   0.15467   0.00000  Uiso   1.00
H708   H     0.73962   0.95078   0.07020   0.00000  Uiso   1.00
H709   H     0.68828   0.98445   0.08237   0.00000  Uiso   1.00
H710   H     0.69261   0.67457   0.18484   0.00000  Uiso   1.00
H711   H     0.75073   0.50990   0.07931   0.00000  Uiso   1.00
H712   H     0.94873   0.54470   0.20162   0.00000  Uiso   1.00
H713   H     0.92130   0.50048   0.23560   0.00000  Uiso   1.00
H714   H     0.94613   0.99440   0.13142   0.00000  Uiso   1.00
H715   H     0.97818   0.96895   0.18469   0.00000  Uiso   1.00
H716   H     0.91375   0.95130   0.16251   0.00000  Uiso   1.00
H717   H     0.89997   0.51688   0.31215   0.00000  Uiso   1.00
H718   H     0.91321   0.96452   0.34193   0.00000  Uiso   1.00
H719   H     0.88684   0.99488   0.41747   0.00000  Uiso   1.00
H720   H     0.93836   0.52796   0.39706   0.00000  Uiso   1.00
H721   H     0.97792   0.69051   0.10351   0.00000  Uiso   1.00
H722   H     0.87450   0.54700   0.38745   0.00000  Uiso   1.00
H723   H     0.89975   0.85859   0.16347   0.00000  Uiso   1.00
H724   H     0.89209   0.85254   0.09903   0.00000  Uiso   1.00
H725   H     0.98571   0.83845   0.10405   0.00000  Uiso   1.00
H726   H     0.97336   0.89194   0.12769   0.00000  Uiso   1.00
H727   H     0.99162   0.84761   0.16869   0.00000  Uiso   1.00
H728   H     0.72873   0.64564   0.36103   0.00000  Uiso   1.00
H729   H     0.74630   0.66604   0.41970   0.00000  Uiso   1.00
H730   H     0.81169   0.60486   0.43224   0.00000  Uiso   1.00
H731   H     0.74654   0.58453   0.41830   0.00000  Uiso   1.00
H732   H     0.95933   0.63748   0.12741   0.00000  Uiso   1.00
H733   H     0.78864   0.58523   0.37254   0.00000  Uiso   1.00
H734   H     0.76169   0.64188   0.15263   0.00000  Uiso   1.00
H735   H     0.81421   0.65192   0.11963   0.00000  Uiso   1.00
H736   H     0.76038   0.63627   0.04300   0.00000  Uiso   1.00
H737   H     0.74557   0.59393   0.08463   0.00000  Uiso   1.00
H738   H     0.70293   0.63819   0.07155   0.00000  Uiso   1.00
H739   H     0.93955   0.79103   0.37988   0.00000  Uiso   1.00
H740   H     0.93713   0.83376   0.42504   0.00000  Uiso   1.00
H741   H     0.93758   0.89111   0.36217   0.00000  Uiso   1.00
H742   H     0.99128   0.85703   0.36188   0.00000  Uiso   1.00
H743   H     0.91915   0.68385   0.12953   0.00000  Uiso   1.00
H744   H     0.93729   0.84902   0.31582   0.00000  Uiso   1.00
H745   H     0.70522   0.71422   0.33858   0.00000  Uiso   1.00
H746   H     0.97888   0.72756   0.35723   0.00000  Uiso   1.00
H747   H     0.68763   0.78892   0.40923   0.00000  Uiso   1.00
H748   H     0.71878   0.73858   0.42326   0.00000  Uiso   1.00
N749   N     0.83333   0.75001   0.12935   0.00000  Uiso   1.00
N750   N     0.83333   0.74999   0.37065   0.00000  Uiso   1.00
O751   O     0.83334   0.68572   0.29071   0.00000  Uiso   1.00
O752   O     0.67753   0.77357   0.31186   0.00000  Uiso   1.00
O753   O     0.75678   0.52653   0.29937   0.00000  Uiso   1.00
O754   O     0.79624   0.96841   0.15476   0.00000  Uiso   1.00
O755   O     0.87362   0.52662   0.17797   0.00000  Uiso   1.00
O756   O     0.83692   0.97985   0.32988   0.00000  Uiso   1.00
O757   O     0.90998   0.79499   0.14131   0.00000  Uiso   1.00
O758   O     0.80169   0.67408   0.36997   0.00000  Uiso   1.00
O759   O     0.75923   0.70141   0.11747   0.00000  Uiso   1.00
O760   O     0.87197   0.82319   0.37559   0.00000  Uiso   1.00
O761   O     0.83333   0.81427   0.20929   0.00000  Uiso   1.00
O762   O     0.83334   0.68573   0.20928   0.00000  Uiso   1.00
O763   O     0.83333   0.81427   0.29072   0.00000  Uiso   1.00
O764   O     0.75828   0.74999   0.28132   0.00000  Uiso   1.00
O765   O     0.90839   0.75000   0.21868   0.00000  Uiso   1.00
O766   O     0.75828   0.75000   0.19989   0.00000  Uiso   1.00
O767   O     0.90839   0.75000   0.30011   0.00000  Uiso   1.00
O768   O     0.98884   0.73367   0.18625   0.00000  Uiso   1.00
C769   C     0.16556   0.16505   0.74945   0.00000  Uiso   1.00
C770   C     0.18140   0.29012   0.94773   0.00000  Uiso   1.00
C771   C     0.16774   0.25314   0.52775   0.00000  Uiso   1.00
C772   C     0.16913   0.25245   0.97361   0.00000  Uiso   1.00
C773   C     0.06818   0.24983   0.73791   0.00000  Uiso   1.00
C774   C     0.26522   0.25062   0.76226   0.00000  Uiso   1.00
C775   C     0.01321   0.24568   0.73172   0.00000  Uiso   1.00
C776   C     0.32032   0.25400   0.76921   0.00000  Uiso   1.00
C777   C     0.11935   0.04792   0.76798   0.00000  Uiso   1.00
C778   C     0.14059   0.44963   0.69984   0.00000  Uiso   1.00
C779   C     0.12406   0.09396   0.76973   0.00000  Uiso   1.00
C780   C     0.16445   0.33511   0.74960   0.00000  Uiso   1.00
C781   C     0.14582   0.40402   0.70257   0.00000  Uiso   1.00
C782   C     0.16076   0.11685   0.74658   0.00000  Uiso   1.00
C783   C     0.15844   0.38344   0.74757   0.00000  Uiso   1.00
C784   C     0.18853   0.09398   0.71591   0.00000  Uiso   1.00
C785   C     0.16411   0.40952   0.78985   0.00000  Uiso   1.00
C786   C     0.18291   0.04803   0.71183   0.00000  Uiso   1.00
C787   C     0.16288   0.45544   0.78730   0.00000  Uiso   1.00
C788   C     0.14990   0.02448   0.73966   0.00000  Uiso   1.00
C789   C     0.15069   0.47585   0.74217   0.00000  Uiso   1.00
C790   C     0.32038   0.18713   0.68180   0.00000  Uiso   1.00
C791   C     0.20711   0.27358   0.55978   0.00000  Uiso   1.00
C792   C     0.29243   0.17390   0.63244   0.00000  Uiso   1.00
C793   C     0.01607   0.24176   0.84899   0.00000  Uiso   1.00
C794   C     0.04383   0.26366   0.89482   0.00000  Uiso   1.00
C795   C     0.04452   0.00883   0.77375   0.00000  Uiso   1.00
C796   C     0.01694   0.48018   0.80785   0.00000  Uiso   1.00
C797   C     0.07670   0.47273   0.64466   0.00000  Uiso   1.00
C798   C     0.06301   0.47994   0.59072   0.00000  Uiso   1.00
C799   C     0.25543   0.01504   0.69911   0.00000  Uiso   1.00
C800   C     0.27460   0.48030   0.66736   0.00000  Uiso   1.00
C801   C     0.22204   0.49343   0.83998   0.00000  Uiso   1.00
C802   C     0.15890   0.21301   0.94732   0.00000  Uiso   1.00
C803   C     0.23094   0.01731   0.88858   0.00000  Uiso   1.00
C804   C     0.24733   0.34120   0.63322   0.00000  Uiso   1.00
C805   C     0.30302   0.35567   0.63343   0.00000  Uiso   1.00
C806   C     0.09513   0.14971   0.88940   0.00000  Uiso   1.00
C807   C     0.11158   0.10339   0.90407   0.00000  Uiso   1.00
C808   C     0.10597   0.15650   0.61876   0.00000  Uiso   1.00
C809   C     0.07676   0.12982   0.57678   0.00000  Uiso   1.00
C810   C     0.25856   0.32397   0.88662   0.00000  Uiso   1.00
C811   C     0.28259   0.35737   0.85454   0.00000  Uiso   1.00
C812   C     0.20435   0.27435   0.61029   0.00000  Uiso   1.00
C813   C     0.15205   0.21271   0.89559   0.00000  Uiso   1.00
C814   C     0.12957   0.22729   0.59883   0.00000  Uiso   1.00
C815   C     0.18457   0.28727   0.89750   0.00000  Uiso   1.00
C816   C     0.12769   0.23132   0.54814   0.00000  Uiso   1.00
Cu817  Cu    0.16667   0.24999   0.79821   0.00000  Uiso   1.00
Cu818  Cu    0.16667   0.25000   0.70178   0.00000  Uiso   1.00
F819   F     0.09033   0.11650   0.79127   0.00000  Uiso   1.00
F820   F     0.13692   0.38009   0.66077   0.00000  Uiso   1.00
F821   F     0.22092   0.11616   0.68956   0.00000  Uiso   1.00
F822   F     0.17062   0.39115   0.83415   0.00000  Uiso   1.00
F823   F     0.24906   0.29145   0.54259   0.00000  Uiso   1.00
F824   F     0.15698   0.17473   0.97246   0.00000  Uiso   1.00
F825   F     0.08651   0.21416   0.51901   0.00000  Uiso   1.00
F826   F     0.19157   0.32974   0.97086   0.00000  Uiso   1.00
H827   H     0.29974   0.17130   0.71013   0.00000  Uiso   1.00
H828   H     0.07957   0.28059   0.88683   0.00000  Uiso   1.00
H829   H     0.05147   0.48736   0.74320   0.00000  Uiso   1.00
H830   H     0.02005   0.03603   0.76013   0.00000  Uiso   1.00
H831   H     0.00593   0.00092   0.83736   0.00000  Uiso   1.00
H832   H     0.31573   0.46358   0.78779   0.00000  Uiso   1.00
H833   H     0.04206   0.45428   0.82382   0.00000  Uiso   1.00
H834   H     0.06551   0.00208   0.66411   0.00000  Uiso   1.00
H835   H     0.05467   0.44253   0.65467   0.00000  Uiso   1.00
H836   H     0.07296   0.45078   0.57020   0.00000  Uiso   1.00
H837   H     0.02161   0.48445   0.58237   0.00000  Uiso   1.00
H838   H     0.02594   0.17457   0.68484   0.00000  Uiso   1.00
H839   H     0.08407   0.00990   0.57931   0.00000  Uiso   1.00
H840   H     0.28206   0.04470   0.70162   0.00000  Uiso   1.00
H841   H     0.25463   0.00048   0.73560   0.00000  Uiso   1.00
H842   H     0.27947   0.49440   0.63142   0.00000  Uiso   1.00
H843   H     0.31151   0.46895   0.68469   0.00000  Uiso   1.00
H844   H     0.24709   0.45130   0.66251   0.00000  Uiso   1.00
H845   H     0.23331   0.01688   0.81215   0.00000  Uiso   1.00
H846   H     0.24654   0.46452   0.84193   0.00000  Uiso   1.00
H847   H     0.22017   0.49488   0.91747   0.00000  Uiso   1.00
H848   H     0.27169   0.02796   0.89706   0.00000  Uiso   1.00
H849   H     0.31125   0.19051   0.60351   0.00000  Uiso   1.00
H850   H     0.20783   0.04700   0.88745   0.00000  Uiso   1.00
H851   H     0.23308   0.35859   0.66347   0.00000  Uiso   1.00
H852   H     0.22543   0.35254   0.59903   0.00000  Uiso   1.00
H853   H     0.31904   0.33845   0.60405   0.00000  Uiso   1.00
H854   H     0.30670   0.39194   0.62769   0.00000  Uiso   1.00
H855   H     0.32495   0.34761   0.66869   0.00000  Uiso   1.00
H856   H     0.06206   0.14564   0.86103   0.00000  Uiso   1.00
H857   H     0.07964   0.16604   0.91970   0.00000  Uiso   1.00
H858   H     0.14502   0.10486   0.93224   0.00000  Uiso   1.00
H859   H     0.07988   0.08453   0.91830   0.00000  Uiso   1.00
H860   H     0.29266   0.13748   0.62741   0.00000  Uiso   1.00
H861   H     0.12197   0.08523   0.87254   0.00000  Uiso   1.00
H862   H     0.09503   0.14188   0.65263   0.00000  Uiso   1.00
H863   H     0.14754   0.15192   0.61963   0.00000  Uiso   1.00
H864   H     0.09372   0.13627   0.54300   0.00000  Uiso   1.00
H865   H     0.07890   0.09393   0.58463   0.00000  Uiso   1.00
H866   H     0.03626   0.13819   0.57155   0.00000  Uiso   1.00
H867   H     0.27289   0.29103   0.87988   0.00000  Uiso   1.00
H868   H     0.27046   0.33376   0.92504   0.00000  Uiso   1.00
H869   H     0.27091   0.39111   0.86217   0.00000  Uiso   1.00
H870   H     0.32461   0.35703   0.86188   0.00000  Uiso   1.00
H871   H     0.25248   0.18385   0.62953   0.00000  Uiso   1.00
H872   H     0.27062   0.34902   0.81582   0.00000  Uiso   1.00
H873   H     0.03856   0.21422   0.83858   0.00000  Uiso   1.00
H874   H     0.31222   0.22756   0.85723   0.00000  Uiso   1.00
H875   H     0.02096   0.28892   0.90923   0.00000  Uiso   1.00
H876   H     0.05212   0.23858   0.92326   0.00000  Uiso   1.00
N877   N     0.16667   0.25001   0.62935   0.00000  Uiso   1.00
N878   N     0.16667   0.24999   0.87065   0.00000  Uiso   1.00
O879   O     0.16667   0.18572   0.79071   0.00000  Uiso   1.00
O880   O     0.01087   0.27357   0.81186   0.00000  Uiso   1.00
O881   O     0.09011   0.02653   0.79937   0.00000  Uiso   1.00
O882   O     0.12958   0.46841   0.65476   0.00000  Uiso   1.00
O883   O     0.20696   0.02662   0.67797   0.00000  Uiso   1.00
O884   O     0.17025   0.47985   0.82988   0.00000  Uiso   1.00
O885   O     0.24332   0.29499   0.64131   0.00000  Uiso   1.00
O886   O     0.13502   0.17408   0.86997   0.00000  Uiso   1.00
O887   O     0.09256   0.20141   0.61747   0.00000  Uiso   1.00
O888   O     0.20530   0.32319   0.87559   0.00000  Uiso   1.00
O889   O     0.16666   0.31427   0.70929   0.00000  Uiso   1.00
O890   O     0.16667   0.18573   0.70928   0.00000  Uiso   1.00
O891   O     0.16666   0.31427   0.79072   0.00000  Uiso   1.00
O892   O     0.09161   0.24999   0.78132   0.00000  Uiso   1.00
O893   O     0.24172   0.25000   0.71868   0.00000  Uiso   1.00
O894   O     0.09161   0.25000   0.69989   0.00000  Uiso   1.00
O895   O     0.24172   0.25000   0.80011   0.00000  Uiso   1.00
O896   O     0.32217   0.23367   0.68625   0.00000  Uiso   1.00
C897   C     0.49890   0.16505   0.74945   0.00000  Uiso   1.00
C898   C     0.51474   0.29012   0.94773   0.00000  Uiso   1.00
C899   C     0.50107   0.25314   0.52775   0.00000  Uiso   1.00
C900   C     0.50246   0.25245   0.97361   0.00000  Uiso   1.00
C901   C     0.40151   0.24983   0.73791   0.00000  Uiso   1.00
C902   C     0.59855   0.25062   0.76226   0.00000  Uiso   1.00
C903   C     0.34654   0.24568   0.73172   0.00000  Uiso   1.00
C904   C     0.65366   0.25400   0.76921   0.00000  Uiso   1.00
C905   C     0.45268   0.04792   0.76798   0.00000  Uiso   1.00
C906   C     0.47392   0.44963   0.69984   0.00000  Uiso   1.00
C907   C     0.45739   0.09396   0.76973   0.00000  Uiso   1.00
C908   C     0.49778   0.33511   0.74960   0.00000  Uiso   1.00
C909   C     0.47915   0.40402   0.70257   0.00000  Uiso   1.00
C910   C     0.49409   0.11685   0.74658   0.00000  Uiso   1.00
C911   C     0.49177   0.38344   0.74757   0.00000  Uiso   1.00
C912   C     0.52186   0.09398   0.71591   0.00000  Uiso   1.00
C913   C     0.49745   0.40952   0.78985   0.00000  Uiso   1.00
C914   C     0.51624   0.04803   0.71183   0.00000  Uiso   1.00
C915   C     0.49621   0.45544   0.78730   0.00000  Uiso   1.00
C916   C     0.48323   0.02448   0.73966   0.00000  Uiso   1.00
C917   C     0.48402   0.47585   0.74217   0.00000  Uiso   1.00
C918   C     0.65371   0.18713   0.68180   0.00000  Uiso   1.00
C919   C     0.54044   0.27358   0.55978   0.00000  Uiso   1.00
C920   C     0.62577   0.17390   0.63244   0.00000  Uiso   1.00
C921   C     0.34941   0.24176   0.84899   0.00000  Uiso   1.00
C922   C     0.37716   0.26366   0.89482   0.00000  Uiso   1.00
C923   C     0.37786   0.00883   0.77375   0.00000  Uiso   1.00
C924   C     0.35027   0.48018   0.80785   0.00000  Uiso   1.00
C925   C     0.41003   0.47273   0.64466   0.00000  Uiso   1.00
C926   C     0.39634   0.47994   0.59072   0.00000  Uiso   1.00
C927   C     0.58877   0.01504   0.69911   0.00000  Uiso   1.00
C928   C     0.60793   0.48030   0.66736   0.00000  Uiso   1.00
C929   C     0.55538   0.49343   0.83998   0.00000  Uiso   1.00
C930   C     0.49223   0.21301   0.94732   0.00000  Uiso   1.00
C931   C     0.56427   0.01731   0.88858   0.00000  Uiso   1.00
C932   C     0.58066   0.34120   0.63322   0.00000  Uiso   1.00
C933   C     0.63635   0.35567   0.63343   0.00000  Uiso   1.00
C934   C     0.42847   0.14971   0.88940   0.00000  Uiso   1.00
C935   C     0.44492   0.10339   0.90407   0.00000  Uiso   1.00
C936   C     0.43931   0.15650   0.61876   0.00000  Uiso   1.00
C937   C     0.41009   0.12982   0.57678   0.00000  Uiso   1.00
C938   C     0.59190   0.32397   0.88662   0.00000  Uiso   1.00
C939   C     0.61592   0.35737   0.85454   0.00000  Uiso   1.00
C940   C     0.53768   0.27435   0.61029   0.00000  Uiso   1.00
C941   C     0.48538   0.21271   0.89559   0.00000  Uiso   1.00
C942   C     0.46291   0.22729   0.59883   0.00000  Uiso   1.00
C943   C     0.51791   0.28727   0.89750   0.00000  Uiso   1.00
C944   C     0.46102   0.23132   0.54814   0.00000  Uiso   1.00
Cu945  Cu    0.50000   0.24999   0.79821   0.00000  Uiso   1.00
Cu946  Cu    0.50000   0.25000   0.70178   0.00000  Uiso   1.00
F947   F     0.42366   0.11650   0.79127   0.00000  Uiso   1.00
F948   F     0.47025   0.38009   0.66077   0.00000  Uiso   1.00
F949   F     0.55426   0.11616   0.68956   0.00000  Uiso   1.00
F950   F     0.50396   0.39115   0.83415   0.00000  Uiso   1.00
F951   F     0.58239   0.29145   0.54259   0.00000  Uiso   1.00
F952   F     0.49032   0.17473   0.97246   0.00000  Uiso   1.00
F953   F     0.41984   0.21416   0.51901   0.00000  Uiso   1.00
F954   F     0.52491   0.32974   0.97086   0.00000  Uiso   1.00
H955   H     0.63307   0.17130   0.71013   0.00000  Uiso   1.00
H956   H     0.41290   0.28059   0.88683   0.00000  Uiso   1.00
H957   H     0.38480   0.48736   0.74320   0.00000  Uiso   1.00
H958   H     0.35338   0.03603   0.76013   0.00000  Uiso   1.00
H959   H     0.33926   0.00092   0.83736   0.00000  Uiso   1.00
H960   H     0.64907   0.46358   0.78779   0.00000  Uiso   1.00
H961   H     0.37539   0.45428   0.82382   0.00000  Uiso   1.00
H962   H     0.39884   0.00208   0.66411   0.00000  Uiso   1.00
H963   H     0.38800   0.44253   0.65467   0.00000  Uiso   1.00
H964   H     0.40629   0.45078   0.57020   0.00000  Uiso   1.00
H965   H     0.35495   0.48445   0.58237   0.00000  Uiso   1.00
H966   H     0.35928   0.17457   0.68484   0.00000  Uiso   1.00
H967   H     0.41740   0.00990   0.57931   0.00000  Uiso   1.00
H968   H     0.61540   0.04470   0.70162   0.00000  Uiso   1.00
H969   H     0.58797   0.00048   0.73560   0.00000  Uiso   1.00
H970   H     0.61280   0.49440   0.63142   0.00000  Uiso   1.00
H971   H     0.64485   0.46895   0.68469   0.00000  Uiso   1.00
H972   H     0.58042   0.45130   0.66251   0.00000  Uiso   1.00
H973   H     0.56664   0.01688   0.81215   0.00000  Uiso   1.00
H974   H     0.57987   0.46452   0.84193   0.00000  Uiso   1.00
H975   H     0.55351   0.49488   0.91747   0.00000  Uiso   1.00
H976   H     0.60502   0.02796   0.89706   0.00000  Uiso   1.00
H977   H     0.64458   0.19051   0.60351   0.00000  Uiso   1.00
H978   H     0.54116   0.04700   0.88745   0.00000  Uiso   1.00
H979   H     0.56641   0.35859   0.66347   0.00000  Uiso   1.00
H980   H     0.55876   0.35254   0.59903   0.00000  Uiso   1.00
H981   H     0.65237   0.33845   0.60405   0.00000  Uiso   1.00
H982   H     0.64003   0.39194   0.62769   0.00000  Uiso   1.00
H983   H     0.65828   0.34761   0.66869   0.00000  Uiso   1.00
H984   H     0.39540   0.14564   0.86103   0.00000  Uiso   1.00
H985   H     0.41297   0.16604   0.91970   0.00000  Uiso   1.00
H986   H     0.47836   0.10486   0.93224   0.00000  Uiso   1.00
H987   H     0.41321   0.08453   0.91830   0.00000  Uiso   1.00
H988   H     0.62600   0.13748   0.62741   0.00000  Uiso   1.00
H989   H     0.45531   0.08523   0.87254   0.00000  Uiso   1.00
H990   H     0.42836   0.14188   0.65263   0.00000  Uiso   1.00
H991   H     0.48088   0.15192   0.61963   0.00000  Uiso   1.00
H992   H     0.42705   0.13627   0.54300   0.00000  Uiso   1.00
H993   H     0.41224   0.09393   0.58463   0.00000  Uiso   1.00
H994   H     0.36959   0.13819   0.57155   0.00000  Uiso   1.00
H995   H     0.60622   0.29103   0.87988   0.00000  Uiso   1.00
H996   H     0.60379   0.33376   0.92504   0.00000  Uiso   1.00
H997   H     0.60425   0.39111   0.86217   0.00000  Uiso   1.00
H998   H     0.65795   0.35703   0.86188   0.00000  Uiso   1.00
H999   H     0.58581   0.18385   0.62953   0.00000  Uiso   1.00
H1000  H     0.60396   0.34902   0.81582   0.00000  Uiso   1.00
H1001  H     0.37189   0.21422   0.83858   0.00000  Uiso   1.00
H1002  H     0.64555   0.22756   0.85723   0.00000  Uiso   1.00
H1003  H     0.35430   0.28892   0.90923   0.00000  Uiso   1.00
H1004  H     0.38545   0.23858   0.92326   0.00000  Uiso   1.00
N1005  N     0.50000   0.25001   0.62935   0.00000  Uiso   1.00
N1006  N     0.50000   0.24999   0.87065   0.00000  Uiso   1.00
O1007  O     0.50000   0.18572   0.79071   0.00000  Uiso   1.00
O1008  O     0.34420   0.27357   0.81186   0.00000  Uiso   1.00
O1009  O     0.42345   0.02653   0.79937   0.00000  Uiso   1.00
O1010  O     0.46291   0.46841   0.65476   0.00000  Uiso   1.00
O1011  O     0.54029   0.02662   0.67797   0.00000  Uiso   1.00
O1012  O     0.50359   0.47985   0.82988   0.00000  Uiso   1.00
O1013  O     0.57665   0.29499   0.64131   0.00000  Uiso   1.00
O1014  O     0.46836   0.17408   0.86997   0.00000  Uiso   1.00
O1015  O     0.42589   0.20141   0.61747   0.00000  Uiso   1.00
O1016  O     0.53863   0.32319   0.87559   0.00000  Uiso   1.00
O1017  O     0.50000   0.31427   0.70929   0.00000  Uiso   1.00
O1018  O     0.50000   0.18573   0.70928   0.00000  Uiso   1.00
O1019  O     0.50000   0.31427   0.79072   0.00000  Uiso   1.00
O1020  O     0.42495   0.24999   0.78132   0.00000  Uiso   1.00
O1021  O     0.57505   0.25000   0.71868   0.00000  Uiso   1.00
O1022  O     0.42495   0.25000   0.69989   0.00000  Uiso   1.00
O1023  O     0.57505   0.25000   0.80011   0.00000  Uiso   1.00
O1024  O     0.65551   0.23367   0.68625   0.00000  Uiso   1.00
C1025  C     0.83223   0.16505   0.74945   0.00000  Uiso   1.00
C1026  C     0.84807   0.29012   0.94773   0.00000  Uiso   1.00
C1027  C     0.83441   0.25314   0.52775   0.00000  Uiso   1.00
C1028  C     0.83579   0.25245   0.97361   0.00000  Uiso   1.00
C1029  C     0.73484   0.24983   0.73791   0.00000  Uiso   1.00
C1030  C     0.93189   0.25062   0.76226   0.00000  Uiso   1.00
C1031  C     0.67987   0.24568   0.73172   0.00000  Uiso   1.00
C1032  C     0.98699   0.25400   0.76921   0.00000  Uiso   1.00
C1033  C     0.78602   0.04792   0.76798   0.00000  Uiso   1.00
C1034  C     0.80725   0.44963   0.69984   0.00000  Uiso   1.00
C1035  C     0.79072   0.09396   0.76973   0.00000  Uiso   1.00
C1036  C     0.83111   0.33511   0.74960   0.00000  Uiso   1.00
C1037  C     0.81249   0.40402   0.70257   0.00000  Uiso   1.00
C1038  C     0.82743   0.11685   0.74658   0.00000  Uiso   1.00
C1039  C     0.82511   0.38344   0.74757   0.00000  Uiso   1.00
C1040  C     0.85520   0.09398   0.71591   0.00000  Uiso   1.00
C1041  C     0.83078   0.40952   0.78985   0.00000  Uiso   1.00
C1042  C     0.84958   0.04803   0.71183   0.00000  Uiso   1.00
C1043  C     0.82955   0.45544   0.78730   0.00000  Uiso   1.00
C1044  C     0.81657   0.02448   0.73966   0.00000  Uiso   1.00
C1045  C     0.81736   0.47585   0.74217   0.00000  Uiso   1.00
C1046  C     0.98705   0.18713   0.68180   0.00000  Uiso   1.00
C1047  C     0.87378   0.27358   0.55978   0.00000  Uiso   1.00
C1048  C     0.95910   0.17390   0.63244   0.00000  Uiso   1.00
C1049  C     0.68274   0.24176   0.84899   0.00000  Uiso   1.00
C1050  C     0.71049   0.26366   0.89482   0.00000  Uiso   1.00
C1051  C     0.71119   0.00883   0.77375   0.00000  Uiso   1.00
C1052  C     0.68360   0.48018   0.80785   0.00000  Uiso   1.00
C1053  C     0.74337   0.47273   0.64466   0.00000  Uiso   1.00
C1054  C     0.72967   0.47994   0.59072   0.00000  Uiso   1.00
C1055  C     0.92210   0.01504   0.69911   0.00000  Uiso   1.00
C1056  C     0.94127   0.48030   0.66736   0.00000  Uiso   1.00
C1057  C     0.88871   0.49343   0.83998   0.00000  Uiso   1.00
C1058  C     0.82557   0.21301   0.94732   0.00000  Uiso   1.00
C1059  C     0.89760   0.01731   0.88858   0.00000  Uiso   1.00
C1060  C     0.91399   0.34120   0.63322   0.00000  Uiso   1.00
C1061  C     0.96968   0.35567   0.63343   0.00000  Uiso   1.00
C1062  C     0.76180   0.14971   0.88940   0.00000  Uiso   1.00
C1063  C     0.77825   0.10339   0.90407   0.00000  Uiso   1.00
C1064  C     0.77264   0.15650   0.61876   0.00000  Uiso   1.00
C1065  C     0.74343   0.12982   0.57678   0.00000  Uiso   1.00
C1066  C     0.92523   0.32397   0.88662   0.00000  Uiso   1.00
C1067  C     0.94926   0.35737   0.85454   0.00000  Uiso   1.00
C1068  C     0.87101   0.27435   0.61029   0.00000  Uiso   1.00
C1069  C     0.81871   0.21271   0.89559   0.00000  Uiso   1.00
C1070  C     0.79624   0.22729   0.59883   0.00000  Uiso   1.00
C1071  C     0.85124   0.28727   0.89750   0.00000  Uiso   1.00
C1072  C     0.79435   0.23132   0.54814   0.00000  Uiso   1.00
Cu1073 Cu    0.83333   0.24999   0.79821   0.00000  Uiso   1.00
Cu1074 Cu    0.83333   0.25000   0.70178   0.00000  Uiso   1.00
F1075  F     0.75700   0.11650   0.79127   0.00000  Uiso   1.00
F1076  F     0.80359   0.38009   0.66077   0.00000  Uiso   1.00
F1077  F     0.88759   0.11616   0.68956   0.00000  Uiso   1.00
F1078  F     0.83729   0.39115   0.83415   0.00000  Uiso   1.00
F1079  F     0.91573   0.29145   0.54259   0.00000  Uiso   1.00
F1080  F     0.82365   0.17473   0.97246   0.00000  Uiso   1.00
F1081  F     0.75318   0.21416   0.51901   0.00000  Uiso   1.00
F1082  F     0.85824   0.32974   0.97086   0.00000  Uiso   1.00
H1083  H     0.96641   0.17130   0.71013   0.00000  Uiso   1.00
H1084  H     0.74624   0.28059   0.88683   0.00000  Uiso   1.00
H1085  H     0.71813   0.48736   0.74320   0.00000  Uiso   1.00
H1086  H     0.68671   0.03603   0.76013   0.00000  Uiso   1.00
H1087  H     0.67260   0.00092   0.83736   0.00000  Uiso   1.00
H1088  H     0.98240   0.46358   0.78779   0.00000  Uiso   1.00
H1089  H     0.70873   0.45428   0.82382   0.00000  Uiso   1.00
H1090  H     0.73217   0.00208   0.66411   0.00000  Uiso   1.00
H1091  H     0.72133   0.44253   0.65467   0.00000  Uiso   1.00
H1092  H     0.73962   0.45078   0.57020   0.00000  Uiso   1.00
H1093  H     0.68828   0.48445   0.58237   0.00000  Uiso   1.00
H1094  H     0.69261   0.17457   0.68484   0.00000  Uiso   1.00
H1095  H     0.75073   0.00990   0.57931   0.00000  Uiso   1.00
H1096  H     0.94873   0.04470   0.70162   0.00000  Uiso   1.00
H1097  H     0.92130   0.00048   0.73560   0.00000  Uiso   1.00
H1098  H     0.94613   0.49440   0.63142   0.00000  Uiso   1.00
H1099  H     0.97818   0.46895   0.68469   0.00000  Uiso   1.00
H1100  H     0.91375   0.45130   0.66251   0.00000  Uiso   1.00
H1101  H     0.89997   0.01688   0.81215   0.00000  Uiso   1.00
H1102  H     0.91321   0.46452   0.84193   0.00000  Uiso   1.00
H1103  H     0.88684   0.49488   0.91747   0.00000  Uiso   1.00
H1104  H     0.93836   0.02796   0.89706   0.00000  Uiso   1.00
H1105  H     0.97792   0.19051   0.60351   0.00000  Uiso   1.00
H1106  H     0.87450   0.04700   0.88745   0.00000  Uiso   1.00
H1107  H     0.89975   0.35859   0.66347   0.00000  Uiso   1.00
H1108  H     0.89209   0.35254   0.59903   0.00000  Uiso   1.00
H1109  H     0.98571   0.33845   0.60405   0.00000  Uiso   1.00
H1110  H     0.97336   0.39194   0.62769   0.00000  Uiso   1.00
H1111  H     0.99162   0.34761   0.66869   0.00000  Uiso   1.00
H1112  H     0.72873   0.14564   0.86103   0.00000  Uiso   1.00
H1113  H     0.74630   0.16604   0.91970   0.00000  Uiso   1.00
H1114  H     0.81169   0.10486   0.93224   0.00000  Uiso   1.00
H1115  H     0.74654   0.08453   0.91830   0.00000  Uiso   1.00
H1116  H     0.95933   0.13748   0.62741   0.00000  Uiso   1.00
H1117  H     0.78864   0.08523   0.87254   0.00000  Uiso   1.00
H1118  H     0.76169   0.14188   0.65263   0.00000  Uiso   1.00
H1119  H     0.81421   0.15192   0.61963   0.00000  Uiso   1.00
H1120  H     0.76038   0.13627   0.54300   0.00000  Uiso   1.00
H1121  H     0.74557   0.09393   0.58463   0.00000  Uiso   1.00
H1122  H     0.70293   0.13819   0.57155   0.00000  Uiso   1.00
H1123  H     0.93955   0.29103   0.87988   0.00000  Uiso   1.00
H1124  H     0.93713   0.33376   0.92504   0.00000  Uiso   1.00
H1125  H     0.93758   0.39111   0.86217   0.00000  Uiso   1.00
H1126  H     0.99128   0.35703   0.86188   0.00000  Uiso   1.00
H1127  H     0.91915   0.18385   0.62953   0.00000  Uiso   1.00
H1128  H     0.93729   0.34902   0.81582   0.00000  Uiso   1.00
H1129  H     0.70522   0.21422   0.83858   0.00000  Uiso   1.00
H1130  H     0.97888   0.22756   0.85723   0.00000  Uiso   1.00
H1131  H     0.68763   0.28892   0.90923   0.00000  Uiso   1.00
H1132  H     0.71878   0.23858   0.92326   0.00000  Uiso   1.00
N1133  N     0.83333   0.25001   0.62935   0.00000  Uiso   1.00
N1134  N     0.83333   0.24999   0.87065   0.00000  Uiso   1.00
O1135  O     0.83334   0.18572   0.79071   0.00000  Uiso   1.00
O1136  O     0.67753   0.27357   0.81186   0.00000  Uiso   1.00
O1137  O     0.75678   0.02653   0.79937   0.00000  Uiso   1.00
O1138  O     0.79624   0.46841   0.65476   0.00000  Uiso   1.00
O1139  O     0.87362   0.02662   0.67797   0.00000  Uiso   1.00
O1140  O     0.83692   0.47985   0.82988   0.00000  Uiso   1.00
O1141  O     0.90998   0.29499   0.64131   0.00000  Uiso   1.00
O1142  O     0.80169   0.17408   0.86997   0.00000  Uiso   1.00
O1143  O     0.75923   0.20141   0.61747   0.00000  Uiso   1.00
O1144  O     0.87197   0.32319   0.87559   0.00000  Uiso   1.00
O1145  O     0.83333   0.31427   0.70929   0.00000  Uiso   1.00
O1146  O     0.83334   0.18573   0.70928   0.00000  Uiso   1.00
O1147  O     0.83333   0.31427   0.79072   0.00000  Uiso   1.00
O1148  O     0.75828   0.24999   0.78132   0.00000  Uiso   1.00
O1149  O     0.90839   0.25000   0.71868   0.00000  Uiso   1.00
O1150  O     0.75828   0.25000   0.69989   0.00000  Uiso   1.00
O1151  O     0.90839   0.25000   0.80011   0.00000  Uiso   1.00
O1152  O     0.98884   0.23367   0.68625   0.00000  Uiso   1.00
C1153  C     0.16556   0.66505   0.74945   0.00000  Uiso   1.00
C1154  C     0.18140   0.79012   0.94773   0.00000  Uiso   1.00
C1155  C     0.16774   0.75314   0.52775   0.00000  Uiso   1.00
C1156  C     0.16913   0.75245   0.97361   0.00000  Uiso   1.00
C1157  C     0.06818   0.74983   0.73791   0.00000  Uiso   1.00
C1158  C     0.26522   0.75062   0.76226   0.00000  Uiso   1.00
C1159  C     0.01321   0.74568   0.73172   0.00000  Uiso   1.00
C1160  C     0.32032   0.75400   0.76921   0.00000  Uiso   1.00
C1161  C     0.11935   0.54792   0.76798   0.00000  Uiso   1.00
C1162  C     0.14059   0.94963   0.69984   0.00000  Uiso   1.00
C1163  C     0.12406   0.59396   0.76973   0.00000  Uiso   1.00
C1164  C     0.16445   0.83511   0.74960   0.00000  Uiso   1.00
C1165  C     0.14582   0.90402   0.70257   0.00000  Uiso   1.00
C1166  C     0.16076   0.61685   0.74658   0.00000  Uiso   1.00
C1167  C     0.15844   0.88344   0.74757   0.00000  Uiso   1.00
C1168  C     0.18853   0.59398   0.71591   0.00000  Uiso   1.00
C1169  C     0.16411   0.90952   0.78985   0.00000  Uiso   1.00
C1170  C     0.18291   0.54803   0.71183   0.00000  Uiso   1.00
C1171  C     0.16288   0.95544   0.78730   0.00000  Uiso   1.00
C1172  C     0.14990   0.52448   0.73966   0.00000  Uiso   1.00
C1173  C     0.15069   0.97585   0.74217   0.00000  Uiso   1.00
C1174  C     0.32038   0.68713   0.68180   0.00000  Uiso   1.00
C1175  C     0.20711   0.77358   0.55978   0.00000  Uiso   1.00
C1176  C     0.29243   0.67390   0.63244   0.00000  Uiso   1.00
C1177  C     0.01607   0.74176   0.84899   0.00000  Uiso   1.00
C1178  C     0.04383   0.76366   0.89482   0.00000  Uiso   1.00
C1179  C     0.04452   0.50883   0.77375   0.00000  Uiso   1.00
C1180  C     0.01694   0.98018   0.80785   0.00000  Uiso   1.00
C1181  C     0.07670   0.97273   0.64466   0.00000  Uiso   1.00
C1182  C     0.06301   0.97994   0.59072   0.00000  Uiso   1.00
C1183  C     0.25543   0.51504   0.69911   0.00000  Uiso   1.00
C1184  C     0.27460   0.98030   0.66736   0.00000  Uiso   1.00
C1185  C     0.22204   0.99343   0.83998   0.00000  Uiso   1.00
C1186  C     0.15890   0.71301   0.94732   0.00000  Uiso   1.00
C1187  C     0.23094   0.51731   0.88858   0.00000  Uiso   1.00
C1188  C     0.24733   0.84120   0.63322   0.00000  Uiso   1.00
C1189  C     0.30302   0.85567   0.63343   0.00000  Uiso   1.00
C1190  C     0.09513   0.64971   0.88940   0.00000  Uiso   1.00
C1191  C     0.11158   0.60339   0.90407   0.00000  Uiso   1.00
C1192  C     0.10597   0.65650   0.61876   0.00000  Uiso   1.00
C1193  C     0.07676   0.62982   0.57678   0.00000  Uiso   1.00
C1194  C     0.25856   0.82397   0.88662   0.00000  Uiso   1.00
C1195  C     0.28259   0.85737   0.85454   0.00000  Uiso   1.00
C1196  C     0.20435   0.77435   0.61029   0.00000  Uiso   1.00
C1197  C     0.15205   0.71271   0.89559   0.00000  Uiso   1.00
C1198  C     0.12957   0.72729   0.59883   0.00000  Uiso   1.00
C1199  C     0.18457   0.78727   0.89750   0.00000  Uiso   1.00
C1200  C     0.12769   0.73132   0.54814   0.00000  Uiso   1.00
Cu1201 Cu    0.16667   0.74999   0.79821   0.00000  Uiso   1.00
Cu1202 Cu    0.16667   0.75000   0.70178   0.00000  Uiso   1.00
F1203  F     0.09033   0.61650   0.79127   0.00000  Uiso   1.00
F1204  F     0.13692   0.88009   0.66077   0.00000  Uiso   1.00
F1205  F     0.22092   0.61616   0.68956   0.00000  Uiso   1.00
F1206  F     0.17062   0.89115   0.83415   0.00000  Uiso   1.00
F1207  F     0.24906   0.79145   0.54259   0.00000  Uiso   1.00
F1208  F     0.15698   0.67473   0.97246   0.00000  Uiso   1.00
F1209  F     0.08651   0.71416   0.51901   0.00000  Uiso   1.00
F1210  F     0.19157   0.82974   0.97086   0.00000  Uiso   1.00
H1211  H     0.29974   0.67130   0.71013   0.00000  Uiso   1.00
H1212  H     0.07957   0.78059   0.88683   0.00000  Uiso   1.00
H1213  H     0.05147   0.98736   0.74320   0.00000  Uiso   1.00
H1214  H     0.02005   0.53603   0.76013   0.00000  Uiso   1.00
H1215  H     0.00593   0.50092   0.83736   0.00000  Uiso   1.00
H1216  H     0.31573   0.96358   0.78779   0.00000  Uiso   1.00
H1217  H     0.04206   0.95428   0.82382   0.00000  Uiso   1.00
H1218  H     0.06551   0.50208   0.66411   0.00000  Uiso   1.00
H1219  H     0.05467   0.94253   0.65467   0.00000  Uiso   1.00
H1220  H     0.07296   0.95078   0.57020   0.00000  Uiso   1.00
H1221  H     0.02161   0.98445   0.58237   0.00000  Uiso   1.00
H1222  H     0.02594   0.67457   0.68484   0.00000  Uiso   1.00
H1223  H     0.08407   0.50990   0.57931   0.00000  Uiso   1.00
H1224  H     0.28206   0.54470   0.70162   0.00000  Uiso   1.00
H1225  H     0.25463   0.50048   0.73560   0.00000  Uiso   1.00
H1226  H     0.27947   0.99440   0.63142   0.00000  Uiso   1.00
H1227  H     0.31151   0.96895   0.68469   0.00000  Uiso   1.00
H1228  H     0.24709   0.95130   0.66251   0.00000  Uiso   1.00
H1229  H     0.23331   0.51688   0.81215   0.00000  Uiso   1.00
H1230  H     0.24654   0.96452   0.84193   0.00000  Uiso   1.00
H1231  H     0.22017   0.99488   0.91747   0.00000  Uiso   1.00
H1232  H     0.27169   0.52796   0.89706   0.00000  Uiso   1.00
H1233  H     0.31125   0.69051   0.60351   0.00000  Uiso   1.00
H1234  H     0.20783   0.54700   0.88745   0.00000  Uiso   1.00
H1235  H     0.23308   0.85859   0.66347   0.00000  Uiso   1.00
H1236  H     0.22543   0.85254   0.59903   0.00000  Uiso   1.00
H1237  H     0.31904   0.83845   0.60405   0.00000  Uiso   1.00
H1238  H     0.30670   0.89194   0.62769   0.00000  Uiso   1.00
H1239  H     0.32495   0.84761   0.66869   0.00000  Uiso   1.00
H1240  H     0.06206   0.64564   0.86103   0.00000  Uiso   1.00
H1241  H     0.07964   0.66604   0.91970   0.00000  Uiso   1.00
H1242  H     0.14502   0.60486   0.93224   0.00000  Uiso   1.00
H1243  H     0.07988   0.58453   0.91830   0.00000  Uiso   1.00
H1244  H     0.29266   0.63748   0.62741   0.00000  Uiso   1.00
H1245  H     0.12197   0.58523   0.87254   0.00000  Uiso   1.00
H1246  H     0.09503   0.64188   0.65263   0.00000  Uiso   1.00
H1247  H     0.14754   0.65192   0.61963   0.00000  Uiso   1.00
H1248  H     0.09372   0.63627   0.54300   0.00000  Uiso   1.00
H1249  H     0.07890   0.59393   0.58463   0.00000  Uiso   1.00
H1250  H     0.03626   0.63819   0.57155   0.00000  Uiso   1.00
H1251  H     0.27289   0.79103   0.87988   0.00000  Uiso   1.00
H1252  H     0.27046   0.83376   0.92504   0.00000  Uiso   1.00
H1253  H     0.27091   0.89111   0.86217   0.00000  Uiso   1.00
H1254  H     0.32461   0.85703   0.86188   0.00000  Uiso   1.00
H1255  H     0.25248   0.68385   0.62953   0.00000  Uiso   1.00
H1256  H     0.27062   0.84902   0.81582   0.00000  Uiso   1.00
H1257  H     0.03856   0.71422   0.83858   0.00000  Uiso   1.00
H1258  H     0.31222   0.72756   0.85723   0.00000  Uiso   1.00
H1259  H     0.02096   0.78892   0.90923   0.00000  Uiso   1.00
H1260  H     0.05212   0.73858   0.92326   0.00000  Uiso   1.00
N1261  N     0.16667   0.75001   0.62935   0.00000  Uiso   1.00
N1262  N     0.16667   0.74999   0.87065   0.00000  Uiso   1.00
O1263  O     0.16667   0.68572   0.79071   0.00000  Uiso   1.00
O1264  O     0.01087   0.77357   0.81186   0.00000  Uiso   1.00
O1265  O     0.09011   0.52653   0.79937   0.00000  Uiso   1.00
O1266  O     0.12958   0.96841   0.65476   0.00000  Uiso   1.00
O1267  O     0.20696   0.52662   0.67797   0.00000  Uiso   1.00
O1268  O     0.17025   0.97985   0.82988   0.00000  Uiso   1.00
O1269  O     0.24332   0.79499   0.64131   0.00000  Uiso   1.00
O1270  O     0.13502   0.67408   0.86997   0.00000  Uiso   1.00
O1271  O     0.09256   0.70141   0.61747   0.00000  Uiso   1.00
O1272  O     0.20530   0.82319   0.87559   0.00000  Uiso   1.00
O1273  O     0.16666   0.81427   0.70929   0.00000  Uiso   1.00
O1274  O     0.16667   0.68573   0.70928   0.00000  Uiso   1.00
O1275  O     0.16666   0.81427   0.79072   0.00000  Uiso   1.00
O1276  O     0.09161   0.74999   0.78132   0.00000  Uiso   1.00
O1277  O     0.24172   0.75000   0.71868   0.00000  Uiso   1.00
O1278  O     0.09161   0.75000   0.69989   0.00000  Uiso   1.00
O1279  O     0.24172   0.75000   0.80011   0.00000  Uiso   1.00
O1280  O     0.32217   0.73367   0.68625   0.00000  Uiso   1.00
C1281  C     0.49890   0.66505   0.74945   0.00000  Uiso   1.00
C1282  C     0.51474   0.79012   0.94773   0.00000  Uiso   1.00
C1283  C     0.50107   0.75314   0.52775   0.00000  Uiso   1.00
C1284  C     0.50246   0.75245   0.97361   0.00000  Uiso   1.00
C1285  C     0.40151   0.74983   0.73791   0.00000  Uiso   1.00
C1286  C     0.59855   0.75062   0.76226   0.00000  Uiso   1.00
C1287  C     0.34654   0.74568   0.73172   0.00000  Uiso   1.00
C1288  C     0.65366   0.75400   0.76921   0.00000  Uiso   1.00
C1289  C     0.45268   0.54792   0.76798   0.00000  Uiso   1.00
C1290  C     0.47392   0.94963   0.69984   0.00000  Uiso   1.00
C1291  C     0.45739   0.59396   0.76973   0.00000  Uiso   1.00
C1292  C     0.49778   0.83511   0.74960   0.00000  Uiso   1.00
C1293  C     0.47915   0.90402   0.70257   0.00000  Uiso   1.00
C1294  C     0.49409   0.61685   0.74658   0.00000  Uiso   1.00
C1295  C     0.49177   0.88344   0.74757   0.00000  Uiso   1.00
C1296  C     0.52186   0.59398   0.71591   0.00000  Uiso   1.00
C1297  C     0.49745   0.90952   0.78985   0.00000  Uiso   1.00
C1298  C     0.51624   0.54803   0.71183   0.00000  Uiso   1.00
C1299  C     0.49621   0.95544   0.78730   0.00000  Uiso   1.00
C1300  C     0.48323   0.52448   0.73966   0.00000  Uiso   1.00
C1301  C     0.48402   0.97585   0.74217   0.00000  Uiso   1.00
C1302  C     0.65371   0.68713   0.68180   0.00000  Uiso   1.00
C1303  C     0.54044   0.77358   0.55978   0.00000  Uiso   1.00
C1304  C     0.62577   0.67390   0.63244   0.00000  Uiso   1.00
C1305  C     0.34941   0.74176   0.84899   0.00000  Uiso   1.00
C1306  C     0.37716   0.76366   0.89482   0.00000  Uiso   1.00
C1307  C     0.37786   0.50883   0.77375   0.00000  Uiso   1.00
C1308  C     0.35027   0.98018   0.80785   0.00000  Uiso   1.00
C1309  C     0.41003   0.97273   0.64466   0.00000  Uiso   1.00
C1310  C     0.39634   0.97994   0.59072   0.00000  Uiso   1.00
C1311  C     0.58877   0.51504   0.69911   0.00000  Uiso   1.00
C1312  C     0.60793   0.98030   0.66736   0.00000  Uiso   1.00
C1313  C     0.55538   0.99343   0.83998   0.00000  Uiso   1.00
C1314  C     0.49223   0.71301   0.94732   0.00000  Uiso   1.00
C1315  C     0.56427   0.51731   0.88858   0.00000  Uiso   1.00
C1316  C     0.58066   0.84120   0.63322   0.00000  Uiso   1.00
C1317  C     0.63635   0.85567   0.63343   0.00000  Uiso   1.00
C1318  C     0.42847   0.64971   0.88940   0.00000  Uiso   1.00
C1319  C     0.44492   0.60339   0.90407   0.00000  Uiso   1.00
C1320  C     0.43931   0.65650   0.61876   0.00000  Uiso   1.00
C1321  C     0.41009   0.62982   0.57678   0.00000  Uiso   1.00
C1322  C     0.59190   0.82397   0.88662   0.00000  Uiso   1.00
C1323  C     0.61592   0.85737   0.85454   0.00000  Uiso   1.00
C1324  C     0.53768   0.77435   0.61029   0.00000  Uiso   1.00
C1325  C     0.48538   0.71271   0.89559   0.00000  Uiso   1.00
C1326  C     0.46291   0.72729   0.59883   0.00000  Uiso   1.00
C1327  C     0.51791   0.78727   0.89750   0.00000  Uiso   1.00
C1328  C     0.46102   0.73132   0.54814   0.00000  Uiso   1.00
Cu1329 Cu    0.50000   0.74999   0.79821   0.00000  Uiso   1.00
Cu1330 Cu    0.50000   0.75000   0.70178   0.00000  Uiso   1.00
F1331  F     0.42366   0.61650   0.79127   0.00000  Uiso   1.00
F1332  F     0.47025   0.88009   0.66077   0.00000  Uiso   1.00
F1333  F     0.55426   0.61616   0.68956   0.00000  Uiso   1.00
F1334  F     0.50396   0.89115   0.83415   0.00000  Uiso   1.00
F1335  F     0.58239   0.79145   0.54259   0.00000  Uiso   1.00
F1336  F     0.49032   0.67473   0.97246   0.00000  Uiso   1.00
F1337  F     0.41984   0.71416   0.51901   0.00000  Uiso   1.00
F1338  F     0.52491   0.82974   0.97086   0.00000  Uiso   1.00
H1339  H     0.63307   0.67130   0.71013   0.00000  Uiso   1.00
H1340  H     0.41290   0.78059   0.88683   0.00000  Uiso   1.00
H1341  H     0.38480   0.98736   0.74320   0.00000  Uiso   1.00
H1342  H     0.35338   0.53603   0.76013   0.00000  Uiso   1.00
H1343  H     0.33926   0.50092   0.83736   0.00000  Uiso   1.00
H1344  H     0.64907   0.96358   0.78779   0.00000  Uiso   1.00
H1345  H     0.37539   0.95428   0.82382   0.00000  Uiso   1.00
H1346  H     0.39884   0.50208   0.66411   0.00000  Uiso   1.00
H1347  H     0.38800   0.94253   0.65467   0.00000  Uiso   1.00
H1348  H     0.40629   0.95078   0.57020   0.00000  Uiso   1.00
H1349  H     0.35495   0.98445   0.58237   0.00000  Uiso   1.00
H1350  H     0.35928   0.67457   0.68484   0.00000  Uiso   1.00
H1351  H     0.41740   0.50990   0.57931   0.00000  Uiso   1.00
H1352  H     0.61540   0.54470   0.70162   0.00000  Uiso   1.00
H1353  H     0.58797   0.50048   0.73560   0.00000  Uiso   1.00
H1354  H     0.61280   0.99440   0.63142   0.00000  Uiso   1.00
H1355  H     0.64485   0.96895   0.68469   0.00000  Uiso   1.00
H1356  H     0.58042   0.95130   0.66251   0.00000  Uiso   1.00
H1357  H     0.56664   0.51688   0.81215   0.00000  Uiso   1.00
H1358  H     0.57987   0.96452   0.84193   0.00000  Uiso   1.00
H1359  H     0.55351   0.99488   0.91747   0.00000  Uiso   1.00
H1360  H     0.60502   0.52796   0.89706   0.00000  Uiso   1.00
H1361  H     0.64458   0.69051   0.60351   0.00000  Uiso   1.00
H1362  H     0.54116   0.54700   0.88745   0.00000  Uiso   1.00
H1363  H     0.56641   0.85859   0.66347   0.00000  Uiso   1.00
H1364  H     0.55876   0.85254   0.59903   0.00000  Uiso   1.00
H1365  H     0.65237   0.83845   0.60405   0.00000  Uiso   1.00
H1366  H     0.64003   0.89194   0.62769   0.00000  Uiso   1.00
H1367  H     0.65828   0.84761   0.66869   0.00000  Uiso   1.00
H1368  H     0.39540   0.64564   0.86103   0.00000  Uiso   1.00
H1369  H     0.41297   0.66604   0.91970   0.00000  Uiso   1.00
H1370  H     0.47836   0.60486   0.93224   0.00000  Uiso   1.00
H1371  H     0.41321   0.58453   0.91830   0.00000  Uiso   1.00
H1372  H     0.62600   0.63748   0.62741   0.00000  Uiso   1.00
H1373  H     0.45531   0.58523   0.87254   0.00000  Uiso   1.00
H1374  H     0.42836   0.64188   0.65263   0.00000  Uiso   1.00
H1375  H     0.48088   0.65192   0.61963   0.00000  Uiso   1.00
H1376  H     0.42705   0.63627   0.54300   0.00000  Uiso   1.00
H1377  H     0.41224   0.59393   0.58463   0.00000  Uiso   1.00
H1378  H     0.36959   0.63819   0.57155   0.00000  Uiso   1.00
H1379  H     0.60622   0.79103   0.87988   0.00000  Uiso   1.00
H1380  H     0.60379   0.83376   0.92504   0.00000  Uiso   1.00
H1381  H     0.60425   0.89111   0.86217   0.00000  Uiso   1.00
H1382  H     0.65795   0.85703   0.86188   0.00000  Uiso   1.00
H1383  H     0.58581   0.68385   0.62953   0.00000  Uiso   1.00
H1384  H     0.60396   0.84902   0.81582   0.00000  Uiso   1.00
H1385  H     0.37189   0.71422   0.83858   0.00000  Uiso   1.00
H1386  H     0.64555   0.72756   0.85723   0.00000  Uiso   1.00
H1387  H     0.35430   0.78892   0.90923   0.00000  Uiso   1.00
H1388  H     0.38545   0.73858   0.92326   0.00000  Uiso   1.00
N1389  N     0.50000   0.75001   0.62935   0.00000  Uiso   1.00
N1390  N     0.50000   0.74999   0.87065   0.00000  Uiso   1.00
O1391  O     0.50000   0.68572   0.79071   0.00000  Uiso   1.00
O1392  O     0.34420   0.77357   0.81186   0.00000  Uiso   1.00
O1393  O     0.42345   0.52653   0.79937   0.00000  Uiso   1.00
O1394  O     0.46291   0.96841   0.65476   0.00000  Uiso   1.00
O1395  O     0.54029   0.52662   0.67797   0.00000  Uiso   1.00
O1396  O     0.50359   0.97985   0.82988   0.00000  Uiso   1.00
O1397  O     0.57665   0.79499   0.64131   0.00000  Uiso   1.00
O1398  O     0.46836   0.67408   0.86997   0.00000  Uiso   1.00
O1399  O     0.42589   0.70141   0.61747   0.00000  Uiso   1.00
O1400  O     0.53863   0.82319   0.87559   0.00000  Uiso   1.00
O1401  O     0.50000   0.81427   0.70929   0.00000  Uiso   1.00
O1402  O     0.50000   0.68573   0.70928   0.00000  Uiso   1.00
O1403  O     0.50000   0.81427   0.79072   0.00000  Uiso   1.00
O1404  O     0.42495   0.74999   0.78132   0.00000  Uiso   1.00
O1405  O     0.57505   0.75000   0.71868   0.00000  Uiso   1.00
O1406  O     0.42495   0.75000   0.69989   0.00000  Uiso   1.00
O1407  O     0.57505   0.75000   0.80011   0.00000  Uiso   1.00
O1408  O     0.65551   0.73367   0.68625   0.00000  Uiso   1.00
C1409  C     0.83223   0.66505   0.74945   0.00000  Uiso   1.00
C1410  C     0.84807   0.79012   0.94773   0.00000  Uiso   1.00
C1411  C     0.83441   0.75314   0.52775   0.00000  Uiso   1.00
C1412  C     0.83579   0.75245   0.97361   0.00000  Uiso   1.00
C1413  C     0.73484   0.74983   0.73791   0.00000  Uiso   1.00
C1414  C     0.93189   0.75062   0.76226   0.00000  Uiso   1.00
C1415  C     0.67987   0.74568   0.73172   0.00000  Uiso   1.00
C1416  C     0.98699   0.75400   0.76921   0.00000  Uiso   1.00
C1417  C     0.78602   0.54792   0.76798   0.00000  Uiso   1.00
C1418  C     0.80725   0.94963   0.69984   0.00000  Uiso   1.00
C1419  C     0.79072   0.59396   0.76973   0.00000  Uiso   1.00
C1420  C     0.83111   0.83511   0.74960   0.00000  Uiso   1.00
C1421  C     0.81249   0.90402   0.70257   0.00000  Uiso   1.00
C1422  C     0.82743   0.61685   0.74658   0.00000  Uiso   1.00
C1423  C     0.82511   0.88344   0.74757   0.00000  Uiso   1.00
C1424  C     0.85520   0.59398   0.71591   0.00000  Uiso   1.00
C1425  C     0.83078   0.90952   0.78985   0.00000  Uiso   1.00
C1426  C     0.84958   0.54803   0.71183   0.00000  Uiso   1.00
C1427  C     0.82955   0.95544   0.78730   0.00000  Uiso   1.00
C1428  C     0.81657   0.52448   0.73966   0.00000  Uiso   1.00
C1429  C     0.81736   0.97585   0.74217   0.00000  Uiso   1.00
C1430  C     0.98705   0.68713   0.68180   0.00000  Uiso   1.00
C1431  C     0.87378   0.77358   0.55978   0.00000  Uiso   1.00
C1432  C     0.95910   0.67390   0.63244   0.00000  Uiso   1.00
C1433  C     0.68274   0.74176   0.84899   0.00000  Uiso   1.00
C1434  C     0.71049   0.76366   0.89482   0.00000  Uiso   1.00
C1435  C     0.71119   0.50883   0.77375   0.00000  Uiso   1.00
C1436  C     0.68360   0.98018   0.80785   0.00000  Uiso   1.00
C1437  C     0.74337   0.97273   0.64466   0.00000  Uiso   1.00
C1438  C     0.72967   0.97994   0.59072   0.00000  Uiso   1.00
C1439  C     0.92210   0.51504   0.69911   0.00000  Uiso   1.00
C1440  C     0.94127   0.98030   0.66736   0.00000  Uiso   1.00
C1441  C     0.88871   0.99343   0.83998   0.00000  Uiso   1.00
C1442  C     0.82557   0.71301   0.94732   0.00000  Uiso   1.00
C1443  C     0.89760   0.51731   0.88858   0.00000  Uiso   1.00
C1444  C     0.91399   0.84120   0.63322   0.00000  Uiso   1.00
C1445  C     0.96968   0.85567   0.63343   0.00000  Uiso   1.00
C1446  C     0.76180   0.64971   0.88940   0.00000  Uiso   1.00
C1447  C     0.77825   0.60339   0.90407   0.00000  Uiso   1.00
C1448  C     0.77264   0.65650   0.61876   0.00000  Uiso   1.00
C1449  C     0.74343   0.62982   0.57678   0.00000  Uiso   1.00
C1450  C     0.92523   0.82397   0.88662   0.00000  Uiso   1.00
C1451  C     0.94926   0.85737   0.85454   0.00000  Uiso   1.00
C1452  C     0.87101   0.77435   0.61029   0.00000  Uiso   1.00
C1453  C     0.81871   0.71271   0.89559   0.00000  Uiso   1.00
C1454  C     0.79624   0.72729   0.59883   0.00000  Uiso   1.00
C1455  C     0.85124   0.78727   0.89750   0.00000  Uiso   1.00
C1456  C     0.79435   0.73132   0.54814   0.00000  Uiso   1.00
Cu1457 Cu    0.83333   0.74999   0.79821   0.00000  Uiso   1.00
Cu1458 Cu    0.83333   0.75000   0.70178   0.00000  Uiso   1.00
F1459  F     0.75700   0.61650   0.79127   0.00000  Uiso   1.00
F1460  F     0.80359   0.88009   0.66077   0.00000  Uiso   1.00
F1461  F     0.88759   0.61616   0.68956   0.00000  Uiso   1.00
F1462  F     0.83729   0.89115   0.83415   0.00000  Uiso   1.00
F1463  F     0.91573   0.79145   0.54259   0.00000  Uiso   1.00
F1464  F     0.82365   0.67473   0.97246   0.00000  Uiso   1.00
F1465  F     0.75318   0.71416   0.51901   0.00000  Uiso   1.00
F1466  F     0.85824   0.82974   0.97086   0.00000  Uiso   1.00
H1467  H     0.96641   0.67130   0.71013   0.00000  Uiso   1.00
H1468  H     0.74624   0.78059   0.88683   0.00000  Uiso   1.00
H1469  H     0.71813   0.98736   0.74320   0.00000  Uiso   1.00
H1470  H     0.68671   0.53603   0.76013   0.00000  Uiso   1.00
H1471  H     0.67260   0.50092   0.83736   0.00000  Uiso   1.00
H1472  H     0.98240   0.96358   0.78779   0.00000  Uiso   1.00
H1473  H     0.70873   0.95428   0.82382   0.00000  Uiso   1.00
H1474  H     0.73217   0.50208   0.66411   0.00000  Uiso   1.00
H1475  H     0.72133   0.94253   0.65467   0.00000  Uiso   1.00
H1476  H     0.73962   0.95078   0.57020   0.00000  Uiso   1.00
H1477  H     0.68828   0.98445   0.58237   0.00000  Uiso   1.00
H1478  H     0.69261   0.67457   0.68484   0.00000  Uiso   1.00
H1479  H     0.75073   0.50990   0.57931   0.00000  Uiso   1.00
H1480  H     0.94873   0.54470   0.70162   0.00000  Uiso   1.00
H1481  H     0.92130   0.50048   0.73560   0.00000  Uiso   1.00
H1482  H     0.94613   0.99440   0.63142   0.00000  Uiso   1.00
H1483  H     0.97818   0.96895   0.68469   0.00000  Uiso   1.00
H1484  H     0.91375   0.95130   0.66251   0.00000  Uiso   1.00
H1485  H     0.89997   0.51688   0.81215   0.00000  Uiso   1.00
H1486  H     0.91321   0.96452   0.84193   0.00000  Uiso   1.00
H1487  H     0.88684   0.99488   0.91747   0.00000  Uiso   1.00
H1488  H     0.93836   0.52796   0.89706   0.00000  Uiso   1.00
H1489  H     0.97792   0.69051   0.60351   0.00000  Uiso   1.00
H1490  H     0.87450   0.54700   0.88745   0.00000  Uiso   1.00
H1491  H     0.89975   0.85859   0.66347   0.00000  Uiso   1.00
H1492  H     0.89209   0.85254   0.59903   0.00000  Uiso   1.00
H1493  H     0.98571   0.83845   0.60405   0.00000  Uiso   1.00
H1494  H     0.97336   0.89194   0.62769   0.00000  Uiso   1.00
H1495  H     0.99162   0.84761   0.66869   0.00000  Uiso   1.00
H1496  H     0.72873   0.64564   0.86103   0.00000  Uiso   1.00
H1497  H     0.74630   0.66604   0.91970   0.00000  Uiso   1.00
H1498  H     0.81169   0.60486   0.93224   0.00000  Uiso   1.00
H1499  H     0.74654   0.58453   0.91830   0.00000  Uiso   1.00
H1500  H     0.95933   0.63748   0.62741   0.00000  Uiso   1.00
H1501  H     0.78864   0.58523   0.87254   0.00000  Uiso   1.00
H1502  H     0.76169   0.64188   0.65263   0.00000  Uiso   1.00
H1503  H     0.81421   0.65192   0.61963   0.00000  Uiso   1.00
H1504  H     0.76038   0.63627   0.54300   0.00000  Uiso   1.00
H1505  H     0.74557   0.59393   0.58463   0.00000  Uiso   1.00
H1506  H     0.70293   0.63819   0.57155   0.00000  Uiso   1.00
H1507  H     0.93955   0.79103   0.87988   0.00000  Uiso   1.00
H1508  H     0.93713   0.83376   0.92504   0.00000  Uiso   1.00
H1509  H     0.93758   0.89111   0.86217   0.00000  Uiso   1.00
H1510  H     0.99128   0.85703   0.86188   0.00000  Uiso   1.00
H1511  H     0.91915   0.68385   0.62953   0.00000  Uiso   1.00
H1512  H     0.93729   0.84902   0.81582   0.00000  Uiso   1.00
H1513  H     0.70522   0.71422   0.83858   0.00000  Uiso   1.00
H1514  H     0.97888   0.72756   0.85723   0.00000  Uiso   1.00
H1515  H     0.68763   0.78892   0.90923   0.00000  Uiso   1.00
H1516  H     0.71878   0.73858   0.92326   0.00000  Uiso   1.00
N1517  N     0.83333   0.75001   0.62935   0.00000  Uiso   1.00
N1518  N     0.83333   0.74999   0.87065   0.00000  Uiso   1.00
O1519  O     0.83334   0.68572   0.79071   0.00000  Uiso   1.00
O1520  O     0.67753   0.77357   0.81186   0.00000  Uiso   1.00
O1521  O     0.75678   0.52653   0.79937   0.00000  Uiso   1.00
O1522  O     0.79624   0.96841   0.65476   0.00000  Uiso   1.00
O1523  O     0.87362   0.52662   0.67797   0.00000  Uiso   1.00
O1524  O     0.83692   0.97985   0.82988   0.00000  Uiso   1.00
O1525  O     0.90998   0.79499   0.64131   0.00000  Uiso   1.00
O1526  O     0.80169   0.67408   0.86997   0.00000  Uiso   1.00
O1527  O     0.75923   0.70141   0.61747   0.00000  Uiso   1.00
O1528  O     0.87197   0.82319   0.87559   0.00000  Uiso   1.00
O1529  O     0.83333   0.81427   0.70929   0.00000  Uiso   1.00
O1530  O     0.83334   0.68573   0.70928   0.00000  Uiso   1.00
O1531  O     0.83333   0.81427   0.79072   0.00000  Uiso   1.00
O1532  O     0.75828   0.74999   0.78132   0.00000  Uiso   1.00
O1533  O     0.90839   0.75000   0.71868   0.00000  Uiso   1.00
O1534  O     0.75828   0.75000   0.69989   0.00000  Uiso   1.00
O1535  O     0.90839   0.75000   0.80011   0.00000  Uiso   1.00
O1536  O     0.98884   0.73367   0.68625   0.00000  Uiso   1.00
loop_
_geom_bond_atom_site_label_1
_geom_bond_atom_site_label_2
_geom_bond_distance
_geom_bond_site_symmetry_2
_ccdc_geom_bond_type
C1     O111    1.304   .     A
C1     C14     1.458   .     S
C1     O122    1.287   .     A
C2     C4      1.397   .     A
C2     F58     1.358   .     S
C2     C47     1.416   .     A
C3     C23     1.404   .     A
C3     C48     1.407   .     A
C3     C772    1.515   1_554 S
C4     C34     1.395   .     A
C4     C771    1.515   .     S
C5     O124    1.288   .     A
C5     O126    1.296   .     A
C5     C7      1.448   .     S
C6     O127    1.293   .     A
C6     C8      1.451   .     S
C6     O125    1.293   .     A
C7     C264    1.358   1_455 S
C7     O384    1.387   1_455 S
C8     C135    1.358   .     S
C8     O240    1.391   .     S
C9     C20     1.415   .     A
C9     C11     1.392   .     A
C9     O113    1.384   .     S
C10    O114    1.383   .     S
C10    C21     1.410   .     A
C10    C13     1.394   .     A
C11    C14     1.395   .     A
C11    F51     1.351   .     S
C12    O121    1.297   .     A
C12    C15     1.478   .     S
C12    O123    1.306   .     A
C13    F52     1.359   .     S
C13    C15     1.411   .     A
C14    C16     1.401   .     A
C15    C17     1.405   .     A
C16    F53     1.356   .     S
C16    C18     1.393   .     A
C17    C19     1.392   .     A
C17    F54     1.350   .     S
C18    C20     1.412   .     A
C18    O115    1.382   .     S
C19    O116    1.384   .     S
C19    C21     1.410   .     A
C20    C405    1.474   1_545 S
C21    C404    1.474   .     S
C22    H59     1.114   .     S
C22    O128    1.411   .     S
C22    C24     1.521   .     S
C22    H198    1.112   .     S
C23    C44     1.420   .     A
C23    F55     1.358   .     S
C24    H92     1.110   .     S
C24    H81     1.110   .     S
C24    H103    1.111   .     S
C25    H105    1.107   .     S
C25    O112    1.413   .     S
C25    C26     1.524   .     S
C25    H362    1.110   1_455 S
C26    H108    1.108   .     S
C26    H107    1.105   .     S
C26    H60     1.105   .     S
C27    H62     1.111   .     S
C27    O113    1.407   .     S
C27    C412    1.521   1_545 S
C27    H445    1.109   1_545 S
C28    H65     1.111   .     S
C28    C411    1.521   .     S
C28    H447    1.110   .     S
C28    H320    1.109   1_455 S
C29    O114    1.410   .     S
C29    H67     1.116   .     S
C29    C30     1.520   .     S
C29    H450    1.111   .     S
C30    H69     1.110   .     S
C30    H68     1.111   .     S
C30    H455    1.110   .     S
C31    H73     1.112   .     S
C31    O115    1.408   .     S
C31    H72     1.112   .     S
C31    C416    1.520   1_545 S
C32    H75     1.107   .     S
C32    H74     1.110   .     S
C32    H76     1.111   .     S
C32    C415    1.520   .     S
C33    H78     1.112   .     S
C33    O116    1.410   .     S
C33    C419    1.520   .     S
C33    H461    1.112   .     S
C34    F56     1.357   .     S
C34    C45     1.431   .     A
C35    H80     1.111   .     S
C35    H82     1.110   .     S
C35    C417    1.520   1_545 S
C35    H463    1.111   1_545 S
C36    C37     1.522   .     S
C36    H83     1.109   .     S
C36    O117    1.417   .     S
C36    H84     1.116   .     S
C37    H85     1.110   .     S
C37    H86     1.110   .     S
C37    H87     1.111   .     S
C38    C39     1.528   .     S
C38    H88     1.107   .     S
C38    H89     1.111   .     S
C38    O118    1.426   .     S
C39    H91     1.110   .     S
C39    H93     1.107   .     S
C39    H90     1.107   .     S
C40    H95     1.117   .     S
C40    H94     1.110   .     S
C40    O119    1.420   .     S
C40    C41     1.525   .     S
C41    H96     1.109   .     S
C41    H97     1.110   .     S
C41    H98     1.109   .     S
C42    H100    1.113   .     S
C42    C43     1.522   .     S
C42    H99     1.107   .     S
C42    O120    1.409   .     S
C43    H104    1.111   .     S
C43    H101    1.109   .     S
C43    H102    1.110   .     S
C44    N109    1.376   .     A
C44    O117    1.384   .     S
C45    O118    1.393   .     S
C45    N110    1.391   .     A
C46    C48     1.414   .     A
C46    O119    1.381   .     S
C46    N109    1.373   .     A
C47    O120    1.374   .     S
C47    N110    1.382   .     A
C48    F57     1.357   .     S
Cu49   O123    1.955   .     S
Cu49   O111    1.954   .     S
Cu49   O127    1.989   .     S
Cu49   O124    1.990   .     S
Cu49   Cu50    2.689   .     S
Cu49   N110    2.020   .     S
Cu50   O122    1.955   .     S
Cu50   O126    1.989   .     S
Cu50   O121    1.954   .     S
Cu50   N109    2.020   .     S
Cu50   O125    1.990   .     S
H61    C411    1.109   .     S
H63    C412    1.110   1_545 S
H64    C156    1.109   .     S
H66    C413    1.111   1_545 S
H70    C278    1.112   1_455 S
H71    C414    1.110   1_545 S
H77    C417    1.112   1_545 S
H79    C419    1.111   .     S
H106   C153    1.110   .     S
O112   C264    1.391   1_455 S
O128   C135    1.387   .     S
C129   O239    1.304   .     A
C129   C142    1.458   .     S
C129   O250    1.287   .     A
C130   C132    1.397   .     A
C130   F186    1.358   .     S
C130   C175    1.416   .     A
C131   C151    1.404   .     A
C131   C176    1.407   .     A
C131   C900    1.515   1_554 S
C132   C162    1.395   .     A
C132   C899    1.515   .     S
C133   O252    1.288   .     A
C133   O254    1.296   .     A
C133   C135    1.448   .     S
C134   O255    1.293   .     A
C134   C136    1.451   .     S
C134   O253    1.293   .     A
C136   C263    1.358   .     S
C136   O368    1.391   .     S
C137   C148    1.415   .     A
C137   C139    1.392   .     A
C137   O241    1.384   .     S
C138   O242    1.383   .     S
C138   C149    1.410   .     A
C138   C141    1.394   .     A
C139   C142    1.395   .     A
C139   F179    1.351   .     S
C140   O249    1.297   .     A
C140   C143    1.478   .     S
C140   O251    1.306   .     A
C141   F180    1.359   .     S
C141   C143    1.411   .     A
C142   C144    1.401   .     A
C143   C145    1.405   .     A
C144   F181    1.356   .     S
C144   C146    1.393   .     A
C145   C147    1.392   .     A
C145   F182    1.350   .     S
C146   C148    1.412   .     A
C146   O243    1.382   .     S
C147   O244    1.384   .     S
C147   C149    1.410   .     A
C148   C533    1.474   1_545 S
C149   C532    1.474   .     S
C150   H187    1.114   .     S
C150   O256    1.411   .     S
C150   C152    1.521   .     S
C150   H326    1.112   .     S
C151   C172    1.420   .     A
C151   F183    1.358   .     S
C152   H220    1.110   .     S
C152   H209    1.110   .     S
C152   H231    1.111   .     S
C153   H233    1.107   .     S
C153   O240    1.413   .     S
C153   C154    1.524   .     S
C154   H236    1.108   .     S
C154   H235    1.105   .     S
C154   H188    1.105   .     S
C155   H190    1.111   .     S
C155   O241    1.407   .     S
C155   C540    1.521   1_545 S
C155   H573    1.109   1_545 S
C156   H193    1.111   .     S
C156   C539    1.521   .     S
C156   H575    1.110   .     S
C157   O242    1.410   .     S
C157   H195    1.116   .     S
C157   C158    1.520   .     S
C157   H578    1.111   .     S
C158   H197    1.110   .     S
C158   H196    1.111   .     S
C158   H583    1.110   .     S
C159   H201    1.112   .     S
C159   O243    1.408   .     S
C159   H200    1.112   .     S
C159   C544    1.520   1_545 S
C160   H203    1.107   .     S
C160   H202    1.110   .     S
C160   H204    1.111   .     S
C160   C543    1.520   .     S
C161   H206    1.112   .     S
C161   O244    1.410   .     S
C161   C547    1.520   .     S
C161   H589    1.112   .     S
C162   F184    1.357   .     S
C162   C173    1.431   .     A
C163   H208    1.111   .     S
C163   H210    1.110   .     S
C163   C545    1.520   1_545 S
C163   H591    1.111   1_545 S
C164   C165    1.522   .     S
C164   H211    1.109   .     S
C164   O245    1.417   .     S
C164   H212    1.116   .     S
C165   H213    1.110   .     S
C165   H214    1.110   .     S
C165   H215    1.111   .     S
C166   C167    1.528   .     S
C166   H216    1.107   .     S
C166   H217    1.111   .     S
C166   O246    1.426   .     S
C167   H219    1.110   .     S
C167   H221    1.107   .     S
C167   H218    1.107   .     S
C168   H223    1.117   .     S
C168   H222    1.110   .     S
C168   O247    1.420   .     S
C168   C169    1.525   .     S
C169   H224    1.109   .     S
C169   H225    1.110   .     S
C169   H226    1.109   .     S
C170   H228    1.113   .     S
C170   C171    1.522   .     S
C170   H227    1.107   .     S
C170   O248    1.409   .     S
C171   H232    1.111   .     S
C171   H229    1.109   .     S
C171   H230    1.110   .     S
C172   N237    1.376   .     A
C172   O245    1.384   .     S
C173   O246    1.393   .     S
C173   N238    1.391   .     A
C174   C176    1.414   .     A
C174   O247    1.381   .     S
C174   N237    1.373   .     A
C175   O248    1.374   .     S
C175   N238    1.382   .     A
C176   F185    1.357   .     S
Cu177  O251    1.955   .     S
Cu177  O239    1.954   .     S
Cu177  O255    1.989   .     S
Cu177  O252    1.990   .     S
Cu177  Cu178   2.689   .     S
Cu177  N238    2.020   .     S
Cu178  O250    1.955   .     S
Cu178  O254    1.989   .     S
Cu178  O249    1.954   .     S
Cu178  N237    2.020   .     S
Cu178  O253    1.990   .     S
H189   C539    1.109   .     S
H191   C540    1.110   1_545 S
H192   C284    1.109   .     S
H194   C541    1.111   1_545 S
H199   C542    1.110   1_545 S
H205   C545    1.112   1_545 S
H207   C547    1.111   .     S
H234   C281    1.110   .     S
O256   C263    1.387   .     S
C257   O367    1.304   .     A
C257   C270    1.458   .     S
C257   O378    1.287   .     A
C258   C260    1.397   .     A
C258   F314    1.358   .     S
C258   C303    1.416   .     A
C259   C279    1.404   .     A
C259   C304    1.407   .     A
C259   C1028   1.515   1_554 S
C260   C290    1.395   .     A
C260   C1027   1.515   .     S
C261   O380    1.288   .     A
C261   O382    1.296   .     A
C261   C263    1.448   .     S
C262   O383    1.293   .     A
C262   C264    1.451   .     S
C262   O381    1.293   .     A
C264   C7      1.358   1_655 S
C264   O112    1.391   1_655 S
C265   C276    1.415   .     A
C265   C267    1.392   .     A
C265   O369    1.384   .     S
C266   O370    1.383   .     S
C266   C277    1.410   .     A
C266   C269    1.394   .     A
C267   C270    1.395   .     A
C267   F307    1.351   .     S
C268   O377    1.297   .     A
C268   C271    1.478   .     S
C268   O379    1.306   .     A
C269   F308    1.359   .     S
C269   C271    1.411   .     A
C270   C272    1.401   .     A
C271   C273    1.405   .     A
C272   F309    1.356   .     S
C272   C274    1.393   .     A
C273   C275    1.392   .     A
C273   F310    1.350   .     S
C274   C276    1.412   .     A
C274   O371    1.382   .     S
C275   O372    1.384   .     S
C275   C277    1.410   .     A
C276   C661    1.474   1_545 S
C277   C660    1.474   .     S
C278   H315    1.114   .     S
C278   O384    1.411   .     S
C278   C280    1.521   .     S
C278   H70     1.112   1_655 S
C279   C300    1.420   .     A
C279   F311    1.358   .     S
C280   H348    1.110   .     S
C280   H337    1.110   .     S
C280   H359    1.111   .     S
C281   H361    1.107   .     S
C281   O368    1.413   .     S
C281   C282    1.524   .     S
C282   H364    1.108   .     S
C282   H363    1.105   .     S
C282   H316    1.105   .     S
C283   H318    1.111   .     S
C283   O369    1.407   .     S
C283   C668    1.521   1_545 S
C283   H701    1.109   1_545 S
C284   H321    1.111   .     S
C284   C667    1.521   .     S
C284   H703    1.110   .     S
C285   O370    1.410   .     S
C285   H323    1.116   .     S
C285   C286    1.520   .     S
C285   H706    1.111   .     S
C286   H325    1.110   .     S
C286   H324    1.111   .     S
C286   H711    1.110   .     S
C287   H329    1.112   .     S
C287   O371    1.408   .     S
C287   H328    1.112   .     S
C287   C672    1.520   1_545 S
C288   H331    1.107   .     S
C288   H330    1.110   .     S
C288   H332    1.111   .     S
C288   C671    1.520   .     S
C289   H334    1.112   .     S
C289   O372    1.410   .     S
C289   C675    1.520   .     S
C289   H717    1.112   .     S
C290   F312    1.357   .     S
C290   C301    1.431   .     A
C291   H336    1.111   .     S
C291   H338    1.110   .     S
C291   C673    1.520   1_545 S
C291   H719    1.111   1_545 S
C292   C293    1.522   .     S
C292   H339    1.109   .     S
C292   O373    1.417   .     S
C292   H340    1.116   .     S
C293   H341    1.110   .     S
C293   H342    1.110   .     S
C293   H343    1.111   .     S
C294   C295    1.528   .     S
C294   H344    1.107   .     S
C294   H345    1.111   .     S
C294   O374    1.426   .     S
C295   H347    1.110   .     S
C295   H349    1.107   .     S
C295   H346    1.107   .     S
C296   H351    1.117   .     S
C296   H350    1.110   .     S
C296   O375    1.420   .     S
C296   C297    1.525   .     S
C297   H352    1.109   .     S
C297   H353    1.110   .     S
C297   H354    1.109   .     S
C298   H356    1.113   .     S
C298   C299    1.522   .     S
C298   H355    1.107   .     S
C298   O376    1.409   .     S
C299   H360    1.111   .     S
C299   H357    1.109   .     S
C299   H358    1.110   .     S
C300   N365    1.376   .     A
C300   O373    1.384   .     S
C301   O374    1.393   .     S
C301   N366    1.391   .     A
C302   C304    1.414   .     A
C302   O375    1.381   .     S
C302   N365    1.373   .     A
C303   O376    1.374   .     S
C303   N366    1.382   .     A
C304   F313    1.357   .     S
Cu305  O379    1.955   .     S
Cu305  O367    1.954   .     S
Cu305  O383    1.989   .     S
Cu305  O380    1.990   .     S
Cu305  Cu306   2.689   .     S
Cu305  N366    2.020   .     S
Cu306  O378    1.955   .     S
Cu306  O382    1.989   .     S
Cu306  O377    1.954   .     S
Cu306  N365    2.020   .     S
Cu306  O381    1.990   .     S
H317   C667    1.109   .     S
H319   C668    1.110   1_545 S
H320   C28     1.109   1_655 S
H322   C669    1.111   1_545 S
H327   C670    1.110   1_545 S
H333   C673    1.112   1_545 S
H335   C675    1.111   .     S
H362   C25     1.110   1_655 S
O384   C7      1.387   1_655 S
C385   O495    1.304   .     A
C385   C398    1.458   .     S
C385   O506    1.287   .     A
C386   C388    1.397   .     A
C386   F442    1.358   .     S
C386   C431    1.416   .     A
C387   C407    1.404   .     A
C387   C432    1.407   .     A
C387   C1156   1.515   1_554 S
C388   C418    1.395   .     A
C388   C1155   1.515   .     S
C389   O508    1.288   .     A
C389   O510    1.296   .     A
C389   C391    1.448   .     S
C390   O511    1.293   .     A
C390   C392    1.451   .     S
C390   O509    1.293   .     A
C391   C648    1.358   1_455 S
C391   O768    1.387   1_455 S
C392   C519    1.358   .     S
C392   O624    1.391   .     S
C393   C404    1.415   .     A
C393   C395    1.392   .     A
C393   O497    1.384   .     S
C394   O498    1.383   .     S
C394   C405    1.410   .     A
C394   C397    1.394   .     A
C395   C398    1.395   .     A
C395   F435    1.351   .     S
C396   O505    1.297   .     A
C396   C399    1.478   .     S
C396   O507    1.306   .     A
C397   F436    1.359   .     S
C397   C399    1.411   .     A
C398   C400    1.401   .     A
C399   C401    1.405   .     A
C400   F437    1.356   .     S
C400   C402    1.393   .     A
C401   C403    1.392   .     A
C401   F438    1.350   .     S
C402   C404    1.412   .     A
C402   O499    1.382   .     S
C403   O500    1.384   .     S
C403   C405    1.410   .     A
C405   C20     1.474   1_565 S
C406   H443    1.114   .     S
C406   O512    1.411   .     S
C406   C408    1.521   .     S
C406   H582    1.112   .     S
C407   C428    1.420   .     A
C407   F439    1.358   .     S
C408   H476    1.110   .     S
C408   H465    1.110   .     S
C408   H487    1.111   .     S
C409   H489    1.107   .     S
C409   O496    1.413   .     S
C409   C410    1.524   .     S
C409   H746    1.110   1_455 S
C410   H492    1.108   .     S
C410   H491    1.105   .     S
C410   H444    1.105   .     S
C411   H446    1.111   .     S
C411   O497    1.407   .     S
C412   H449    1.111   .     S
C412   C27     1.521   1_565 S
C412   H63     1.110   1_565 S
C412   H704    1.109   1_455 S
C413   O498    1.410   .     S
C413   H451    1.116   .     S
C413   C414    1.520   .     S
C413   H66     1.111   1_565 S
C414   H453    1.110   .     S
C414   H452    1.111   .     S
C414   H71     1.110   1_565 S
C415   H457    1.112   .     S
C415   O499    1.408   .     S
C415   H456    1.112   .     S
C416   H459    1.107   .     S
C416   H458    1.110   .     S
C416   H460    1.111   .     S
C416   C31     1.520   1_565 S
C417   H462    1.112   .     S
C417   O500    1.410   .     S
C417   C35     1.520   1_565 S
C417   H77     1.112   1_565 S
C418   F440    1.357   .     S
C418   C429    1.431   .     A
C419   H464    1.111   .     S
C419   H466    1.110   .     S
C420   C421    1.522   .     S
C420   H467    1.109   .     S
C420   O501    1.417   .     S
C420   H468    1.116   .     S
C421   H469    1.110   .     S
C421   H470    1.110   .     S
C421   H471    1.111   .     S
C422   C423    1.528   .     S
C422   H472    1.107   .     S
C422   H473    1.111   .     S
C422   O502    1.426   .     S
C423   H475    1.110   .     S
C423   H477    1.107   .     S
C423   H474    1.107   .     S
C424   H479    1.117   .     S
C424   H478    1.110   .     S
C424   O503    1.420   .     S
C424   C425    1.525   .     S
C425   H480    1.109   .     S
C425   H481    1.110   .     S
C425   H482    1.109   .     S
C426   H484    1.113   .     S
C426   C427    1.522   .     S
C426   H483    1.107   .     S
C426   O504    1.409   .     S
C427   H488    1.111   .     S
C427   H485    1.109   .     S
C427   H486    1.110   .     S
C428   N493    1.376   .     A
C428   O501    1.384   .     S
C429   O502    1.393   .     S
C429   N494    1.391   .     A
C430   C432    1.414   .     A
C430   O503    1.381   .     S
C430   N493    1.373   .     A
C431   O504    1.374   .     S
C431   N494    1.382   .     A
C432   F441    1.357   .     S
Cu433  O507    1.955   .     S
Cu433  O495    1.954   .     S
Cu433  O511    1.989   .     S
Cu433  O508    1.990   .     S
Cu433  Cu434   2.689   .     S
Cu433  N494    2.020   .     S
Cu434  O506    1.955   .     S
Cu434  O510    1.989   .     S
Cu434  O505    1.954   .     S
Cu434  N493    2.020   .     S
Cu434  O509    1.990   .     S
H445   C27     1.109   1_565 S
H448   C540    1.109   .     S
H454   C662    1.112   1_455 S
H463   C35     1.111   1_565 S
H490   C537    1.110   .     S
O496   C648    1.391   1_455 S
O512   C519    1.387   .     S
C513   O623    1.304   .     A
C513   C526    1.458   .     S
C513   O634    1.287   .     A
C514   C516    1.397   .     A
C514   F570    1.358   .     S
C514   C559    1.416   .     A
C515   C535    1.404   .     A
C515   C560    1.407   .     A
C515   C1284   1.515   1_554 S
C516   C546    1.395   .     A
C516   C1283   1.515   .     S
C517   O636    1.288   .     A
C517   O638    1.296   .     A
C517   C519    1.448   .     S
C518   O639    1.293   .     A
C518   C520    1.451   .     S
C518   O637    1.293   .     A
C520   C647    1.358   .     S
C520   O752    1.391   .     S
C521   C532    1.415   .     A
C521   C523    1.392   .     A
C521   O625    1.384   .     S
C522   O626    1.383   .     S
C522   C533    1.410   .     A
C522   C525    1.394   .     A
C523   C526    1.395   .     A
C523   F563    1.351   .     S
C524   O633    1.297   .     A
C524   C527    1.478   .     S
C524   O635    1.306   .     A
C525   F564    1.359   .     S
C525   C527    1.411   .     A
C526   C528    1.401   .     A
C527   C529    1.405   .     A
C528   F565    1.356   .     S
C528   C530    1.393   .     A
C529   C531    1.392   .     A
C529   F566    1.350   .     S
C530   C532    1.412   .     A
C530   O627    1.382   .     S
C531   O628    1.384   .     S
C531   C533    1.410   .     A
C533   C148    1.474   1_565 S
C534   H571    1.114   .     S
C534   O640    1.411   .     S
C534   C536    1.521   .     S
C534   H710    1.112   .     S
C535   C556    1.420   .     A
C535   F567    1.358   .     S
C536   H604    1.110   .     S
C536   H593    1.110   .     S
C536   H615    1.111   .     S
C537   H617    1.107   .     S
C537   O624    1.413   .     S
C537   C538    1.524   .     S
C538   H620    1.108   .     S
C538   H619    1.105   .     S
C538   H572    1.105   .     S
C539   H574    1.111   .     S
C539   O625    1.407   .     S
C540   H577    1.111   .     S
C540   C155    1.521   1_565 S
C540   H191    1.110   1_565 S
C541   O626    1.410   .     S
C541   H579    1.116   .     S
C541   C542    1.520   .     S
C541   H194    1.111   1_565 S
C542   H581    1.110   .     S
C542   H580    1.111   .     S
C542   H199    1.110   1_565 S
C543   H585    1.112   .     S
C543   O627    1.408   .     S
C543   H584    1.112   .     S
C544   H587    1.107   .     S
C544   H586    1.110   .     S
C544   H588    1.111   .     S
C544   C159    1.520   1_565 S
C545   H590    1.112   .     S
C545   O628    1.410   .     S
C545   C163    1.520   1_565 S
C545   H205    1.112   1_565 S
C546   F568    1.357   .     S
C546   C557    1.431   .     A
C547   H592    1.111   .     S
C547   H594    1.110   .     S
C548   C549    1.522   .     S
C548   H595    1.109   .     S
C548   O629    1.417   .     S
C548   H596    1.116   .     S
C549   H597    1.110   .     S
C549   H598    1.110   .     S
C549   H599    1.111   .     S
C550   C551    1.528   .     S
C550   H600    1.107   .     S
C550   H601    1.111   .     S
C550   O630    1.426   .     S
C551   H603    1.110   .     S
C551   H605    1.107   .     S
C551   H602    1.107   .     S
C552   H607    1.117   .     S
C552   H606    1.110   .     S
C552   O631    1.420   .     S
C552   C553    1.525   .     S
C553   H608    1.109   .     S
C553   H609    1.110   .     S
C553   H610    1.109   .     S
C554   H612    1.113   .     S
C554   C555    1.522   .     S
C554   H611    1.107   .     S
C554   O632    1.409   .     S
C555   H616    1.111   .     S
C555   H613    1.109   .     S
C555   H614    1.110   .     S
C556   N621    1.376   .     A
C556   O629    1.384   .     S
C557   O630    1.393   .     S
C557   N622    1.391   .     A
C558   C560    1.414   .     A
C558   O631    1.381   .     S
C558   N621    1.373   .     A
C559   O632    1.374   .     S
C559   N622    1.382   .     A
C560   F569    1.357   .     S
Cu561  O635    1.955   .     S
Cu561  O623    1.954   .     S
Cu561  O639    1.989   .     S
Cu561  O636    1.990   .     S
Cu561  Cu562   2.689   .     S
Cu561  N622    2.020   .     S
Cu562  O634    1.955   .     S
Cu562  O638    1.989   .     S
Cu562  O633    1.954   .     S
Cu562  N621    2.020   .     S
Cu562  O637    1.990   .     S
H573   C155    1.109   1_565 S
H576   C668    1.109   .     S
H591   C163    1.111   1_565 S
H618   C665    1.110   .     S
O640   C647    1.387   .     S
C641   O751    1.304   .     A
C641   C654    1.458   .     S
C641   O762    1.287   .     A
C642   C644    1.397   .     A
C642   F698    1.358   .     S
C642   C687    1.416   .     A
C643   C663    1.404   .     A
C643   C688    1.407   .     A
C643   C1412   1.515   1_554 S
C644   C674    1.395   .     A
C644   C1411   1.515   .     S
C645   O764    1.288   .     A
C645   O766    1.296   .     A
C645   C647    1.448   .     S
C646   O767    1.293   .     A
C646   C648    1.451   .     S
C646   O765    1.293   .     A
C648   C391    1.358   1_655 S
C648   O496    1.391   1_655 S
C649   C660    1.415   .     A
C649   C651    1.392   .     A
C649   O753    1.384   .     S
C650   O754    1.383   .     S
C650   C661    1.410   .     A
C650   C653    1.394   .     A
C651   C654    1.395   .     A
C651   F691    1.351   .     S
C652   O761    1.297   .     A
C652   C655    1.478   .     S
C652   O763    1.306   .     A
C653   F692    1.359   .     S
C653   C655    1.411   .     A
C654   C656    1.401   .     A
C655   C657    1.405   .     A
C656   F693    1.356   .     S
C656   C658    1.393   .     A
C657   C659    1.392   .     A
C657   F694    1.350   .     S
C658   C660    1.412   .     A
C658   O755    1.382   .     S
C659   O756    1.384   .     S
C659   C661    1.410   .     A
C661   C276    1.474   1_565 S
C662   H699    1.114   .     S
C662   O768    1.411   .     S
C662   C664    1.521   .     S
C662   H454    1.112   1_655 S
C663   C684    1.420   .     A
C663   F695    1.358   .     S
C664   H732    1.110   .     S
C664   H721    1.110   .     S
C664   H743    1.111   .     S
C665   H745    1.107   .     S
C665   O752    1.413   .     S
C665   C666    1.524   .     S
C666   H748    1.108   .     S
C666   H747    1.105   .     S
C666   H700    1.105   .     S
C667   H702    1.111   .     S
C667   O753    1.407   .     S
C668   H705    1.111   .     S
C668   C283    1.521   1_565 S
C668   H319    1.110   1_565 S
C669   O754    1.410   .     S
C669   H707    1.116   .     S
C669   C670    1.520   .     S
C669   H322    1.111   1_565 S
C670   H709    1.110   .     S
C670   H708    1.111   .     S
C670   H327    1.110   1_565 S
C671   H713    1.112   .     S
C671   O755    1.408   .     S
C671   H712    1.112   .     S
C672   H715    1.107   .     S
C672   H714    1.110   .     S
C672   H716    1.111   .     S
C672   C287    1.520   1_565 S
C673   H718    1.112   .     S
C673   O756    1.410   .     S
C673   C291    1.520   1_565 S
C673   H333    1.112   1_565 S
C674   F696    1.357   .     S
C674   C685    1.431   .     A
C675   H720    1.111   .     S
C675   H722    1.110   .     S
C676   C677    1.522   .     S
C676   H723    1.109   .     S
C676   O757    1.417   .     S
C676   H724    1.116   .     S
C677   H725    1.110   .     S
C677   H726    1.110   .     S
C677   H727    1.111   .     S
C678   C679    1.528   .     S
C678   H728    1.107   .     S
C678   H729    1.111   .     S
C678   O758    1.426   .     S
C679   H731    1.110   .     S
C679   H733    1.107   .     S
C679   H730    1.107   .     S
C680   H735    1.117   .     S
C680   H734    1.110   .     S
C680   O759    1.420   .     S
C680   C681    1.525   .     S
C681   H736    1.109   .     S
C681   H737    1.110   .     S
C681   H738    1.109   .     S
C682   H740    1.113   .     S
C682   C683    1.522   .     S
C682   H739    1.107   .     S
C682   O760    1.409   .     S
C683   H744    1.111   .     S
C683   H741    1.109   .     S
C683   H742    1.110   .     S
C684   N749    1.376   .     A
C684   O757    1.384   .     S
C685   O758    1.393   .     S
C685   N750    1.391   .     A
C686   C688    1.414   .     A
C686   O759    1.381   .     S
C686   N749    1.373   .     A
C687   O760    1.374   .     S
C687   N750    1.382   .     A
C688   F697    1.357   .     S
Cu689  O763    1.955   .     S
Cu689  O751    1.954   .     S
Cu689  O767    1.989   .     S
Cu689  O764    1.990   .     S
Cu689  Cu690   2.689   .     S
Cu689  N750    2.020   .     S
Cu690  O762    1.955   .     S
Cu690  O766    1.989   .     S
Cu690  O761    1.954   .     S
Cu690  N749    2.020   .     S
Cu690  O765    1.990   .     S
H701   C283    1.109   1_565 S
H704   C412    1.109   1_655 S
H719   C291    1.111   1_565 S
H746   C409    1.110   1_655 S
O768   C391    1.387   1_655 S
C769   O879    1.304   .     A
C769   C782    1.458   .     S
C769   O890    1.287   .     A
C770   C772    1.397   .     A
C770   F826    1.358   .     S
C770   C815    1.416   .     A
C771   C791    1.404   .     A
C771   C816    1.407   .     A
C772   C802    1.395   .     A
C772   C3      1.515   1_556 S
C773   O892    1.288   .     A
C773   O894    1.296   .     A
C773   C775    1.448   .     S
C774   O895    1.293   .     A
C774   C776    1.451   .     S
C774   O893    1.293   .     A
C775   C1032   1.358   1_455 S
C775   O1152   1.387   1_455 S
C776   C903    1.358   .     S
C776   O1008   1.391   .     S
C777   C788    1.415   .     A
C777   C779    1.392   .     A
C777   O881    1.384   .     S
C778   O882    1.383   .     S
C778   C789    1.410   .     A
C778   C781    1.394   .     A
C779   C782    1.395   .     A
C779   F819    1.351   .     S
C780   O889    1.297   .     A
C780   C783    1.478   .     S
C780   O891    1.306   .     A
C781   F820    1.359   .     S
C781   C783    1.411   .     A
C782   C784    1.401   .     A
C783   C785    1.405   .     A
C784   F821    1.356   .     S
C784   C786    1.393   .     A
C785   C787    1.392   .     A
C785   F822    1.350   .     S
C786   C788    1.412   .     A
C786   O883    1.382   .     S
C787   O884    1.384   .     S
C787   C789    1.410   .     A
C788   C1173   1.474   1_545 S
C789   C1172   1.474   .     S
C790   H827    1.114   .     S
C790   O896    1.411   .     S
C790   C792    1.521   .     S
C790   H966    1.112   .     S
C791   C812    1.420   .     A
C791   F823    1.358   .     S
C792   H860    1.110   .     S
C792   H849    1.110   .     S
C792   H871    1.111   .     S
C793   H873    1.107   .     S
C793   O880    1.413   .     S
C793   C794    1.524   .     S
C793   H1130   1.110   1_455 S
C794   H876    1.108   .     S
C794   H875    1.105   .     S
C794   H828    1.105   .     S
C795   H830    1.111   .     S
C795   O881    1.407   .     S
C795   C1180   1.521   1_545 S
C795   H1213   1.109   1_545 S
C796   H833    1.111   .     S
C796   C1179   1.521   .     S
C796   H1215   1.110   .     S
C796   H1088   1.109   1_455 S
C797   O882    1.410   .     S
C797   H835    1.116   .     S
C797   C798    1.520   .     S
C797   H1218   1.111   .     S
C798   H837    1.110   .     S
C798   H836    1.111   .     S
C798   H1223   1.110   .     S
C799   H841    1.112   .     S
C799   O883    1.408   .     S
C799   H840    1.112   .     S
C799   C1184   1.520   1_545 S
C800   H843    1.107   .     S
C800   H842    1.110   .     S
C800   H844    1.111   .     S
C800   C1183   1.520   .     S
C801   H846    1.112   .     S
C801   O884    1.410   .     S
C801   C1187   1.520   .     S
C801   H1229   1.112   .     S
C802   F824    1.357   .     S
C802   C813    1.431   .     A
C803   H848    1.111   .     S
C803   H850    1.110   .     S
C803   C1185   1.520   1_545 S
C803   H1231   1.111   1_545 S
C804   C805    1.522   .     S
C804   H851    1.109   .     S
C804   O885    1.417   .     S
C804   H852    1.116   .     S
C805   H853    1.110   .     S
C805   H854    1.110   .     S
C805   H855    1.111   .     S
C806   C807    1.528   .     S
C806   H856    1.107   .     S
C806   H857    1.111   .     S
C806   O886    1.426   .     S
C807   H859    1.110   .     S
C807   H861    1.107   .     S
C807   H858    1.107   .     S
C808   H863    1.117   .     S
C808   H862    1.110   .     S
C808   O887    1.420   .     S
C808   C809    1.525   .     S
C809   H864    1.109   .     S
C809   H865    1.110   .     S
C809   H866    1.109   .     S
C810   H868    1.113   .     S
C810   C811    1.522   .     S
C810   H867    1.107   .     S
C810   O888    1.409   .     S
C811   H872    1.111   .     S
C811   H869    1.109   .     S
C811   H870    1.110   .     S
C812   N877    1.376   .     A
C812   O885    1.384   .     S
C813   O886    1.393   .     S
C813   N878    1.391   .     A
C814   C816    1.414   .     A
C814   O887    1.381   .     S
C814   N877    1.373   .     A
C815   O888    1.374   .     S
C815   N878    1.382   .     A
C816   F825    1.357   .     S
Cu817  O891    1.955   .     S
Cu817  O879    1.954   .     S
Cu817  O895    1.989   .     S
Cu817  O892    1.990   .     S
Cu817  Cu818   2.689   .     S
Cu817  N878    2.020   .     S
Cu818  O890    1.955   .     S
Cu818  O894    1.989   .     S
Cu818  O889    1.954   .     S
Cu818  N877    2.020   .     S
Cu818  O893    1.990   .     S
H829   C1179   1.109   .     S
H831   C1180   1.110   1_545 S
H832   C924    1.109   .     S
H834   C1181   1.111   1_545 S
H838   C1046   1.112   1_455 S
H839   C1182   1.110   1_545 S
H845   C1185   1.112   1_545 S
H847   C1187   1.111   .     S
H874   C921    1.110   .     S
O880   C1032   1.391   1_455 S
O896   C903    1.387   .     S
C897   O1007   1.304   .     A
C897   C910    1.458   .     S
C897   O1018   1.287   .     A
C898   C900    1.397   .     A
C898   F954    1.358   .     S
C898   C943    1.416   .     A
C899   C919    1.404   .     A
C899   C944    1.407   .     A
C900   C930    1.395   .     A
C900   C131    1.515   1_556 S
C901   O1020   1.288   .     A
C901   O1022   1.296   .     A
C901   C903    1.448   .     S
C902   O1023   1.293   .     A
C902   C904    1.451   .     S
C902   O1021   1.293   .     A
C904   C1031   1.358   .     S
C904   O1136   1.391   .     S
C905   C916    1.415   .     A
C905   C907    1.392   .     A
C905   O1009   1.384   .     S
C906   O1010   1.383   .     S
C906   C917    1.410   .     A
C906   C909    1.394   .     A
C907   C910    1.395   .     A
C907   F947    1.351   .     S
C908   O1017   1.297   .     A
C908   C911    1.478   .     S
C908   O1019   1.306   .     A
C909   F948    1.359   .     S
C909   C911    1.411   .     A
C910   C912    1.401   .     A
C911   C913    1.405   .     A
C912   F949    1.356   .     S
C912   C914    1.393   .     A
C913   C915    1.392   .     A
C913   F950    1.350   .     S
C914   C916    1.412   .     A
C914   O1011   1.382   .     S
C915   O1012   1.384   .     S
C915   C917    1.410   .     A
C916   C1301   1.474   1_545 S
C917   C1300   1.474   .     S
C918   H955    1.114   .     S
C918   O1024   1.411   .     S
C918   C920    1.521   .     S
C918   H1094   1.112   .     S
C919   C940    1.420   .     A
C919   F951    1.358   .     S
C920   H988    1.110   .     S
C920   H977    1.110   .     S
C920   H999    1.111   .     S
C921   H1001   1.107   .     S
C921   O1008   1.413   .     S
C921   C922    1.524   .     S
C922   H1004   1.108   .     S
C922   H1003   1.105   .     S
C922   H956    1.105   .     S
C923   H958    1.111   .     S
C923   O1009   1.407   .     S
C923   C1308   1.521   1_545 S
C923   H1341   1.109   1_545 S
C924   H961    1.111   .     S
C924   C1307   1.521   .     S
C924   H1343   1.110   .     S
C925   O1010   1.410   .     S
C925   H963    1.116   .     S
C925   C926    1.520   .     S
C925   H1346   1.111   .     S
C926   H965    1.110   .     S
C926   H964    1.111   .     S
C926   H1351   1.110   .     S
C927   H969    1.112   .     S
C927   O1011   1.408   .     S
C927   H968    1.112   .     S
C927   C1312   1.520   1_545 S
C928   H971    1.107   .     S
C928   H970    1.110   .     S
C928   H972    1.111   .     S
C928   C1311   1.520   .     S
C929   H974    1.112   .     S
C929   O1012   1.410   .     S
C929   C1315   1.520   .     S
C929   H1357   1.112   .     S
C930   F952    1.357   .     S
C930   C941    1.431   .     A
C931   H976    1.111   .     S
C931   H978    1.110   .     S
C931   C1313   1.520   1_545 S
C931   H1359   1.111   1_545 S
C932   C933    1.522   .     S
C932   H979    1.109   .     S
C932   O1013   1.417   .     S
C932   H980    1.116   .     S
C933   H981    1.110   .     S
C933   H982    1.110   .     S
C933   H983    1.111   .     S
C934   C935    1.528   .     S
C934   H984    1.107   .     S
C934   H985    1.111   .     S
C934   O1014   1.426   .     S
C935   H987    1.110   .     S
C935   H989    1.107   .     S
C935   H986    1.107   .     S
C936   H991    1.117   .     S
C936   H990    1.110   .     S
C936   O1015   1.420   .     S
C936   C937    1.525   .     S
C937   H992    1.109   .     S
C937   H993    1.110   .     S
C937   H994    1.109   .     S
C938   H996    1.113   .     S
C938   C939    1.522   .     S
C938   H995    1.107   .     S
C938   O1016   1.409   .     S
C939   H1000   1.111   .     S
C939   H997    1.109   .     S
C939   H998    1.110   .     S
C940   N1005   1.376   .     A
C940   O1013   1.384   .     S
C941   O1014   1.393   .     S
C941   N1006   1.391   .     A
C942   C944    1.414   .     A
C942   O1015   1.381   .     S
C942   N1005   1.373   .     A
C943   O1016   1.374   .     S
C943   N1006   1.382   .     A
C944   F953    1.357   .     S
Cu945  O1019   1.955   .     S
Cu945  O1007   1.954   .     S
Cu945  O1023   1.989   .     S
Cu945  O1020   1.990   .     S
Cu945  Cu946   2.689   .     S
Cu945  N1006   2.020   .     S
Cu946  O1018   1.955   .     S
Cu946  O1022   1.989   .     S
Cu946  O1017   1.954   .     S
Cu946  N1005   2.020   .     S
Cu946  O1021   1.990   .     S
H957   C1307   1.109   .     S
H959   C1308   1.110   1_545 S
H960   C1052   1.109   .     S
H962   C1309   1.111   1_545 S
H967   C1310   1.110   1_545 S
H973   C1313   1.112   1_545 S
H975   C1315   1.111   .     S
H1002  C1049   1.110   .     S
O1024  C1031   1.387   .     S
C1025  O1135   1.304   .     A
C1025  C1038   1.458   .     S
C1025  O1146   1.287   .     A
C1026  C1028   1.397   .     A
C1026  F1082   1.358   .     S
C1026  C1071   1.416   .     A
C1027  C1047   1.404   .     A
C1027  C1072   1.407   .     A
C1028  C1058   1.395   .     A
C1028  C259    1.515   1_556 S
C1029  O1148   1.288   .     A
C1029  O1150   1.296   .     A
C1029  C1031   1.448   .     S
C1030  O1151   1.293   .     A
C1030  C1032   1.451   .     S
C1030  O1149   1.293   .     A
C1032  C775    1.358   1_655 S
C1032  O880    1.391   1_655 S
C1033  C1044   1.415   .     A
C1033  C1035   1.392   .     A
C1033  O1137   1.384   .     S
C1034  O1138   1.383   .     S
C1034  C1045   1.410   .     A
C1034  C1037   1.394   .     A
C1035  C1038   1.395   .     A
C1035  F1075   1.351   .     S
C1036  O1145   1.297   .     A
C1036  C1039   1.478   .     S
C1036  O1147   1.306   .     A
C1037  F1076   1.359   .     S
C1037  C1039   1.411   .     A
C1038  C1040   1.401   .     A
C1039  C1041   1.405   .     A
C1040  F1077   1.356   .     S
C1040  C1042   1.393   .     A
C1041  C1043   1.392   .     A
C1041  F1078   1.350   .     S
C1042  C1044   1.412   .     A
C1042  O1139   1.382   .     S
C1043  O1140   1.384   .     S
C1043  C1045   1.410   .     A
C1044  C1429   1.474   1_545 S
C1045  C1428   1.474   .     S
C1046  H1083   1.114   .     S
C1046  O1152   1.411   .     S
C1046  C1048   1.521   .     S
C1046  H838    1.112   1_655 S
C1047  C1068   1.420   .     A
C1047  F1079   1.358   .     S
C1048  H1116   1.110   .     S
C1048  H1105   1.110   .     S
C1048  H1127   1.111   .     S
C1049  H1129   1.107   .     S
C1049  O1136   1.413   .     S
C1049  C1050   1.524   .     S
C1050  H1132   1.108   .     S
C1050  H1131   1.105   .     S
C1050  H1084   1.105   .     S
C1051  H1086   1.111   .     S
C1051  O1137   1.407   .     S
C1051  C1436   1.521   1_545 S
C1051  H1469   1.109   1_545 S
C1052  H1089   1.111   .     S
C1052  C1435   1.521   .     S
C1052  H1471   1.110   .     S
C1053  O1138   1.410   .     S
C1053  H1091   1.116   .     S
C1053  C1054   1.520   .     S
C1053  H1474   1.111   .     S
C1054  H1093   1.110   .     S
C1054  H1092   1.111   .     S
C1054  H1479   1.110   .     S
C1055  H1097   1.112   .     S
C1055  O1139   1.408   .     S
C1055  H1096   1.112   .     S
C1055  C1440   1.520   1_545 S
C1056  H1099   1.107   .     S
C1056  H1098   1.110   .     S
C1056  H1100   1.111   .     S
C1056  C1439   1.520   .     S
C1057  H1102   1.112   .     S
C1057  O1140   1.410   .     S
C1057  C1443   1.520   .     S
C1057  H1485   1.112   .     S
C1058  F1080   1.357   .     S
C1058  C1069   1.431   .     A
C1059  H1104   1.111   .     S
C1059  H1106   1.110   .     S
C1059  C1441   1.520   1_545 S
C1059  H1487   1.111   1_545 S
C1060  C1061   1.522   .     S
C1060  H1107   1.109   .     S
C1060  O1141   1.417   .     S
C1060  H1108   1.116   .     S
C1061  H1109   1.110   .     S
C1061  H1110   1.110   .     S
C1061  H1111   1.111   .     S
C1062  C1063   1.528   .     S
C1062  H1112   1.107   .     S
C1062  H1113   1.111   .     S
C1062  O1142   1.426   .     S
C1063  H1115   1.110   .     S
C1063  H1117   1.107   .     S
C1063  H1114   1.107   .     S
C1064  H1119   1.117   .     S
C1064  H1118   1.110   .     S
C1064  O1143   1.420   .     S
C1064  C1065   1.525   .     S
C1065  H1120   1.109   .     S
C1065  H1121   1.110   .     S
C1065  H1122   1.109   .     S
C1066  H1124   1.113   .     S
C1066  C1067   1.522   .     S
C1066  H1123   1.107   .     S
C1066  O1144   1.409   .     S
C1067  H1128   1.111   .     S
C1067  H1125   1.109   .     S
C1067  H1126   1.110   .     S
C1068  N1133   1.376   .     A
C1068  O1141   1.384   .     S
C1069  O1142   1.393   .     S
C1069  N1134   1.391   .     A
C1070  C1072   1.414   .     A
C1070  O1143   1.381   .     S
C1070  N1133   1.373   .     A
C1071  O1144   1.374   .     S
C1071  N1134   1.382   .     A
C1072  F1081   1.357   .     S
Cu1073 O1147   1.955   .     S
Cu1073 O1135   1.954   .     S
Cu1073 O1151   1.989   .     S
Cu1073 O1148   1.990   .     S
Cu1073 Cu1074  2.689   .     S
Cu1073 N1134   2.020   .     S
Cu1074 O1146   1.955   .     S
Cu1074 O1150   1.989   .     S
Cu1074 O1145   1.954   .     S
Cu1074 N1133   2.020   .     S
Cu1074 O1149   1.990   .     S
H1085  C1435   1.109   .     S
H1087  C1436   1.110   1_545 S
H1088  C796    1.109   1_655 S
H1090  C1437   1.111   1_545 S
H1095  C1438   1.110   1_545 S
H1101  C1441   1.112   1_545 S
H1103  C1443   1.111   .     S
H1130  C793    1.110   1_655 S
O1152  C775    1.387   1_655 S
C1153  O1263   1.304   .     A
C1153  C1166   1.458   .     S
C1153  O1274   1.287   .     A
C1154  C1156   1.397   .     A
C1154  F1210   1.358   .     S
C1154  C1199   1.416   .     A
C1155  C1175   1.404   .     A
C1155  C1200   1.407   .     A
C1156  C1186   1.395   .     A
C1156  C387    1.515   1_556 S
C1157  O1276   1.288   .     A
C1157  O1278   1.296   .     A
C1157  C1159   1.448   .     S
C1158  O1279   1.293   .     A
C1158  C1160   1.451   .     S
C1158  O1277   1.293   .     A
C1159  C1416   1.358   1_455 S
C1159  O1536   1.387   1_455 S
C1160  C1287   1.358   .     S
C1160  O1392   1.391   .     S
C1161  C1172   1.415   .     A
C1161  C1163   1.392   .     A
C1161  O1265   1.384   .     S
C1162  O1266   1.383   .     S
C1162  C1173   1.410   .     A
C1162  C1165   1.394   .     A
C1163  C1166   1.395   .     A
C1163  F1203   1.351   .     S
C1164  O1273   1.297   .     A
C1164  C1167   1.478   .     S
C1164  O1275   1.306   .     A
C1165  F1204   1.359   .     S
C1165  C1167   1.411   .     A
C1166  C1168   1.401   .     A
C1167  C1169   1.405   .     A
C1168  F1205   1.356   .     S
C1168  C1170   1.393   .     A
C1169  C1171   1.392   .     A
C1169  F1206   1.350   .     S
C1170  C1172   1.412   .     A
C1170  O1267   1.382   .     S
C1171  O1268   1.384   .     S
C1171  C1173   1.410   .     A
C1173  C788    1.474   1_565 S
C1174  H1211   1.114   .     S
C1174  O1280   1.411   .     S
C1174  C1176   1.521   .     S
C1174  H1350   1.112   .     S
C1175  C1196   1.420   .     A
C1175  F1207   1.358   .     S
C1176  H1244   1.110   .     S
C1176  H1233   1.110   .     S
C1176  H1255   1.111   .     S
C1177  H1257   1.107   .     S
C1177  O1264   1.413   .     S
C1177  C1178   1.524   .     S
C1177  H1514   1.110   1_455 S
C1178  H1260   1.108   .     S
C1178  H1259   1.105   .     S
C1178  H1212   1.105   .     S
C1179  H1214   1.111   .     S
C1179  O1265   1.407   .     S
C1180  H1217   1.111   .     S
C1180  C795    1.521   1_565 S
C1180  H831    1.110   1_565 S
C1180  H1472   1.109   1_455 S
C1181  O1266   1.410   .     S
C1181  H1219   1.116   .     S
C1181  C1182   1.520   .     S
C1181  H834    1.111   1_565 S
C1182  H1221   1.110   .     S
C1182  H1220   1.111   .     S
C1182  H839    1.110   1_565 S
C1183  H1225   1.112   .     S
C1183  O1267   1.408   .     S
C1183  H1224   1.112   .     S
C1184  H1227   1.107   .     S
C1184  H1226   1.110   .     S
C1184  H1228   1.111   .     S
C1184  C799    1.520   1_565 S
C1185  H1230   1.112   .     S
C1185  O1268   1.410   .     S
C1185  C803    1.520   1_565 S
C1185  H845    1.112   1_565 S
C1186  F1208   1.357   .     S
C1186  C1197   1.431   .     A
C1187  H1232   1.111   .     S
C1187  H1234   1.110   .     S
C1188  C1189   1.522   .     S
C1188  H1235   1.109   .     S
C1188  O1269   1.417   .     S
C1188  H1236   1.116   .     S
C1189  H1237   1.110   .     S
C1189  H1238   1.110   .     S
C1189  H1239   1.111   .     S
C1190  C1191   1.528   .     S
C1190  H1240   1.107   .     S
C1190  H1241   1.111   .     S
C1190  O1270   1.426   .     S
C1191  H1243   1.110   .     S
C1191  H1245   1.107   .     S
C1191  H1242   1.107   .     S
C1192  H1247   1.117   .     S
C1192  H1246   1.110   .     S
C1192  O1271   1.420   .     S
C1192  C1193   1.525   .     S
C1193  H1248   1.109   .     S
C1193  H1249   1.110   .     S
C1193  H1250   1.109   .     S
C1194  H1252   1.113   .     S
C1194  C1195   1.522   .     S
C1194  H1251   1.107   .     S
C1194  O1272   1.409   .     S
C1195  H1256   1.111   .     S
C1195  H1253   1.109   .     S
C1195  H1254   1.110   .     S
C1196  N1261   1.376   .     A
C1196  O1269   1.384   .     S
C1197  O1270   1.393   .     S
C1197  N1262   1.391   .     A
C1198  C1200   1.414   .     A
C1198  O1271   1.381   .     S
C1198  N1261   1.373   .     A
C1199  O1272   1.374   .     S
C1199  N1262   1.382   .     A
C1200  F1209   1.357   .     S
Cu1201 O1275   1.955   .     S
Cu1201 O1263   1.954   .     S
Cu1201 O1279   1.989   .     S
Cu1201 O1276   1.990   .     S
Cu1201 Cu1202  2.689   .     S
Cu1201 N1262   2.020   .     S
Cu1202 O1274   1.955   .     S
Cu1202 O1278   1.989   .     S
Cu1202 O1273   1.954   .     S
Cu1202 N1261   2.020   .     S
Cu1202 O1277   1.990   .     S
H1213  C795    1.109   1_565 S
H1216  C1308   1.109   .     S
H1222  C1430   1.112   1_455 S
H1231  C803    1.111   1_565 S
H1258  C1305   1.110   .     S
O1264  C1416   1.391   1_455 S
O1280  C1287   1.387   .     S
C1281  O1391   1.304   .     A
C1281  C1294   1.458   .     S
C1281  O1402   1.287   .     A
C1282  C1284   1.397   .     A
C1282  F1338   1.358   .     S
C1282  C1327   1.416   .     A
C1283  C1303   1.404   .     A
C1283  C1328   1.407   .     A
C1284  C1314   1.395   .     A
C1284  C515    1.515   1_556 S
C1285  O1404   1.288   .     A
C1285  O1406   1.296   .     A
C1285  C1287   1.448   .     S
C1286  O1407   1.293   .     A
C1286  C1288   1.451   .     S
C1286  O1405   1.293   .     A
C1288  C1415   1.358   .     S
C1288  O1520   1.391   .     S
C1289  C1300   1.415   .     A
C1289  C1291   1.392   .     A
C1289  O1393   1.384   .     S
C1290  O1394   1.383   .     S
C1290  C1301   1.410   .     A
C1290  C1293   1.394   .     A
C1291  C1294   1.395   .     A
C1291  F1331   1.351   .     S
C1292  O1401   1.297   .     A
C1292  C1295   1.478   .     S
C1292  O1403   1.306   .     A
C1293  F1332   1.359   .     S
C1293  C1295   1.411   .     A
C1294  C1296   1.401   .     A
C1295  C1297   1.405   .     A
C1296  F1333   1.356   .     S
C1296  C1298   1.393   .     A
C1297  C1299   1.392   .     A
C1297  F1334   1.350   .     S
C1298  C1300   1.412   .     A
C1298  O1395   1.382   .     S
C1299  O1396   1.384   .     S
C1299  C1301   1.410   .     A
C1301  C916    1.474   1_565 S
C1302  H1339   1.114   .     S
C1302  O1408   1.411   .     S
C1302  C1304   1.521   .     S
C1302  H1478   1.112   .     S
C1303  C1324   1.420   .     A
C1303  F1335   1.358   .     S
C1304  H1372   1.110   .     S
C1304  H1361   1.110   .     S
C1304  H1383   1.111   .     S
C1305  H1385   1.107   .     S
C1305  O1392   1.413   .     S
C1305  C1306   1.524   .     S
C1306  H1388   1.108   .     S
C1306  H1387   1.105   .     S
C1306  H1340   1.105   .     S
C1307  H1342   1.111   .     S
C1307  O1393   1.407   .     S
C1308  H1345   1.111   .     S
C1308  C923    1.521   1_565 S
C1308  H959    1.110   1_565 S
C1309  O1394   1.410   .     S
C1309  H1347   1.116   .     S
C1309  C1310   1.520   .     S
C1309  H962    1.111   1_565 S
C1310  H1349   1.110   .     S
C1310  H1348   1.111   .     S
C1310  H967    1.110   1_565 S
C1311  H1353   1.112   .     S
C1311  O1395   1.408   .     S
C1311  H1352   1.112   .     S
C1312  H1355   1.107   .     S
C1312  H1354   1.110   .     S
C1312  H1356   1.111   .     S
C1312  C927    1.520   1_565 S
C1313  H1358   1.112   .     S
C1313  O1396   1.410   .     S
C1313  C931    1.520   1_565 S
C1313  H973    1.112   1_565 S
C1314  F1336   1.357   .     S
C1314  C1325   1.431   .     A
C1315  H1360   1.111   .     S
C1315  H1362   1.110   .     S
C1316  C1317   1.522   .     S
C1316  H1363   1.109   .     S
C1316  O1397   1.417   .     S
C1316  H1364   1.116   .     S
C1317  H1365   1.110   .     S
C1317  H1366   1.110   .     S
C1317  H1367   1.111   .     S
C1318  C1319   1.528   .     S
C1318  H1368   1.107   .     S
C1318  H1369   1.111   .     S
C1318  O1398   1.426   .     S
C1319  H1371   1.110   .     S
C1319  H1373   1.107   .     S
C1319  H1370   1.107   .     S
C1320  H1375   1.117   .     S
C1320  H1374   1.110   .     S
C1320  O1399   1.420   .     S
C1320  C1321   1.525   .     S
C1321  H1376   1.109   .     S
C1321  H1377   1.110   .     S
C1321  H1378   1.109   .     S
C1322  H1380   1.113   .     S
C1322  C1323   1.522   .     S
C1322  H1379   1.107   .     S
C1322  O1400   1.409   .     S
C1323  H1384   1.111   .     S
C1323  H1381   1.109   .     S
C1323  H1382   1.110   .     S
C1324  N1389   1.376   .     A
C1324  O1397   1.384   .     S
C1325  O1398   1.393   .     S
C1325  N1390   1.391   .     A
C1326  C1328   1.414   .     A
C1326  O1399   1.381   .     S
C1326  N1389   1.373   .     A
C1327  O1400   1.374   .     S
C1327  N1390   1.382   .     A
C1328  F1337   1.357   .     S
Cu1329 O1403   1.955   .     S
Cu1329 O1391   1.954   .     S
Cu1329 O1407   1.989   .     S
Cu1329 O1404   1.990   .     S
Cu1329 Cu1330  2.689   .     S
Cu1329 N1390   2.020   .     S
Cu1330 O1402   1.955   .     S
Cu1330 O1406   1.989   .     S
Cu1330 O1401   1.954   .     S
Cu1330 N1389   2.020   .     S
Cu1330 O1405   1.990   .     S
H1341  C923    1.109   1_565 S
H1344  C1436   1.109   .     S
H1359  C931    1.111   1_565 S
H1386  C1433   1.110   .     S
O1408  C1415   1.387   .     S
C1409  O1519   1.304   .     A
C1409  C1422   1.458   .     S
C1409  O1530   1.287   .     A
C1410  C1412   1.397   .     A
C1410  F1466   1.358   .     S
C1410  C1455   1.416   .     A
C1411  C1431   1.404   .     A
C1411  C1456   1.407   .     A
C1412  C1442   1.395   .     A
C1412  C643    1.515   1_556 S
C1413  O1532   1.288   .     A
C1413  O1534   1.296   .     A
C1413  C1415   1.448   .     S
C1414  O1535   1.293   .     A
C1414  C1416   1.451   .     S
C1414  O1533   1.293   .     A
C1416  C1159   1.358   1_655 S
C1416  O1264   1.391   1_655 S
C1417  C1428   1.415   .     A
C1417  C1419   1.392   .     A
C1417  O1521   1.384   .     S
C1418  O1522   1.383   .     S
C1418  C1429   1.410   .     A
C1418  C1421   1.394   .     A
C1419  C1422   1.395   .     A
C1419  F1459   1.351   .     S
C1420  O1529   1.297   .     A
C1420  C1423   1.478   .     S
C1420  O1531   1.306   .     A
C1421  F1460   1.359   .     S
C1421  C1423   1.411   .     A
C1422  C1424   1.401   .     A
C1423  C1425   1.405   .     A
C1424  F1461   1.356   .     S
C1424  C1426   1.393   .     A
C1425  C1427   1.392   .     A
C1425  F1462   1.350   .     S
C1426  C1428   1.412   .     A
C1426  O1523   1.382   .     S
C1427  O1524   1.384   .     S
C1427  C1429   1.410   .     A
C1429  C1044   1.474   1_565 S
C1430  H1467   1.114   .     S
C1430  O1536   1.411   .     S
C1430  C1432   1.521   .     S
C1430  H1222   1.112   1_655 S
C1431  C1452   1.420   .     A
C1431  F1463   1.358   .     S
C1432  H1500   1.110   .     S
C1432  H1489   1.110   .     S
C1432  H1511   1.111   .     S
C1433  H1513   1.107   .     S
C1433  O1520   1.413   .     S
C1433  C1434   1.524   .     S
C1434  H1516   1.108   .     S
C1434  H1515   1.105   .     S
C1434  H1468   1.105   .     S
C1435  H1470   1.111   .     S
C1435  O1521   1.407   .     S
C1436  H1473   1.111   .     S
C1436  C1051   1.521   1_565 S
C1436  H1087   1.110   1_565 S
C1437  O1522   1.410   .     S
C1437  H1475   1.116   .     S
C1437  C1438   1.520   .     S
C1437  H1090   1.111   1_565 S
C1438  H1477   1.110   .     S
C1438  H1476   1.111   .     S
C1438  H1095   1.110   1_565 S
C1439  H1481   1.112   .     S
C1439  O1523   1.408   .     S
C1439  H1480   1.112   .     S
C1440  H1483   1.107   .     S
C1440  H1482   1.110   .     S
C1440  H1484   1.111   .     S
C1440  C1055   1.520   1_565 S
C1441  H1486   1.112   .     S
C1441  O1524   1.410   .     S
C1441  C1059   1.520   1_565 S
C1441  H1101   1.112   1_565 S
C1442  F1464   1.357   .     S
C1442  C1453   1.431   .     A
C1443  H1488   1.111   .     S
C1443  H1490   1.110   .     S
C1444  C1445   1.522   .     S
C1444  H1491   1.109   .     S
C1444  O1525   1.417   .     S
C1444  H1492   1.116   .     S
C1445  H1493   1.110   .     S
C1445  H1494   1.110   .     S
C1445  H1495   1.111   .     S
C1446  C1447   1.528   .     S
C1446  H1496   1.107   .     S
C1446  H1497   1.111   .     S
C1446  O1526   1.426   .     S
C1447  H1499   1.110   .     S
C1447  H1501   1.107   .     S
C1447  H1498   1.107   .     S
C1448  H1503   1.117   .     S
C1448  H1502   1.110   .     S
C1448  O1527   1.420   .     S
C1448  C1449   1.525   .     S
C1449  H1504   1.109   .     S
C1449  H1505   1.110   .     S
C1449  H1506   1.109   .     S
C1450  H1508   1.113   .     S
C1450  C1451   1.522   .     S
C1450  H1507   1.107   .     S
C1450  O1528   1.409   .     S
C1451  H1512   1.111   .     S
C1451  H1509   1.109   .     S
C1451  H1510   1.110   .     S
C1452  N1517   1.376   .     A
C1452  O1525   1.384   .     S
C1453  O1526   1.393   .     S
C1453  N1518   1.391   .     A
C1454  C1456   1.414   .     A
C1454  O1527   1.381   .     S
C1454  N1517   1.373   .     A
C1455  O1528   1.374   .     S
C1455  N1518   1.382   .     A
C1456  F1465   1.357   .     S
Cu1457 O1531   1.955   .     S
Cu1457 O1519   1.954   .     S
Cu1457 O1535   1.989   .     S
Cu1457 O1532   1.990   .     S
Cu1457 Cu1458  2.689   .     S
Cu1457 N1518   2.020   .     S
Cu1458 O1530   1.955   .     S
Cu1458 O1534   1.989   .     S
Cu1458 O1529   1.954   .     S
Cu1458 N1517   2.020   .     S
Cu1458 O1533   1.990   .     S
H1469  C1051   1.109   1_565 S
H1472  C1180   1.109   1_655 S
H1487  C1059   1.111   1_565 S
H1514  C1177   1.110   1_655 S
O1536  C1159   1.387   1_655 S
