data_str_m2_o2_o10_pcu_sym.210
_audit_creation_date              2020-01-03
_audit_creation_method            'Materials Studio'
_symmetry_space_group_name_H-M    'P1'
_symmetry_Int_Tables_number       1
_symmetry_cell_setting            triclinic
loop_
_symmetry_equiv_pos_as_xyz
  x,y,z
_cell_length_a                    26.4846
_cell_length_b                    30.1921
_cell_length_c                    27.6284
_cell_angle_alpha                 89.4838
_cell_angle_beta                  97.5811
_cell_angle_gamma                 90.5581
loop_
_atom_site_label
_atom_site_type_symbol
_atom_site_fract_x
_atom_site_fract_y
_atom_site_fract_z
_atom_site_U_iso_or_equiv
_atom_site_adp_type
_atom_site_occupancy
C1     C     0.16654   0.16506   0.25021   0.00000  Uiso   1.00
C2     C     0.16652   0.33501   0.24980   0.00000  Uiso   1.00
C3     C     0.19617   0.27987   0.05672   0.00000  Uiso   1.00
C4     C     0.19847   0.22236   0.45095   0.00000  Uiso   1.00
C5     C     0.19596   0.27961   0.10763   0.00000  Uiso   1.00
C6     C     0.19828   0.22267   0.39999   0.00000  Uiso   1.00
C7     C     0.13689   0.22014   0.10156   0.00000  Uiso   1.00
C8     C     0.13470   0.27760   0.39066   0.00000  Uiso   1.00
C9     C     0.13581   0.21899   0.05021   0.00000  Uiso   1.00
C10    C     0.13347   0.27857   0.44170   0.00000  Uiso   1.00
C11    C     0.16602   0.24947   0.02717   0.00000  Uiso   1.00
C12    C     0.16597   0.25038   0.47263   0.00000  Uiso   1.00
C13    C     0.06815   0.25054   0.23785   0.00000  Uiso   1.00
C14    C     0.26521   0.24898   0.26212   0.00000  Uiso   1.00
C15    C     0.01381   0.25631   0.23188   0.00000  Uiso   1.00
C16    C     0.31958   0.24254   0.26783   0.00000  Uiso   1.00
C17    C     0.20703   0.04718   0.27379   0.00000  Uiso   1.00
C18    C     0.20544   0.45404   0.23556   0.00000  Uiso   1.00
C19    C     0.20857   0.09342   0.27366   0.00000  Uiso   1.00
C20    C     0.20679   0.40787   0.23474   0.00000  Uiso   1.00
C21    C     0.16602   0.11690   0.25082   0.00000  Uiso   1.00
C22    C     0.16570   0.38330   0.24937   0.00000  Uiso   1.00
C23    C     0.12252   0.09413   0.22879   0.00000  Uiso   1.00
C24    C     0.12379   0.40517   0.26441   0.00000  Uiso   1.00
C25    C     0.12157   0.04788   0.22958   0.00000  Uiso   1.00
C26    C     0.12298   0.45144   0.26462   0.00000  Uiso   1.00
C27    C     0.16385   0.02438   0.25172   0.00000  Uiso   1.00
C28    C     0.16388   0.47587   0.25054   0.00000  Uiso   1.00
Cu29   Cu    0.16667   0.24999   0.29821   0.00000  Uiso   1.00
Cu30   Cu    0.16667   0.25000   0.20178   0.00000  Uiso   1.00
H31    H     0.23951   0.02876   0.29117   0.00000  Uiso   1.00
H32    H     0.23673   0.47318   0.22421   0.00000  Uiso   1.00
H33    H     0.08823   0.03035   0.21217   0.00000  Uiso   1.00
H34    H     0.09081   0.46825   0.27642   0.00000  Uiso   1.00
H35    H     0.21970   0.30380   0.04042   0.00000  Uiso   1.00
H36    H     0.22384   0.20026   0.47341   0.00000  Uiso   1.00
H37    H     0.21931   0.30328   0.12978   0.00000  Uiso   1.00
H38    H     0.22354   0.20091   0.38388   0.00000  Uiso   1.00
H39    H     0.11372   0.19708   0.11945   0.00000  Uiso   1.00
H40    H     0.10992   0.29900   0.36673   0.00000  Uiso   1.00
N41    N     0.16667   0.25001   0.12934   0.00000  Uiso   1.00
N42    N     0.16667   0.24999   0.37065   0.00000  Uiso   1.00
O43    O     0.16667   0.18572   0.29071   0.00000  Uiso   1.00
O44    O     0.16666   0.31427   0.20928   0.00000  Uiso   1.00
O45    O     0.16667   0.18573   0.20928   0.00000  Uiso   1.00
O46    O     0.16666   0.31427   0.29072   0.00000  Uiso   1.00
O47    O     0.09161   0.24999   0.28132   0.00000  Uiso   1.00
O48    O     0.24172   0.25001   0.21868   0.00000  Uiso   1.00
O49    O     0.09161   0.25000   0.19988   0.00000  Uiso   1.00
O50    O     0.24172   0.25000   0.30011   0.00000  Uiso   1.00
C51    C     0.32495   0.28130   0.18599   0.00000  Uiso   1.00
H52    H     0.02145   0.29695   0.16664   0.00000  Uiso   1.00
H53    H     0.30286   0.25832   0.15993   0.00000  Uiso   1.00
H54    H     0.30083   0.30872   0.19545   0.00000  Uiso   1.00
C55    C     0.00855   0.21642   0.31295   0.00000  Uiso   1.00
H56    H     0.31190   0.20123   0.33243   0.00000  Uiso   1.00
H57    H     0.03201   0.18864   0.30252   0.00000  Uiso   1.00
H58    H     0.03145   0.23854   0.33940   0.00000  Uiso   1.00
C59    C     0.25597   0.11708   0.29675   0.00000  Uiso   1.00
H60    H     0.27101   0.13886   0.26927   0.00000  Uiso   1.00
H61    H     0.24696   0.13740   0.32770   0.00000  Uiso   1.00
H62    H     0.28641   0.09352   0.31102   0.00000  Uiso   1.00
C63    C     0.25256   0.38554   0.21931   0.00000  Uiso   1.00
H64    H     0.24085   0.36683   0.18527   0.00000  Uiso   1.00
H65    H     0.28250   0.40978   0.21200   0.00000  Uiso   1.00
H66    H     0.26938   0.36269   0.24868   0.00000  Uiso   1.00
N67    N     0.07914   0.11808   0.20608   0.00000  Uiso   1.00
H68    H     0.07184   0.10833   0.16959   0.00000  Uiso   1.00
H69    H     0.04772   0.10883   0.22327   0.00000  Uiso   1.00
N70    N     0.08180   0.38031   0.27886   0.00000  Uiso   1.00
H71    H     0.04879   0.38959   0.25615   0.00000  Uiso   1.00
H72    H     0.07749   0.38921   0.31456   0.00000  Uiso   1.00
C73    C     0.10245   0.18563   0.02078   0.00000  Uiso   1.00
H74    H     0.07444   0.20300   0.49389   0.00000  Uiso   1.00
H75    H     0.12624   0.16385   0.00104   0.00000  Uiso   1.00
H76    H     0.08112   0.16447   0.04434   0.00000  Uiso   1.00
C77    C     0.09754   0.30930   0.46240   0.00000  Uiso   1.00
H78    H     0.07095   0.28985   0.48234   0.00000  Uiso   1.00
H79    H     0.11950   0.33278   0.48797   0.00000  Uiso   1.00
H80    H     0.07462   0.32883   0.43326   0.00000  Uiso   1.00
C81    C     0.49987   0.16506   0.25021   0.00000  Uiso   1.00
C82    C     0.49986   0.33501   0.24980   0.00000  Uiso   1.00
C83    C     0.52950   0.27987   0.05672   0.00000  Uiso   1.00
C84    C     0.53180   0.22236   0.45095   0.00000  Uiso   1.00
C85    C     0.52929   0.27961   0.10763   0.00000  Uiso   1.00
C86    C     0.53161   0.22267   0.39999   0.00000  Uiso   1.00
C87    C     0.47022   0.22014   0.10156   0.00000  Uiso   1.00
C88    C     0.46803   0.27760   0.39066   0.00000  Uiso   1.00
C89    C     0.46914   0.21899   0.05021   0.00000  Uiso   1.00
C90    C     0.46680   0.27857   0.44170   0.00000  Uiso   1.00
C91    C     0.49935   0.24947   0.02717   0.00000  Uiso   1.00
C92    C     0.49930   0.25038   0.47263   0.00000  Uiso   1.00
C93    C     0.40149   0.25054   0.23785   0.00000  Uiso   1.00
C94    C     0.59855   0.24898   0.26212   0.00000  Uiso   1.00
C95    C     0.34714   0.25631   0.23188   0.00000  Uiso   1.00
C96    C     0.65292   0.24254   0.26783   0.00000  Uiso   1.00
C97    C     0.54036   0.04718   0.27379   0.00000  Uiso   1.00
C98    C     0.53877   0.45404   0.23556   0.00000  Uiso   1.00
C99    C     0.54191   0.09342   0.27366   0.00000  Uiso   1.00
C100   C     0.54012   0.40787   0.23474   0.00000  Uiso   1.00
C101   C     0.49936   0.11690   0.25082   0.00000  Uiso   1.00
C102   C     0.49904   0.38330   0.24937   0.00000  Uiso   1.00
C103   C     0.45585   0.09413   0.22879   0.00000  Uiso   1.00
C104   C     0.45713   0.40517   0.26441   0.00000  Uiso   1.00
C105   C     0.45491   0.04788   0.22958   0.00000  Uiso   1.00
C106   C     0.45632   0.45144   0.26462   0.00000  Uiso   1.00
C107   C     0.49718   0.02438   0.25172   0.00000  Uiso   1.00
C108   C     0.49721   0.47587   0.25054   0.00000  Uiso   1.00
Cu109  Cu    0.50000   0.24999   0.29821   0.00000  Uiso   1.00
Cu110  Cu    0.50000   0.25000   0.20178   0.00000  Uiso   1.00
H111   H     0.57284   0.02876   0.29117   0.00000  Uiso   1.00
H112   H     0.57006   0.47318   0.22421   0.00000  Uiso   1.00
H113   H     0.42157   0.03035   0.21217   0.00000  Uiso   1.00
H114   H     0.42414   0.46825   0.27642   0.00000  Uiso   1.00
H115   H     0.55303   0.30380   0.04042   0.00000  Uiso   1.00
H116   H     0.55717   0.20026   0.47341   0.00000  Uiso   1.00
H117   H     0.55264   0.30328   0.12978   0.00000  Uiso   1.00
H118   H     0.55687   0.20091   0.38388   0.00000  Uiso   1.00
H119   H     0.44705   0.19708   0.11945   0.00000  Uiso   1.00
H120   H     0.44325   0.29900   0.36673   0.00000  Uiso   1.00
N121   N     0.50000   0.25001   0.12934   0.00000  Uiso   1.00
N122   N     0.50000   0.24999   0.37065   0.00000  Uiso   1.00
O123   O     0.50000   0.18572   0.29071   0.00000  Uiso   1.00
O124   O     0.50000   0.31427   0.20928   0.00000  Uiso   1.00
O125   O     0.50000   0.18573   0.20928   0.00000  Uiso   1.00
O126   O     0.50000   0.31427   0.29072   0.00000  Uiso   1.00
O127   O     0.42495   0.24999   0.28132   0.00000  Uiso   1.00
O128   O     0.57505   0.25001   0.21868   0.00000  Uiso   1.00
O129   O     0.42495   0.25000   0.19988   0.00000  Uiso   1.00
O130   O     0.57505   0.25000   0.30011   0.00000  Uiso   1.00
C131   C     0.65828   0.28130   0.18599   0.00000  Uiso   1.00
H132   H     0.35478   0.29695   0.16664   0.00000  Uiso   1.00
H133   H     0.63619   0.25832   0.15993   0.00000  Uiso   1.00
H134   H     0.63417   0.30872   0.19545   0.00000  Uiso   1.00
C135   C     0.34188   0.21642   0.31295   0.00000  Uiso   1.00
H136   H     0.64523   0.20123   0.33243   0.00000  Uiso   1.00
H137   H     0.36535   0.18864   0.30252   0.00000  Uiso   1.00
H138   H     0.36478   0.23854   0.33940   0.00000  Uiso   1.00
C139   C     0.58930   0.11708   0.29675   0.00000  Uiso   1.00
H140   H     0.60434   0.13886   0.26927   0.00000  Uiso   1.00
H141   H     0.58030   0.13740   0.32770   0.00000  Uiso   1.00
H142   H     0.61974   0.09352   0.31102   0.00000  Uiso   1.00
C143   C     0.58589   0.38554   0.21931   0.00000  Uiso   1.00
H144   H     0.57418   0.36683   0.18527   0.00000  Uiso   1.00
H145   H     0.61584   0.40978   0.21200   0.00000  Uiso   1.00
H146   H     0.60271   0.36269   0.24868   0.00000  Uiso   1.00
N147   N     0.41247   0.11808   0.20608   0.00000  Uiso   1.00
H148   H     0.40518   0.10833   0.16959   0.00000  Uiso   1.00
H149   H     0.38105   0.10883   0.22327   0.00000  Uiso   1.00
N150   N     0.41514   0.38031   0.27886   0.00000  Uiso   1.00
H151   H     0.38213   0.38959   0.25615   0.00000  Uiso   1.00
H152   H     0.41082   0.38921   0.31456   0.00000  Uiso   1.00
C153   C     0.43578   0.18563   0.02078   0.00000  Uiso   1.00
H154   H     0.40777   0.20300   0.49389   0.00000  Uiso   1.00
H155   H     0.45957   0.16385   0.00104   0.00000  Uiso   1.00
H156   H     0.41445   0.16447   0.04434   0.00000  Uiso   1.00
C157   C     0.43087   0.30930   0.46240   0.00000  Uiso   1.00
H158   H     0.40429   0.28985   0.48234   0.00000  Uiso   1.00
H159   H     0.45283   0.33278   0.48797   0.00000  Uiso   1.00
H160   H     0.40795   0.32883   0.43326   0.00000  Uiso   1.00
C161   C     0.83321   0.16506   0.25021   0.00000  Uiso   1.00
C162   C     0.83319   0.33501   0.24980   0.00000  Uiso   1.00
C163   C     0.86284   0.27987   0.05672   0.00000  Uiso   1.00
C164   C     0.86513   0.22236   0.45095   0.00000  Uiso   1.00
C165   C     0.86263   0.27961   0.10763   0.00000  Uiso   1.00
C166   C     0.86494   0.22267   0.39999   0.00000  Uiso   1.00
C167   C     0.80355   0.22014   0.10156   0.00000  Uiso   1.00
C168   C     0.80137   0.27760   0.39066   0.00000  Uiso   1.00
C169   C     0.80248   0.21899   0.05021   0.00000  Uiso   1.00
C170   C     0.80014   0.27857   0.44170   0.00000  Uiso   1.00
C171   C     0.83268   0.24947   0.02717   0.00000  Uiso   1.00
C172   C     0.83263   0.25038   0.47263   0.00000  Uiso   1.00
C173   C     0.73482   0.25054   0.23785   0.00000  Uiso   1.00
C174   C     0.93188   0.24898   0.26212   0.00000  Uiso   1.00
C175   C     0.68047   0.25631   0.23188   0.00000  Uiso   1.00
C176   C     0.98625   0.24254   0.26783   0.00000  Uiso   1.00
C177   C     0.87370   0.04718   0.27379   0.00000  Uiso   1.00
C178   C     0.87210   0.45404   0.23556   0.00000  Uiso   1.00
C179   C     0.87524   0.09342   0.27366   0.00000  Uiso   1.00
C180   C     0.87346   0.40787   0.23474   0.00000  Uiso   1.00
C181   C     0.83269   0.11690   0.25082   0.00000  Uiso   1.00
C182   C     0.83237   0.38330   0.24937   0.00000  Uiso   1.00
C183   C     0.78919   0.09413   0.22879   0.00000  Uiso   1.00
C184   C     0.79046   0.40517   0.26441   0.00000  Uiso   1.00
C185   C     0.78824   0.04788   0.22958   0.00000  Uiso   1.00
C186   C     0.78965   0.45144   0.26462   0.00000  Uiso   1.00
C187   C     0.83051   0.02438   0.25172   0.00000  Uiso   1.00
C188   C     0.83054   0.47587   0.25054   0.00000  Uiso   1.00
Cu189  Cu    0.83333   0.24999   0.29821   0.00000  Uiso   1.00
Cu190  Cu    0.83333   0.25000   0.20178   0.00000  Uiso   1.00
H191   H     0.90617   0.02876   0.29117   0.00000  Uiso   1.00
H192   H     0.90340   0.47318   0.22421   0.00000  Uiso   1.00
H193   H     0.75490   0.03035   0.21217   0.00000  Uiso   1.00
H194   H     0.75748   0.46825   0.27642   0.00000  Uiso   1.00
H195   H     0.88637   0.30380   0.04042   0.00000  Uiso   1.00
H196   H     0.89050   0.20026   0.47341   0.00000  Uiso   1.00
H197   H     0.88597   0.30328   0.12978   0.00000  Uiso   1.00
H198   H     0.89020   0.20091   0.38388   0.00000  Uiso   1.00
H199   H     0.78039   0.19708   0.11945   0.00000  Uiso   1.00
H200   H     0.77659   0.29900   0.36673   0.00000  Uiso   1.00
N201   N     0.83333   0.25001   0.12934   0.00000  Uiso   1.00
N202   N     0.83333   0.24999   0.37065   0.00000  Uiso   1.00
O203   O     0.83334   0.18572   0.29071   0.00000  Uiso   1.00
O204   O     0.83333   0.31427   0.20928   0.00000  Uiso   1.00
O205   O     0.83334   0.18573   0.20928   0.00000  Uiso   1.00
O206   O     0.83333   0.31427   0.29072   0.00000  Uiso   1.00
O207   O     0.75828   0.24999   0.28132   0.00000  Uiso   1.00
O208   O     0.90839   0.25001   0.21868   0.00000  Uiso   1.00
O209   O     0.75828   0.25000   0.19988   0.00000  Uiso   1.00
O210   O     0.90839   0.25000   0.30011   0.00000  Uiso   1.00
C211   C     0.99162   0.28130   0.18599   0.00000  Uiso   1.00
H212   H     0.68812   0.29695   0.16664   0.00000  Uiso   1.00
H213   H     0.96952   0.25832   0.15993   0.00000  Uiso   1.00
H214   H     0.96750   0.30872   0.19545   0.00000  Uiso   1.00
C215   C     0.67521   0.21642   0.31295   0.00000  Uiso   1.00
H216   H     0.97857   0.20123   0.33243   0.00000  Uiso   1.00
H217   H     0.69868   0.18864   0.30252   0.00000  Uiso   1.00
H218   H     0.69812   0.23854   0.33940   0.00000  Uiso   1.00
C219   C     0.92264   0.11708   0.29675   0.00000  Uiso   1.00
H220   H     0.93767   0.13886   0.26927   0.00000  Uiso   1.00
H221   H     0.91363   0.13740   0.32770   0.00000  Uiso   1.00
H222   H     0.95308   0.09352   0.31102   0.00000  Uiso   1.00
C223   C     0.91922   0.38554   0.21931   0.00000  Uiso   1.00
H224   H     0.90752   0.36683   0.18527   0.00000  Uiso   1.00
H225   H     0.94917   0.40978   0.21200   0.00000  Uiso   1.00
H226   H     0.93604   0.36269   0.24868   0.00000  Uiso   1.00
N227   N     0.74581   0.11808   0.20608   0.00000  Uiso   1.00
H228   H     0.73851   0.10833   0.16959   0.00000  Uiso   1.00
H229   H     0.71439   0.10883   0.22327   0.00000  Uiso   1.00
N230   N     0.74847   0.38031   0.27886   0.00000  Uiso   1.00
H231   H     0.71546   0.38959   0.25615   0.00000  Uiso   1.00
H232   H     0.74415   0.38921   0.31456   0.00000  Uiso   1.00
C233   C     0.76911   0.18563   0.02078   0.00000  Uiso   1.00
H234   H     0.74110   0.20300   0.49389   0.00000  Uiso   1.00
H235   H     0.79290   0.16385   0.00104   0.00000  Uiso   1.00
H236   H     0.74779   0.16447   0.04434   0.00000  Uiso   1.00
C237   C     0.76420   0.30930   0.46240   0.00000  Uiso   1.00
H238   H     0.73762   0.28985   0.48234   0.00000  Uiso   1.00
H239   H     0.78616   0.33278   0.48797   0.00000  Uiso   1.00
H240   H     0.74129   0.32883   0.43326   0.00000  Uiso   1.00
C241   C     0.16654   0.66506   0.25021   0.00000  Uiso   1.00
C242   C     0.16652   0.83501   0.24980   0.00000  Uiso   1.00
C243   C     0.19617   0.77987   0.05672   0.00000  Uiso   1.00
C244   C     0.19847   0.72236   0.45095   0.00000  Uiso   1.00
C245   C     0.19596   0.77961   0.10763   0.00000  Uiso   1.00
C246   C     0.19828   0.72267   0.39999   0.00000  Uiso   1.00
C247   C     0.13689   0.72014   0.10156   0.00000  Uiso   1.00
C248   C     0.13470   0.77760   0.39066   0.00000  Uiso   1.00
C249   C     0.13581   0.71899   0.05021   0.00000  Uiso   1.00
C250   C     0.13347   0.77857   0.44170   0.00000  Uiso   1.00
C251   C     0.16602   0.74947   0.02717   0.00000  Uiso   1.00
C252   C     0.16597   0.75038   0.47263   0.00000  Uiso   1.00
C253   C     0.06815   0.75054   0.23785   0.00000  Uiso   1.00
C254   C     0.26521   0.74898   0.26212   0.00000  Uiso   1.00
C255   C     0.01381   0.75631   0.23188   0.00000  Uiso   1.00
C256   C     0.31958   0.74254   0.26783   0.00000  Uiso   1.00
C257   C     0.20703   0.54718   0.27379   0.00000  Uiso   1.00
C258   C     0.20544   0.95404   0.23556   0.00000  Uiso   1.00
C259   C     0.20857   0.59342   0.27366   0.00000  Uiso   1.00
C260   C     0.20679   0.90787   0.23474   0.00000  Uiso   1.00
C261   C     0.16602   0.61690   0.25082   0.00000  Uiso   1.00
C262   C     0.16570   0.88330   0.24937   0.00000  Uiso   1.00
C263   C     0.12252   0.59413   0.22879   0.00000  Uiso   1.00
C264   C     0.12379   0.90517   0.26441   0.00000  Uiso   1.00
C265   C     0.12157   0.54788   0.22958   0.00000  Uiso   1.00
C266   C     0.12298   0.95144   0.26462   0.00000  Uiso   1.00
C267   C     0.16385   0.52438   0.25172   0.00000  Uiso   1.00
C268   C     0.16388   0.97587   0.25054   0.00000  Uiso   1.00
Cu269  Cu    0.16667   0.74999   0.29821   0.00000  Uiso   1.00
Cu270  Cu    0.16667   0.75000   0.20178   0.00000  Uiso   1.00
H271   H     0.23951   0.52876   0.29117   0.00000  Uiso   1.00
H272   H     0.23673   0.97318   0.22421   0.00000  Uiso   1.00
H273   H     0.08823   0.53035   0.21217   0.00000  Uiso   1.00
H274   H     0.09081   0.96825   0.27642   0.00000  Uiso   1.00
H275   H     0.21970   0.80380   0.04042   0.00000  Uiso   1.00
H276   H     0.22384   0.70026   0.47341   0.00000  Uiso   1.00
H277   H     0.21931   0.80328   0.12978   0.00000  Uiso   1.00
H278   H     0.22354   0.70091   0.38388   0.00000  Uiso   1.00
H279   H     0.11372   0.69708   0.11945   0.00000  Uiso   1.00
H280   H     0.10992   0.79900   0.36673   0.00000  Uiso   1.00
N281   N     0.16667   0.75001   0.12934   0.00000  Uiso   1.00
N282   N     0.16667   0.74999   0.37065   0.00000  Uiso   1.00
O283   O     0.16667   0.68572   0.29071   0.00000  Uiso   1.00
O284   O     0.16666   0.81427   0.20928   0.00000  Uiso   1.00
O285   O     0.16667   0.68573   0.20928   0.00000  Uiso   1.00
O286   O     0.16666   0.81427   0.29072   0.00000  Uiso   1.00
O287   O     0.09161   0.74999   0.28132   0.00000  Uiso   1.00
O288   O     0.24172   0.75001   0.21868   0.00000  Uiso   1.00
O289   O     0.09161   0.75000   0.19988   0.00000  Uiso   1.00
O290   O     0.24172   0.75000   0.30011   0.00000  Uiso   1.00
C291   C     0.32495   0.78130   0.18599   0.00000  Uiso   1.00
H292   H     0.02145   0.79695   0.16664   0.00000  Uiso   1.00
H293   H     0.30286   0.75832   0.15993   0.00000  Uiso   1.00
H294   H     0.30083   0.80872   0.19545   0.00000  Uiso   1.00
C295   C     0.00855   0.71642   0.31295   0.00000  Uiso   1.00
H296   H     0.31190   0.70123   0.33243   0.00000  Uiso   1.00
H297   H     0.03201   0.68864   0.30252   0.00000  Uiso   1.00
H298   H     0.03145   0.73854   0.33940   0.00000  Uiso   1.00
C299   C     0.25597   0.61708   0.29675   0.00000  Uiso   1.00
H300   H     0.27101   0.63886   0.26927   0.00000  Uiso   1.00
H301   H     0.24696   0.63740   0.32770   0.00000  Uiso   1.00
H302   H     0.28641   0.59352   0.31102   0.00000  Uiso   1.00
C303   C     0.25256   0.88554   0.21931   0.00000  Uiso   1.00
H304   H     0.24085   0.86683   0.18527   0.00000  Uiso   1.00
H305   H     0.28250   0.90978   0.21200   0.00000  Uiso   1.00
H306   H     0.26938   0.86269   0.24868   0.00000  Uiso   1.00
N307   N     0.07914   0.61808   0.20608   0.00000  Uiso   1.00
H308   H     0.07184   0.60833   0.16959   0.00000  Uiso   1.00
H309   H     0.04772   0.60883   0.22327   0.00000  Uiso   1.00
N310   N     0.08180   0.88031   0.27886   0.00000  Uiso   1.00
H311   H     0.04879   0.88959   0.25615   0.00000  Uiso   1.00
H312   H     0.07749   0.88921   0.31456   0.00000  Uiso   1.00
C313   C     0.10245   0.68563   0.02078   0.00000  Uiso   1.00
H314   H     0.07444   0.70300   0.49389   0.00000  Uiso   1.00
H315   H     0.12624   0.66385   0.00104   0.00000  Uiso   1.00
H316   H     0.08112   0.66447   0.04434   0.00000  Uiso   1.00
C317   C     0.09754   0.80930   0.46240   0.00000  Uiso   1.00
H318   H     0.07095   0.78985   0.48234   0.00000  Uiso   1.00
H319   H     0.11950   0.83278   0.48797   0.00000  Uiso   1.00
H320   H     0.07462   0.82883   0.43326   0.00000  Uiso   1.00
C321   C     0.49987   0.66506   0.25021   0.00000  Uiso   1.00
C322   C     0.49986   0.83501   0.24980   0.00000  Uiso   1.00
C323   C     0.52950   0.77987   0.05672   0.00000  Uiso   1.00
C324   C     0.53180   0.72236   0.45095   0.00000  Uiso   1.00
C325   C     0.52929   0.77961   0.10763   0.00000  Uiso   1.00
C326   C     0.53161   0.72267   0.39999   0.00000  Uiso   1.00
C327   C     0.47022   0.72014   0.10156   0.00000  Uiso   1.00
C328   C     0.46803   0.77760   0.39066   0.00000  Uiso   1.00
C329   C     0.46914   0.71899   0.05021   0.00000  Uiso   1.00
C330   C     0.46680   0.77857   0.44170   0.00000  Uiso   1.00
C331   C     0.49935   0.74947   0.02717   0.00000  Uiso   1.00
C332   C     0.49930   0.75038   0.47263   0.00000  Uiso   1.00
C333   C     0.40149   0.75054   0.23785   0.00000  Uiso   1.00
C334   C     0.59855   0.74898   0.26212   0.00000  Uiso   1.00
C335   C     0.34714   0.75631   0.23188   0.00000  Uiso   1.00
C336   C     0.65292   0.74254   0.26783   0.00000  Uiso   1.00
C337   C     0.54036   0.54718   0.27379   0.00000  Uiso   1.00
C338   C     0.53877   0.95404   0.23556   0.00000  Uiso   1.00
C339   C     0.54191   0.59342   0.27366   0.00000  Uiso   1.00
C340   C     0.54012   0.90787   0.23474   0.00000  Uiso   1.00
C341   C     0.49936   0.61690   0.25082   0.00000  Uiso   1.00
C342   C     0.49904   0.88330   0.24937   0.00000  Uiso   1.00
C343   C     0.45585   0.59413   0.22879   0.00000  Uiso   1.00
C344   C     0.45713   0.90517   0.26441   0.00000  Uiso   1.00
C345   C     0.45491   0.54788   0.22958   0.00000  Uiso   1.00
C346   C     0.45632   0.95144   0.26462   0.00000  Uiso   1.00
C347   C     0.49718   0.52438   0.25172   0.00000  Uiso   1.00
C348   C     0.49721   0.97587   0.25054   0.00000  Uiso   1.00
Cu349  Cu    0.50000   0.74999   0.29821   0.00000  Uiso   1.00
Cu350  Cu    0.50000   0.75000   0.20178   0.00000  Uiso   1.00
H351   H     0.57284   0.52876   0.29117   0.00000  Uiso   1.00
H352   H     0.57006   0.97318   0.22421   0.00000  Uiso   1.00
H353   H     0.42157   0.53035   0.21217   0.00000  Uiso   1.00
H354   H     0.42414   0.96825   0.27642   0.00000  Uiso   1.00
H355   H     0.55303   0.80380   0.04042   0.00000  Uiso   1.00
H356   H     0.55717   0.70026   0.47341   0.00000  Uiso   1.00
H357   H     0.55264   0.80328   0.12978   0.00000  Uiso   1.00
H358   H     0.55687   0.70091   0.38388   0.00000  Uiso   1.00
H359   H     0.44705   0.69708   0.11945   0.00000  Uiso   1.00
H360   H     0.44325   0.79900   0.36673   0.00000  Uiso   1.00
N361   N     0.50000   0.75001   0.12934   0.00000  Uiso   1.00
N362   N     0.50000   0.74999   0.37065   0.00000  Uiso   1.00
O363   O     0.50000   0.68572   0.29071   0.00000  Uiso   1.00
O364   O     0.50000   0.81427   0.20928   0.00000  Uiso   1.00
O365   O     0.50000   0.68573   0.20928   0.00000  Uiso   1.00
O366   O     0.50000   0.81427   0.29072   0.00000  Uiso   1.00
O367   O     0.42495   0.74999   0.28132   0.00000  Uiso   1.00
O368   O     0.57505   0.75001   0.21868   0.00000  Uiso   1.00
O369   O     0.42495   0.75000   0.19988   0.00000  Uiso   1.00
O370   O     0.57505   0.75000   0.30011   0.00000  Uiso   1.00
C371   C     0.65828   0.78130   0.18599   0.00000  Uiso   1.00
H372   H     0.35478   0.79695   0.16664   0.00000  Uiso   1.00
H373   H     0.63619   0.75832   0.15993   0.00000  Uiso   1.00
H374   H     0.63417   0.80872   0.19545   0.00000  Uiso   1.00
C375   C     0.34188   0.71642   0.31295   0.00000  Uiso   1.00
H376   H     0.64523   0.70123   0.33243   0.00000  Uiso   1.00
H377   H     0.36535   0.68864   0.30252   0.00000  Uiso   1.00
H378   H     0.36478   0.73854   0.33940   0.00000  Uiso   1.00
C379   C     0.58930   0.61708   0.29675   0.00000  Uiso   1.00
H380   H     0.60434   0.63886   0.26927   0.00000  Uiso   1.00
H381   H     0.58030   0.63740   0.32770   0.00000  Uiso   1.00
H382   H     0.61974   0.59352   0.31102   0.00000  Uiso   1.00
C383   C     0.58589   0.88554   0.21931   0.00000  Uiso   1.00
H384   H     0.57418   0.86683   0.18527   0.00000  Uiso   1.00
H385   H     0.61584   0.90978   0.21200   0.00000  Uiso   1.00
H386   H     0.60271   0.86269   0.24868   0.00000  Uiso   1.00
N387   N     0.41247   0.61808   0.20608   0.00000  Uiso   1.00
H388   H     0.40518   0.60833   0.16959   0.00000  Uiso   1.00
H389   H     0.38105   0.60883   0.22327   0.00000  Uiso   1.00
N390   N     0.41514   0.88031   0.27886   0.00000  Uiso   1.00
H391   H     0.38213   0.88959   0.25615   0.00000  Uiso   1.00
H392   H     0.41082   0.88921   0.31456   0.00000  Uiso   1.00
C393   C     0.43578   0.68563   0.02078   0.00000  Uiso   1.00
H394   H     0.40777   0.70300   0.49389   0.00000  Uiso   1.00
H395   H     0.45957   0.66385   0.00104   0.00000  Uiso   1.00
H396   H     0.41445   0.66447   0.04434   0.00000  Uiso   1.00
C397   C     0.43087   0.80930   0.46240   0.00000  Uiso   1.00
H398   H     0.40429   0.78985   0.48234   0.00000  Uiso   1.00
H399   H     0.45283   0.83278   0.48797   0.00000  Uiso   1.00
H400   H     0.40795   0.82883   0.43326   0.00000  Uiso   1.00
C401   C     0.83321   0.66506   0.25021   0.00000  Uiso   1.00
C402   C     0.83319   0.83501   0.24980   0.00000  Uiso   1.00
C403   C     0.86284   0.77987   0.05672   0.00000  Uiso   1.00
C404   C     0.86513   0.72236   0.45095   0.00000  Uiso   1.00
C405   C     0.86263   0.77961   0.10763   0.00000  Uiso   1.00
C406   C     0.86494   0.72267   0.39999   0.00000  Uiso   1.00
C407   C     0.80355   0.72014   0.10156   0.00000  Uiso   1.00
C408   C     0.80137   0.77760   0.39066   0.00000  Uiso   1.00
C409   C     0.80248   0.71899   0.05021   0.00000  Uiso   1.00
C410   C     0.80014   0.77857   0.44170   0.00000  Uiso   1.00
C411   C     0.83268   0.74947   0.02717   0.00000  Uiso   1.00
C412   C     0.83263   0.75038   0.47263   0.00000  Uiso   1.00
C413   C     0.73482   0.75054   0.23785   0.00000  Uiso   1.00
C414   C     0.93188   0.74898   0.26212   0.00000  Uiso   1.00
C415   C     0.68047   0.75631   0.23188   0.00000  Uiso   1.00
C416   C     0.98625   0.74254   0.26783   0.00000  Uiso   1.00
C417   C     0.87370   0.54718   0.27379   0.00000  Uiso   1.00
C418   C     0.87210   0.95404   0.23556   0.00000  Uiso   1.00
C419   C     0.87524   0.59342   0.27366   0.00000  Uiso   1.00
C420   C     0.87346   0.90787   0.23474   0.00000  Uiso   1.00
C421   C     0.83269   0.61690   0.25082   0.00000  Uiso   1.00
C422   C     0.83237   0.88330   0.24937   0.00000  Uiso   1.00
C423   C     0.78919   0.59413   0.22879   0.00000  Uiso   1.00
C424   C     0.79046   0.90517   0.26441   0.00000  Uiso   1.00
C425   C     0.78824   0.54788   0.22958   0.00000  Uiso   1.00
C426   C     0.78965   0.95144   0.26462   0.00000  Uiso   1.00
C427   C     0.83051   0.52438   0.25172   0.00000  Uiso   1.00
C428   C     0.83054   0.97587   0.25054   0.00000  Uiso   1.00
Cu429  Cu    0.83333   0.74999   0.29821   0.00000  Uiso   1.00
Cu430  Cu    0.83333   0.75000   0.20178   0.00000  Uiso   1.00
H431   H     0.90617   0.52876   0.29117   0.00000  Uiso   1.00
H432   H     0.90340   0.97318   0.22421   0.00000  Uiso   1.00
H433   H     0.75490   0.53035   0.21217   0.00000  Uiso   1.00
H434   H     0.75748   0.96825   0.27642   0.00000  Uiso   1.00
H435   H     0.88637   0.80380   0.04042   0.00000  Uiso   1.00
H436   H     0.89050   0.70026   0.47341   0.00000  Uiso   1.00
H437   H     0.88597   0.80328   0.12978   0.00000  Uiso   1.00
H438   H     0.89020   0.70091   0.38388   0.00000  Uiso   1.00
H439   H     0.78039   0.69708   0.11945   0.00000  Uiso   1.00
H440   H     0.77659   0.79900   0.36673   0.00000  Uiso   1.00
N441   N     0.83333   0.75001   0.12934   0.00000  Uiso   1.00
N442   N     0.83333   0.74999   0.37065   0.00000  Uiso   1.00
O443   O     0.83334   0.68572   0.29071   0.00000  Uiso   1.00
O444   O     0.83333   0.81427   0.20928   0.00000  Uiso   1.00
O445   O     0.83334   0.68573   0.20928   0.00000  Uiso   1.00
O446   O     0.83333   0.81427   0.29072   0.00000  Uiso   1.00
O447   O     0.75828   0.74999   0.28132   0.00000  Uiso   1.00
O448   O     0.90839   0.75001   0.21868   0.00000  Uiso   1.00
O449   O     0.75828   0.75000   0.19988   0.00000  Uiso   1.00
O450   O     0.90839   0.75000   0.30011   0.00000  Uiso   1.00
C451   C     0.99162   0.78130   0.18599   0.00000  Uiso   1.00
H452   H     0.68812   0.79695   0.16664   0.00000  Uiso   1.00
H453   H     0.96952   0.75832   0.15993   0.00000  Uiso   1.00
H454   H     0.96750   0.80872   0.19545   0.00000  Uiso   1.00
C455   C     0.67521   0.71642   0.31295   0.00000  Uiso   1.00
H456   H     0.97857   0.70123   0.33243   0.00000  Uiso   1.00
H457   H     0.69868   0.68864   0.30252   0.00000  Uiso   1.00
H458   H     0.69812   0.73854   0.33940   0.00000  Uiso   1.00
C459   C     0.92264   0.61708   0.29675   0.00000  Uiso   1.00
H460   H     0.93767   0.63886   0.26927   0.00000  Uiso   1.00
H461   H     0.91363   0.63740   0.32770   0.00000  Uiso   1.00
H462   H     0.95308   0.59352   0.31102   0.00000  Uiso   1.00
C463   C     0.91922   0.88554   0.21931   0.00000  Uiso   1.00
H464   H     0.90752   0.86683   0.18527   0.00000  Uiso   1.00
H465   H     0.94917   0.90978   0.21200   0.00000  Uiso   1.00
H466   H     0.93604   0.86269   0.24868   0.00000  Uiso   1.00
N467   N     0.74581   0.61808   0.20608   0.00000  Uiso   1.00
H468   H     0.73851   0.60833   0.16959   0.00000  Uiso   1.00
H469   H     0.71439   0.60883   0.22327   0.00000  Uiso   1.00
N470   N     0.74847   0.88031   0.27886   0.00000  Uiso   1.00
H471   H     0.71546   0.88959   0.25615   0.00000  Uiso   1.00
H472   H     0.74415   0.88921   0.31456   0.00000  Uiso   1.00
C473   C     0.76911   0.68563   0.02078   0.00000  Uiso   1.00
H474   H     0.74110   0.70300   0.49389   0.00000  Uiso   1.00
H475   H     0.79290   0.66385   0.00104   0.00000  Uiso   1.00
H476   H     0.74779   0.66447   0.04434   0.00000  Uiso   1.00
C477   C     0.76420   0.80930   0.46240   0.00000  Uiso   1.00
H478   H     0.73762   0.78985   0.48234   0.00000  Uiso   1.00
H479   H     0.78616   0.83278   0.48797   0.00000  Uiso   1.00
H480   H     0.74129   0.82883   0.43326   0.00000  Uiso   1.00
C481   C     0.16654   0.16506   0.75021   0.00000  Uiso   1.00
C482   C     0.16652   0.33501   0.74980   0.00000  Uiso   1.00
C483   C     0.19617   0.27987   0.55672   0.00000  Uiso   1.00
C484   C     0.19847   0.22236   0.95095   0.00000  Uiso   1.00
C485   C     0.19596   0.27961   0.60763   0.00000  Uiso   1.00
C486   C     0.19828   0.22267   0.89999   0.00000  Uiso   1.00
C487   C     0.13689   0.22014   0.60156   0.00000  Uiso   1.00
C488   C     0.13470   0.27760   0.89066   0.00000  Uiso   1.00
C489   C     0.13581   0.21899   0.55021   0.00000  Uiso   1.00
C490   C     0.13347   0.27857   0.94170   0.00000  Uiso   1.00
C491   C     0.16602   0.24947   0.52717   0.00000  Uiso   1.00
C492   C     0.16597   0.25038   0.97263   0.00000  Uiso   1.00
C493   C     0.06815   0.25054   0.73785   0.00000  Uiso   1.00
C494   C     0.26521   0.24898   0.76212   0.00000  Uiso   1.00
C495   C     0.01381   0.25631   0.73188   0.00000  Uiso   1.00
C496   C     0.31958   0.24254   0.76783   0.00000  Uiso   1.00
C497   C     0.20703   0.04718   0.77379   0.00000  Uiso   1.00
C498   C     0.20544   0.45404   0.73556   0.00000  Uiso   1.00
C499   C     0.20857   0.09342   0.77366   0.00000  Uiso   1.00
C500   C     0.20679   0.40787   0.73474   0.00000  Uiso   1.00
C501   C     0.16602   0.11690   0.75082   0.00000  Uiso   1.00
C502   C     0.16570   0.38330   0.74937   0.00000  Uiso   1.00
C503   C     0.12252   0.09413   0.72879   0.00000  Uiso   1.00
C504   C     0.12379   0.40517   0.76441   0.00000  Uiso   1.00
C505   C     0.12157   0.04788   0.72958   0.00000  Uiso   1.00
C506   C     0.12298   0.45144   0.76462   0.00000  Uiso   1.00
C507   C     0.16385   0.02438   0.75172   0.00000  Uiso   1.00
C508   C     0.16388   0.47587   0.75054   0.00000  Uiso   1.00
Cu509  Cu    0.16667   0.24999   0.79821   0.00000  Uiso   1.00
Cu510  Cu    0.16667   0.25000   0.70178   0.00000  Uiso   1.00
H511   H     0.23951   0.02876   0.79117   0.00000  Uiso   1.00
H512   H     0.23673   0.47318   0.72421   0.00000  Uiso   1.00
H513   H     0.08823   0.03035   0.71217   0.00000  Uiso   1.00
H514   H     0.09081   0.46825   0.77642   0.00000  Uiso   1.00
H515   H     0.21970   0.30380   0.54042   0.00000  Uiso   1.00
H516   H     0.22384   0.20026   0.97341   0.00000  Uiso   1.00
H517   H     0.21931   0.30328   0.62978   0.00000  Uiso   1.00
H518   H     0.22354   0.20091   0.88388   0.00000  Uiso   1.00
H519   H     0.11372   0.19708   0.61945   0.00000  Uiso   1.00
H520   H     0.10992   0.29900   0.86673   0.00000  Uiso   1.00
N521   N     0.16667   0.25001   0.62934   0.00000  Uiso   1.00
N522   N     0.16667   0.24999   0.87065   0.00000  Uiso   1.00
O523   O     0.16667   0.18572   0.79071   0.00000  Uiso   1.00
O524   O     0.16666   0.31427   0.70928   0.00000  Uiso   1.00
O525   O     0.16667   0.18573   0.70928   0.00000  Uiso   1.00
O526   O     0.16666   0.31427   0.79072   0.00000  Uiso   1.00
O527   O     0.09161   0.24999   0.78132   0.00000  Uiso   1.00
O528   O     0.24172   0.25001   0.71868   0.00000  Uiso   1.00
O529   O     0.09161   0.25000   0.69988   0.00000  Uiso   1.00
O530   O     0.24172   0.25000   0.80011   0.00000  Uiso   1.00
C531   C     0.32495   0.28130   0.68599   0.00000  Uiso   1.00
H532   H     0.02145   0.29695   0.66664   0.00000  Uiso   1.00
H533   H     0.30286   0.25832   0.65993   0.00000  Uiso   1.00
H534   H     0.30083   0.30872   0.69545   0.00000  Uiso   1.00
C535   C     0.00855   0.21642   0.81295   0.00000  Uiso   1.00
H536   H     0.31190   0.20123   0.83243   0.00000  Uiso   1.00
H537   H     0.03201   0.18864   0.80252   0.00000  Uiso   1.00
H538   H     0.03145   0.23854   0.83940   0.00000  Uiso   1.00
C539   C     0.25597   0.11708   0.79675   0.00000  Uiso   1.00
H540   H     0.27101   0.13886   0.76927   0.00000  Uiso   1.00
H541   H     0.24696   0.13740   0.82770   0.00000  Uiso   1.00
H542   H     0.28641   0.09352   0.81102   0.00000  Uiso   1.00
C543   C     0.25256   0.38554   0.71931   0.00000  Uiso   1.00
H544   H     0.24085   0.36683   0.68527   0.00000  Uiso   1.00
H545   H     0.28250   0.40978   0.71200   0.00000  Uiso   1.00
H546   H     0.26938   0.36269   0.74868   0.00000  Uiso   1.00
N547   N     0.07914   0.11808   0.70608   0.00000  Uiso   1.00
H548   H     0.07184   0.10833   0.66959   0.00000  Uiso   1.00
H549   H     0.04772   0.10883   0.72327   0.00000  Uiso   1.00
N550   N     0.08180   0.38031   0.77886   0.00000  Uiso   1.00
H551   H     0.04879   0.38959   0.75615   0.00000  Uiso   1.00
H552   H     0.07749   0.38921   0.81456   0.00000  Uiso   1.00
C553   C     0.10245   0.18563   0.52078   0.00000  Uiso   1.00
H554   H     0.07444   0.20300   0.99389   0.00000  Uiso   1.00
H555   H     0.12624   0.16385   0.50104   0.00000  Uiso   1.00
H556   H     0.08112   0.16447   0.54434   0.00000  Uiso   1.00
C557   C     0.09754   0.30930   0.96240   0.00000  Uiso   1.00
H558   H     0.07095   0.28985   0.98234   0.00000  Uiso   1.00
H559   H     0.11950   0.33278   0.98797   0.00000  Uiso   1.00
H560   H     0.07462   0.32883   0.93326   0.00000  Uiso   1.00
C561   C     0.49987   0.16506   0.75021   0.00000  Uiso   1.00
C562   C     0.49986   0.33501   0.74980   0.00000  Uiso   1.00
C563   C     0.52950   0.27987   0.55672   0.00000  Uiso   1.00
C564   C     0.53180   0.22236   0.95095   0.00000  Uiso   1.00
C565   C     0.52929   0.27961   0.60763   0.00000  Uiso   1.00
C566   C     0.53161   0.22267   0.89999   0.00000  Uiso   1.00
C567   C     0.47022   0.22014   0.60156   0.00000  Uiso   1.00
C568   C     0.46803   0.27760   0.89066   0.00000  Uiso   1.00
C569   C     0.46914   0.21899   0.55021   0.00000  Uiso   1.00
C570   C     0.46680   0.27857   0.94170   0.00000  Uiso   1.00
C571   C     0.49935   0.24947   0.52717   0.00000  Uiso   1.00
C572   C     0.49930   0.25038   0.97263   0.00000  Uiso   1.00
C573   C     0.40149   0.25054   0.73785   0.00000  Uiso   1.00
C574   C     0.59855   0.24898   0.76212   0.00000  Uiso   1.00
C575   C     0.34714   0.25631   0.73188   0.00000  Uiso   1.00
C576   C     0.65292   0.24254   0.76783   0.00000  Uiso   1.00
C577   C     0.54036   0.04718   0.77379   0.00000  Uiso   1.00
C578   C     0.53877   0.45404   0.73556   0.00000  Uiso   1.00
C579   C     0.54191   0.09342   0.77366   0.00000  Uiso   1.00
C580   C     0.54012   0.40787   0.73474   0.00000  Uiso   1.00
C581   C     0.49936   0.11690   0.75082   0.00000  Uiso   1.00
C582   C     0.49904   0.38330   0.74937   0.00000  Uiso   1.00
C583   C     0.45585   0.09413   0.72879   0.00000  Uiso   1.00
C584   C     0.45713   0.40517   0.76441   0.00000  Uiso   1.00
C585   C     0.45491   0.04788   0.72958   0.00000  Uiso   1.00
C586   C     0.45632   0.45144   0.76462   0.00000  Uiso   1.00
C587   C     0.49718   0.02438   0.75172   0.00000  Uiso   1.00
C588   C     0.49721   0.47587   0.75054   0.00000  Uiso   1.00
Cu589  Cu    0.50000   0.24999   0.79821   0.00000  Uiso   1.00
Cu590  Cu    0.50000   0.25000   0.70178   0.00000  Uiso   1.00
H591   H     0.57284   0.02876   0.79117   0.00000  Uiso   1.00
H592   H     0.57006   0.47318   0.72421   0.00000  Uiso   1.00
H593   H     0.42157   0.03035   0.71217   0.00000  Uiso   1.00
H594   H     0.42414   0.46825   0.77642   0.00000  Uiso   1.00
H595   H     0.55303   0.30380   0.54042   0.00000  Uiso   1.00
H596   H     0.55717   0.20026   0.97341   0.00000  Uiso   1.00
H597   H     0.55264   0.30328   0.62978   0.00000  Uiso   1.00
H598   H     0.55687   0.20091   0.88388   0.00000  Uiso   1.00
H599   H     0.44705   0.19708   0.61945   0.00000  Uiso   1.00
H600   H     0.44325   0.29900   0.86673   0.00000  Uiso   1.00
N601   N     0.50000   0.25001   0.62934   0.00000  Uiso   1.00
N602   N     0.50000   0.24999   0.87065   0.00000  Uiso   1.00
O603   O     0.50000   0.18572   0.79071   0.00000  Uiso   1.00
O604   O     0.50000   0.31427   0.70928   0.00000  Uiso   1.00
O605   O     0.50000   0.18573   0.70928   0.00000  Uiso   1.00
O606   O     0.50000   0.31427   0.79072   0.00000  Uiso   1.00
O607   O     0.42495   0.24999   0.78132   0.00000  Uiso   1.00
O608   O     0.57505   0.25001   0.71868   0.00000  Uiso   1.00
O609   O     0.42495   0.25000   0.69988   0.00000  Uiso   1.00
O610   O     0.57505   0.25000   0.80011   0.00000  Uiso   1.00
C611   C     0.65828   0.28130   0.68599   0.00000  Uiso   1.00
H612   H     0.35478   0.29695   0.66664   0.00000  Uiso   1.00
H613   H     0.63619   0.25832   0.65993   0.00000  Uiso   1.00
H614   H     0.63417   0.30872   0.69545   0.00000  Uiso   1.00
C615   C     0.34188   0.21642   0.81295   0.00000  Uiso   1.00
H616   H     0.64523   0.20123   0.83243   0.00000  Uiso   1.00
H617   H     0.36535   0.18864   0.80252   0.00000  Uiso   1.00
H618   H     0.36478   0.23854   0.83940   0.00000  Uiso   1.00
C619   C     0.58930   0.11708   0.79675   0.00000  Uiso   1.00
H620   H     0.60434   0.13886   0.76927   0.00000  Uiso   1.00
H621   H     0.58030   0.13740   0.82770   0.00000  Uiso   1.00
H622   H     0.61974   0.09352   0.81102   0.00000  Uiso   1.00
C623   C     0.58589   0.38554   0.71931   0.00000  Uiso   1.00
H624   H     0.57418   0.36683   0.68527   0.00000  Uiso   1.00
H625   H     0.61584   0.40978   0.71200   0.00000  Uiso   1.00
H626   H     0.60271   0.36269   0.74868   0.00000  Uiso   1.00
N627   N     0.41247   0.11808   0.70608   0.00000  Uiso   1.00
H628   H     0.40518   0.10833   0.66959   0.00000  Uiso   1.00
H629   H     0.38105   0.10883   0.72327   0.00000  Uiso   1.00
N630   N     0.41514   0.38031   0.77886   0.00000  Uiso   1.00
H631   H     0.38213   0.38959   0.75615   0.00000  Uiso   1.00
H632   H     0.41082   0.38921   0.81456   0.00000  Uiso   1.00
C633   C     0.43578   0.18563   0.52078   0.00000  Uiso   1.00
H634   H     0.40777   0.20300   0.99389   0.00000  Uiso   1.00
H635   H     0.45957   0.16385   0.50104   0.00000  Uiso   1.00
H636   H     0.41445   0.16447   0.54434   0.00000  Uiso   1.00
C637   C     0.43087   0.30930   0.96240   0.00000  Uiso   1.00
H638   H     0.40429   0.28985   0.98234   0.00000  Uiso   1.00
H639   H     0.45283   0.33278   0.98797   0.00000  Uiso   1.00
H640   H     0.40795   0.32883   0.93326   0.00000  Uiso   1.00
C641   C     0.83321   0.16506   0.75021   0.00000  Uiso   1.00
C642   C     0.83319   0.33501   0.74980   0.00000  Uiso   1.00
C643   C     0.86284   0.27987   0.55672   0.00000  Uiso   1.00
C644   C     0.86513   0.22236   0.95095   0.00000  Uiso   1.00
C645   C     0.86263   0.27961   0.60763   0.00000  Uiso   1.00
C646   C     0.86494   0.22267   0.89999   0.00000  Uiso   1.00
C647   C     0.80355   0.22014   0.60156   0.00000  Uiso   1.00
C648   C     0.80137   0.27760   0.89066   0.00000  Uiso   1.00
C649   C     0.80248   0.21899   0.55021   0.00000  Uiso   1.00
C650   C     0.80014   0.27857   0.94170   0.00000  Uiso   1.00
C651   C     0.83268   0.24947   0.52717   0.00000  Uiso   1.00
C652   C     0.83263   0.25038   0.97263   0.00000  Uiso   1.00
C653   C     0.73482   0.25054   0.73785   0.00000  Uiso   1.00
C654   C     0.93188   0.24898   0.76212   0.00000  Uiso   1.00
C655   C     0.68047   0.25631   0.73188   0.00000  Uiso   1.00
C656   C     0.98625   0.24254   0.76783   0.00000  Uiso   1.00
C657   C     0.87370   0.04718   0.77379   0.00000  Uiso   1.00
C658   C     0.87210   0.45404   0.73556   0.00000  Uiso   1.00
C659   C     0.87524   0.09342   0.77366   0.00000  Uiso   1.00
C660   C     0.87346   0.40787   0.73474   0.00000  Uiso   1.00
C661   C     0.83269   0.11690   0.75082   0.00000  Uiso   1.00
C662   C     0.83237   0.38330   0.74937   0.00000  Uiso   1.00
C663   C     0.78919   0.09413   0.72879   0.00000  Uiso   1.00
C664   C     0.79046   0.40517   0.76441   0.00000  Uiso   1.00
C665   C     0.78824   0.04788   0.72958   0.00000  Uiso   1.00
C666   C     0.78965   0.45144   0.76462   0.00000  Uiso   1.00
C667   C     0.83051   0.02438   0.75172   0.00000  Uiso   1.00
C668   C     0.83054   0.47587   0.75054   0.00000  Uiso   1.00
Cu669  Cu    0.83333   0.24999   0.79821   0.00000  Uiso   1.00
Cu670  Cu    0.83333   0.25000   0.70178   0.00000  Uiso   1.00
H671   H     0.90617   0.02876   0.79117   0.00000  Uiso   1.00
H672   H     0.90340   0.47318   0.72421   0.00000  Uiso   1.00
H673   H     0.75490   0.03035   0.71217   0.00000  Uiso   1.00
H674   H     0.75748   0.46825   0.77642   0.00000  Uiso   1.00
H675   H     0.88637   0.30380   0.54042   0.00000  Uiso   1.00
H676   H     0.89050   0.20026   0.97341   0.00000  Uiso   1.00
H677   H     0.88597   0.30328   0.62978   0.00000  Uiso   1.00
H678   H     0.89020   0.20091   0.88388   0.00000  Uiso   1.00
H679   H     0.78039   0.19708   0.61945   0.00000  Uiso   1.00
H680   H     0.77659   0.29900   0.86673   0.00000  Uiso   1.00
N681   N     0.83333   0.25001   0.62934   0.00000  Uiso   1.00
N682   N     0.83333   0.24999   0.87065   0.00000  Uiso   1.00
O683   O     0.83334   0.18572   0.79071   0.00000  Uiso   1.00
O684   O     0.83333   0.31427   0.70928   0.00000  Uiso   1.00
O685   O     0.83334   0.18573   0.70928   0.00000  Uiso   1.00
O686   O     0.83333   0.31427   0.79072   0.00000  Uiso   1.00
O687   O     0.75828   0.24999   0.78132   0.00000  Uiso   1.00
O688   O     0.90839   0.25001   0.71868   0.00000  Uiso   1.00
O689   O     0.75828   0.25000   0.69988   0.00000  Uiso   1.00
O690   O     0.90839   0.25000   0.80011   0.00000  Uiso   1.00
C691   C     0.99162   0.28130   0.68599   0.00000  Uiso   1.00
H692   H     0.68812   0.29695   0.66664   0.00000  Uiso   1.00
H693   H     0.96952   0.25832   0.65993   0.00000  Uiso   1.00
H694   H     0.96750   0.30872   0.69545   0.00000  Uiso   1.00
C695   C     0.67521   0.21642   0.81295   0.00000  Uiso   1.00
H696   H     0.97857   0.20123   0.83243   0.00000  Uiso   1.00
H697   H     0.69868   0.18864   0.80252   0.00000  Uiso   1.00
H698   H     0.69812   0.23854   0.83940   0.00000  Uiso   1.00
C699   C     0.92264   0.11708   0.79675   0.00000  Uiso   1.00
H700   H     0.93767   0.13886   0.76927   0.00000  Uiso   1.00
H701   H     0.91363   0.13740   0.82770   0.00000  Uiso   1.00
H702   H     0.95308   0.09352   0.81102   0.00000  Uiso   1.00
C703   C     0.91922   0.38554   0.71931   0.00000  Uiso   1.00
H704   H     0.90752   0.36683   0.68527   0.00000  Uiso   1.00
H705   H     0.94917   0.40978   0.71200   0.00000  Uiso   1.00
H706   H     0.93604   0.36269   0.74868   0.00000  Uiso   1.00
N707   N     0.74581   0.11808   0.70608   0.00000  Uiso   1.00
H708   H     0.73851   0.10833   0.66959   0.00000  Uiso   1.00
H709   H     0.71439   0.10883   0.72327   0.00000  Uiso   1.00
N710   N     0.74847   0.38031   0.77886   0.00000  Uiso   1.00
H711   H     0.71546   0.38959   0.75615   0.00000  Uiso   1.00
H712   H     0.74415   0.38921   0.81456   0.00000  Uiso   1.00
C713   C     0.76911   0.18563   0.52078   0.00000  Uiso   1.00
H714   H     0.74110   0.20300   0.99389   0.00000  Uiso   1.00
H715   H     0.79290   0.16385   0.50104   0.00000  Uiso   1.00
H716   H     0.74779   0.16447   0.54434   0.00000  Uiso   1.00
C717   C     0.76420   0.30930   0.96240   0.00000  Uiso   1.00
H718   H     0.73762   0.28985   0.98234   0.00000  Uiso   1.00
H719   H     0.78616   0.33278   0.98797   0.00000  Uiso   1.00
H720   H     0.74129   0.32883   0.93326   0.00000  Uiso   1.00
C721   C     0.16654   0.66506   0.75021   0.00000  Uiso   1.00
C722   C     0.16652   0.83501   0.74980   0.00000  Uiso   1.00
C723   C     0.19617   0.77987   0.55672   0.00000  Uiso   1.00
C724   C     0.19847   0.72236   0.95095   0.00000  Uiso   1.00
C725   C     0.19596   0.77961   0.60763   0.00000  Uiso   1.00
C726   C     0.19828   0.72267   0.89999   0.00000  Uiso   1.00
C727   C     0.13689   0.72014   0.60156   0.00000  Uiso   1.00
C728   C     0.13470   0.77760   0.89066   0.00000  Uiso   1.00
C729   C     0.13581   0.71899   0.55021   0.00000  Uiso   1.00
C730   C     0.13347   0.77857   0.94170   0.00000  Uiso   1.00
C731   C     0.16602   0.74947   0.52717   0.00000  Uiso   1.00
C732   C     0.16597   0.75038   0.97263   0.00000  Uiso   1.00
C733   C     0.06815   0.75054   0.73785   0.00000  Uiso   1.00
C734   C     0.26521   0.74898   0.76212   0.00000  Uiso   1.00
C735   C     0.01381   0.75631   0.73188   0.00000  Uiso   1.00
C736   C     0.31958   0.74254   0.76783   0.00000  Uiso   1.00
C737   C     0.20703   0.54718   0.77379   0.00000  Uiso   1.00
C738   C     0.20544   0.95404   0.73556   0.00000  Uiso   1.00
C739   C     0.20857   0.59342   0.77366   0.00000  Uiso   1.00
C740   C     0.20679   0.90787   0.73474   0.00000  Uiso   1.00
C741   C     0.16602   0.61690   0.75082   0.00000  Uiso   1.00
C742   C     0.16570   0.88330   0.74937   0.00000  Uiso   1.00
C743   C     0.12252   0.59413   0.72879   0.00000  Uiso   1.00
C744   C     0.12379   0.90517   0.76441   0.00000  Uiso   1.00
C745   C     0.12157   0.54788   0.72958   0.00000  Uiso   1.00
C746   C     0.12298   0.95144   0.76462   0.00000  Uiso   1.00
C747   C     0.16385   0.52438   0.75172   0.00000  Uiso   1.00
C748   C     0.16388   0.97587   0.75054   0.00000  Uiso   1.00
Cu749  Cu    0.16667   0.74999   0.79821   0.00000  Uiso   1.00
Cu750  Cu    0.16667   0.75000   0.70178   0.00000  Uiso   1.00
H751   H     0.23951   0.52876   0.79117   0.00000  Uiso   1.00
H752   H     0.23673   0.97318   0.72421   0.00000  Uiso   1.00
H753   H     0.08823   0.53035   0.71217   0.00000  Uiso   1.00
H754   H     0.09081   0.96825   0.77642   0.00000  Uiso   1.00
H755   H     0.21970   0.80380   0.54042   0.00000  Uiso   1.00
H756   H     0.22384   0.70026   0.97341   0.00000  Uiso   1.00
H757   H     0.21931   0.80328   0.62978   0.00000  Uiso   1.00
H758   H     0.22354   0.70091   0.88388   0.00000  Uiso   1.00
H759   H     0.11372   0.69708   0.61945   0.00000  Uiso   1.00
H760   H     0.10992   0.79900   0.86673   0.00000  Uiso   1.00
N761   N     0.16667   0.75001   0.62934   0.00000  Uiso   1.00
N762   N     0.16667   0.74999   0.87065   0.00000  Uiso   1.00
O763   O     0.16667   0.68572   0.79071   0.00000  Uiso   1.00
O764   O     0.16666   0.81427   0.70928   0.00000  Uiso   1.00
O765   O     0.16667   0.68573   0.70928   0.00000  Uiso   1.00
O766   O     0.16666   0.81427   0.79072   0.00000  Uiso   1.00
O767   O     0.09161   0.74999   0.78132   0.00000  Uiso   1.00
O768   O     0.24172   0.75001   0.71868   0.00000  Uiso   1.00
O769   O     0.09161   0.75000   0.69988   0.00000  Uiso   1.00
O770   O     0.24172   0.75000   0.80011   0.00000  Uiso   1.00
C771   C     0.32495   0.78130   0.68599   0.00000  Uiso   1.00
H772   H     0.02145   0.79695   0.66664   0.00000  Uiso   1.00
H773   H     0.30286   0.75832   0.65993   0.00000  Uiso   1.00
H774   H     0.30083   0.80872   0.69545   0.00000  Uiso   1.00
C775   C     0.00855   0.71642   0.81295   0.00000  Uiso   1.00
H776   H     0.31190   0.70123   0.83243   0.00000  Uiso   1.00
H777   H     0.03201   0.68864   0.80252   0.00000  Uiso   1.00
H778   H     0.03145   0.73854   0.83940   0.00000  Uiso   1.00
C779   C     0.25597   0.61708   0.79675   0.00000  Uiso   1.00
H780   H     0.27101   0.63886   0.76927   0.00000  Uiso   1.00
H781   H     0.24696   0.63740   0.82770   0.00000  Uiso   1.00
H782   H     0.28641   0.59352   0.81102   0.00000  Uiso   1.00
C783   C     0.25256   0.88554   0.71931   0.00000  Uiso   1.00
H784   H     0.24085   0.86683   0.68527   0.00000  Uiso   1.00
H785   H     0.28250   0.90978   0.71200   0.00000  Uiso   1.00
H786   H     0.26938   0.86269   0.74868   0.00000  Uiso   1.00
N787   N     0.07914   0.61808   0.70608   0.00000  Uiso   1.00
H788   H     0.07184   0.60833   0.66959   0.00000  Uiso   1.00
H789   H     0.04772   0.60883   0.72327   0.00000  Uiso   1.00
N790   N     0.08180   0.88031   0.77886   0.00000  Uiso   1.00
H791   H     0.04879   0.88959   0.75615   0.00000  Uiso   1.00
H792   H     0.07749   0.88921   0.81456   0.00000  Uiso   1.00
C793   C     0.10245   0.68563   0.52078   0.00000  Uiso   1.00
H794   H     0.07444   0.70300   0.99389   0.00000  Uiso   1.00
H795   H     0.12624   0.66385   0.50104   0.00000  Uiso   1.00
H796   H     0.08112   0.66447   0.54434   0.00000  Uiso   1.00
C797   C     0.09754   0.80930   0.96240   0.00000  Uiso   1.00
H798   H     0.07095   0.78985   0.98234   0.00000  Uiso   1.00
H799   H     0.11950   0.83278   0.98797   0.00000  Uiso   1.00
H800   H     0.07462   0.82883   0.93326   0.00000  Uiso   1.00
C801   C     0.49987   0.66506   0.75021   0.00000  Uiso   1.00
C802   C     0.49986   0.83501   0.74980   0.00000  Uiso   1.00
C803   C     0.52950   0.77987   0.55672   0.00000  Uiso   1.00
C804   C     0.53180   0.72236   0.95095   0.00000  Uiso   1.00
C805   C     0.52929   0.77961   0.60763   0.00000  Uiso   1.00
C806   C     0.53161   0.72267   0.89999   0.00000  Uiso   1.00
C807   C     0.47022   0.72014   0.60156   0.00000  Uiso   1.00
C808   C     0.46803   0.77760   0.89066   0.00000  Uiso   1.00
C809   C     0.46914   0.71899   0.55021   0.00000  Uiso   1.00
C810   C     0.46680   0.77857   0.94170   0.00000  Uiso   1.00
C811   C     0.49935   0.74947   0.52717   0.00000  Uiso   1.00
C812   C     0.49930   0.75038   0.97263   0.00000  Uiso   1.00
C813   C     0.40149   0.75054   0.73785   0.00000  Uiso   1.00
C814   C     0.59855   0.74898   0.76212   0.00000  Uiso   1.00
C815   C     0.34714   0.75631   0.73188   0.00000  Uiso   1.00
C816   C     0.65292   0.74254   0.76783   0.00000  Uiso   1.00
C817   C     0.54036   0.54718   0.77379   0.00000  Uiso   1.00
C818   C     0.53877   0.95404   0.73556   0.00000  Uiso   1.00
C819   C     0.54191   0.59342   0.77366   0.00000  Uiso   1.00
C820   C     0.54012   0.90787   0.73474   0.00000  Uiso   1.00
C821   C     0.49936   0.61690   0.75082   0.00000  Uiso   1.00
C822   C     0.49904   0.88330   0.74937   0.00000  Uiso   1.00
C823   C     0.45585   0.59413   0.72879   0.00000  Uiso   1.00
C824   C     0.45713   0.90517   0.76441   0.00000  Uiso   1.00
C825   C     0.45491   0.54788   0.72958   0.00000  Uiso   1.00
C826   C     0.45632   0.95144   0.76462   0.00000  Uiso   1.00
C827   C     0.49718   0.52438   0.75172   0.00000  Uiso   1.00
C828   C     0.49721   0.97587   0.75054   0.00000  Uiso   1.00
Cu829  Cu    0.50000   0.74999   0.79821   0.00000  Uiso   1.00
Cu830  Cu    0.50000   0.75000   0.70178   0.00000  Uiso   1.00
H831   H     0.57284   0.52876   0.79117   0.00000  Uiso   1.00
H832   H     0.57006   0.97318   0.72421   0.00000  Uiso   1.00
H833   H     0.42157   0.53035   0.71217   0.00000  Uiso   1.00
H834   H     0.42414   0.96825   0.77642   0.00000  Uiso   1.00
H835   H     0.55303   0.80380   0.54042   0.00000  Uiso   1.00
H836   H     0.55717   0.70026   0.97341   0.00000  Uiso   1.00
H837   H     0.55264   0.80328   0.62978   0.00000  Uiso   1.00
H838   H     0.55687   0.70091   0.88388   0.00000  Uiso   1.00
H839   H     0.44705   0.69708   0.61945   0.00000  Uiso   1.00
H840   H     0.44325   0.79900   0.86673   0.00000  Uiso   1.00
N841   N     0.50000   0.75001   0.62934   0.00000  Uiso   1.00
N842   N     0.50000   0.74999   0.87065   0.00000  Uiso   1.00
O843   O     0.50000   0.68572   0.79071   0.00000  Uiso   1.00
O844   O     0.50000   0.81427   0.70928   0.00000  Uiso   1.00
O845   O     0.50000   0.68573   0.70928   0.00000  Uiso   1.00
O846   O     0.50000   0.81427   0.79072   0.00000  Uiso   1.00
O847   O     0.42495   0.74999   0.78132   0.00000  Uiso   1.00
O848   O     0.57505   0.75001   0.71868   0.00000  Uiso   1.00
O849   O     0.42495   0.75000   0.69988   0.00000  Uiso   1.00
O850   O     0.57505   0.75000   0.80011   0.00000  Uiso   1.00
C851   C     0.65828   0.78130   0.68599   0.00000  Uiso   1.00
H852   H     0.35478   0.79695   0.66664   0.00000  Uiso   1.00
H853   H     0.63619   0.75832   0.65993   0.00000  Uiso   1.00
H854   H     0.63417   0.80872   0.69545   0.00000  Uiso   1.00
C855   C     0.34188   0.71642   0.81295   0.00000  Uiso   1.00
H856   H     0.64523   0.70123   0.83243   0.00000  Uiso   1.00
H857   H     0.36535   0.68864   0.80252   0.00000  Uiso   1.00
H858   H     0.36478   0.73854   0.83940   0.00000  Uiso   1.00
C859   C     0.58930   0.61708   0.79675   0.00000  Uiso   1.00
H860   H     0.60434   0.63886   0.76927   0.00000  Uiso   1.00
H861   H     0.58030   0.63740   0.82770   0.00000  Uiso   1.00
H862   H     0.61974   0.59352   0.81102   0.00000  Uiso   1.00
C863   C     0.58589   0.88554   0.71931   0.00000  Uiso   1.00
H864   H     0.57418   0.86683   0.68527   0.00000  Uiso   1.00
H865   H     0.61584   0.90978   0.71200   0.00000  Uiso   1.00
H866   H     0.60271   0.86269   0.74868   0.00000  Uiso   1.00
N867   N     0.41247   0.61808   0.70608   0.00000  Uiso   1.00
H868   H     0.40518   0.60833   0.66959   0.00000  Uiso   1.00
H869   H     0.38105   0.60883   0.72327   0.00000  Uiso   1.00
N870   N     0.41514   0.88031   0.77886   0.00000  Uiso   1.00
H871   H     0.38213   0.88959   0.75615   0.00000  Uiso   1.00
H872   H     0.41082   0.88921   0.81456   0.00000  Uiso   1.00
C873   C     0.43578   0.68563   0.52078   0.00000  Uiso   1.00
H874   H     0.40777   0.70300   0.99389   0.00000  Uiso   1.00
H875   H     0.45957   0.66385   0.50104   0.00000  Uiso   1.00
H876   H     0.41445   0.66447   0.54434   0.00000  Uiso   1.00
C877   C     0.43087   0.80930   0.96240   0.00000  Uiso   1.00
H878   H     0.40429   0.78985   0.98234   0.00000  Uiso   1.00
H879   H     0.45283   0.83278   0.98797   0.00000  Uiso   1.00
H880   H     0.40795   0.82883   0.93326   0.00000  Uiso   1.00
C881   C     0.83321   0.66506   0.75021   0.00000  Uiso   1.00
C882   C     0.83319   0.83501   0.74980   0.00000  Uiso   1.00
C883   C     0.86284   0.77987   0.55672   0.00000  Uiso   1.00
C884   C     0.86513   0.72236   0.95095   0.00000  Uiso   1.00
C885   C     0.86263   0.77961   0.60763   0.00000  Uiso   1.00
C886   C     0.86494   0.72267   0.89999   0.00000  Uiso   1.00
C887   C     0.80355   0.72014   0.60156   0.00000  Uiso   1.00
C888   C     0.80137   0.77760   0.89066   0.00000  Uiso   1.00
C889   C     0.80248   0.71899   0.55021   0.00000  Uiso   1.00
C890   C     0.80014   0.77857   0.94170   0.00000  Uiso   1.00
C891   C     0.83268   0.74947   0.52717   0.00000  Uiso   1.00
C892   C     0.83263   0.75038   0.97263   0.00000  Uiso   1.00
C893   C     0.73482   0.75054   0.73785   0.00000  Uiso   1.00
C894   C     0.93188   0.74898   0.76212   0.00000  Uiso   1.00
C895   C     0.68047   0.75631   0.73188   0.00000  Uiso   1.00
C896   C     0.98625   0.74254   0.76783   0.00000  Uiso   1.00
C897   C     0.87370   0.54718   0.77379   0.00000  Uiso   1.00
C898   C     0.87210   0.95404   0.73556   0.00000  Uiso   1.00
C899   C     0.87524   0.59342   0.77366   0.00000  Uiso   1.00
C900   C     0.87346   0.90787   0.73474   0.00000  Uiso   1.00
C901   C     0.83269   0.61690   0.75082   0.00000  Uiso   1.00
C902   C     0.83237   0.88330   0.74937   0.00000  Uiso   1.00
C903   C     0.78919   0.59413   0.72879   0.00000  Uiso   1.00
C904   C     0.79046   0.90517   0.76441   0.00000  Uiso   1.00
C905   C     0.78824   0.54788   0.72958   0.00000  Uiso   1.00
C906   C     0.78965   0.95144   0.76462   0.00000  Uiso   1.00
C907   C     0.83051   0.52438   0.75172   0.00000  Uiso   1.00
C908   C     0.83054   0.97587   0.75054   0.00000  Uiso   1.00
Cu909  Cu    0.83333   0.74999   0.79821   0.00000  Uiso   1.00
Cu910  Cu    0.83333   0.75000   0.70178   0.00000  Uiso   1.00
H911   H     0.90617   0.52876   0.79117   0.00000  Uiso   1.00
H912   H     0.90340   0.97318   0.72421   0.00000  Uiso   1.00
H913   H     0.75490   0.53035   0.71217   0.00000  Uiso   1.00
H914   H     0.75748   0.96825   0.77642   0.00000  Uiso   1.00
H915   H     0.88637   0.80380   0.54042   0.00000  Uiso   1.00
H916   H     0.89050   0.70026   0.97341   0.00000  Uiso   1.00
H917   H     0.88597   0.80328   0.62978   0.00000  Uiso   1.00
H918   H     0.89020   0.70091   0.88388   0.00000  Uiso   1.00
H919   H     0.78039   0.69708   0.61945   0.00000  Uiso   1.00
H920   H     0.77659   0.79900   0.86673   0.00000  Uiso   1.00
N921   N     0.83333   0.75001   0.62934   0.00000  Uiso   1.00
N922   N     0.83333   0.74999   0.87065   0.00000  Uiso   1.00
O923   O     0.83334   0.68572   0.79071   0.00000  Uiso   1.00
O924   O     0.83333   0.81427   0.70928   0.00000  Uiso   1.00
O925   O     0.83334   0.68573   0.70928   0.00000  Uiso   1.00
O926   O     0.83333   0.81427   0.79072   0.00000  Uiso   1.00
O927   O     0.75828   0.74999   0.78132   0.00000  Uiso   1.00
O928   O     0.90839   0.75001   0.71868   0.00000  Uiso   1.00
O929   O     0.75828   0.75000   0.69988   0.00000  Uiso   1.00
O930   O     0.90839   0.75000   0.80011   0.00000  Uiso   1.00
C931   C     0.99162   0.78130   0.68599   0.00000  Uiso   1.00
H932   H     0.68812   0.79695   0.66664   0.00000  Uiso   1.00
H933   H     0.96952   0.75832   0.65993   0.00000  Uiso   1.00
H934   H     0.96750   0.80872   0.69545   0.00000  Uiso   1.00
C935   C     0.67521   0.71642   0.81295   0.00000  Uiso   1.00
H936   H     0.97857   0.70123   0.83243   0.00000  Uiso   1.00
H937   H     0.69868   0.68864   0.80252   0.00000  Uiso   1.00
H938   H     0.69812   0.73854   0.83940   0.00000  Uiso   1.00
C939   C     0.92264   0.61708   0.79675   0.00000  Uiso   1.00
H940   H     0.93767   0.63886   0.76927   0.00000  Uiso   1.00
H941   H     0.91363   0.63740   0.82770   0.00000  Uiso   1.00
H942   H     0.95308   0.59352   0.81102   0.00000  Uiso   1.00
C943   C     0.91922   0.88554   0.71931   0.00000  Uiso   1.00
H944   H     0.90752   0.86683   0.68527   0.00000  Uiso   1.00
H945   H     0.94917   0.90978   0.71200   0.00000  Uiso   1.00
H946   H     0.93604   0.86269   0.74868   0.00000  Uiso   1.00
N947   N     0.74581   0.61808   0.70608   0.00000  Uiso   1.00
H948   H     0.73851   0.60833   0.66959   0.00000  Uiso   1.00
H949   H     0.71439   0.60883   0.72327   0.00000  Uiso   1.00
N950   N     0.74847   0.88031   0.77886   0.00000  Uiso   1.00
H951   H     0.71546   0.88959   0.75615   0.00000  Uiso   1.00
H952   H     0.74415   0.88921   0.81456   0.00000  Uiso   1.00
C953   C     0.76911   0.68563   0.52078   0.00000  Uiso   1.00
H954   H     0.74110   0.70300   0.99389   0.00000  Uiso   1.00
H955   H     0.79290   0.66385   0.50104   0.00000  Uiso   1.00
H956   H     0.74779   0.66447   0.54434   0.00000  Uiso   1.00
C957   C     0.76420   0.80930   0.96240   0.00000  Uiso   1.00
H958   H     0.73762   0.78985   0.98234   0.00000  Uiso   1.00
H959   H     0.78616   0.83278   0.98797   0.00000  Uiso   1.00
H960   H     0.74129   0.82883   0.93326   0.00000  Uiso   1.00
loop_
_geom_bond_atom_site_label_1
_geom_bond_atom_site_label_2
_geom_bond_distance
_geom_bond_site_symmetry_2
_ccdc_geom_bond_type
C1     C21     1.454   .     S
C1     O43     1.286   .     A
C1     O45     1.287   .     A
C2     O46     1.287   .     A
C2     O44     1.288   .     A
C2     C22     1.458   .     S
C3     H35     1.083   .     S
C3     C5      1.407   .     A
C3     C11     1.405   .     A
C4     H36     1.083   .     S
C4     C12     1.405   .     A
C4     C6      1.407   .     A
C5     H37     1.080   .     S
C5     N41     1.364   .     A
C6     H38     1.081   .     S
C6     N42     1.364   .     A
C7     C9      1.416   .     A
C7     N41     1.365   .     A
C7     H39     1.082   .     S
C8     N42     1.365   .     A
C8     C10     1.415   .     A
C8     H40     1.082   .     S
C9     C73     1.505   .     S
C9     C11     1.415   .     A
C10    C77     1.505   .     S
C10    C12     1.415   .     A
C11    C492    1.507   1_554 S
C12    C491    1.507   .     S
C13    O47     1.277   .     A
C13    O49     1.288   .     A
C13    C15     1.439   .     S
C14    O48     1.277   .     A
C14    C16     1.443   .     S
C14    O50     1.290   .     A
C15    C176    1.368   1_455 S
C15    C211    1.522   1_455 S
C16    C95     1.368   .     S
C16    C135    1.524   .     S
C17    C27     1.401   .     A
C17    H31     1.084   .     S
C17    C19     1.396   .     A
C18    C20     1.395   .     A
C18    C28     1.399   .     A
C18    H32     1.084   .     S
C19    C21     1.411   .     A
C19    C59     1.508   .     S
C20    C22     1.412   .     A
C20    C63     1.504   .     S
C21    C23     1.406   .     A
C22    C24     1.408   .     A
C23    N67     1.433   .     S
C23    C25     1.396   .     A
C24    N70     1.434   .     S
C24    C26     1.397   .     A
C25    C27     1.399   .     A
C25    H33     1.084   .     S
C26    H34     1.084   .     S
C26    C28     1.400   .     A
C27    C268    1.465   1_545 S
C28    C267    1.465   .     S
Cu29   N42     2.001   .     S
Cu29   O47     1.981   .     S
Cu29   O43     1.953   .     S
Cu29   O50     1.982   .     S
Cu29   Cu30    2.664   .     S
Cu29   O46     1.950   .     S
Cu30   O45     1.950   .     S
Cu30   O48     1.981   .     S
Cu30   N41     2.001   .     S
Cu30   O44     1.953   .     S
Cu30   O49     1.982   .     S
C51    H54     1.105   .     S
C51    H53     1.110   .     S
C51    C95     1.522   .     S
C51    H132    1.110   .     S
H52    C211    1.110   1_455 S
C55    H57     1.111   .     S
C55    H58     1.110   .     S
C55    C176    1.524   1_455 S
C55    H216    1.110   1_455 S
H56    C135    1.110   .     S
C59    H60     1.111   .     S
C59    H61     1.109   .     S
C59    H62     1.111   .     S
C63    H65     1.111   .     S
C63    H66     1.111   .     S
C63    H64     1.108   .     S
N67    H68     1.046   .     S
N67    H69     1.046   .     S
N70    H71     1.046   .     S
N70    H72     1.046   .     S
C73    H75     1.110   .     S
C73    H76     1.111   .     S
C73    H554    1.110   1_554 S
H74    C553    1.110   .     S
C77    H78     1.110   .     S
C77    H79     1.110   .     S
C77    H80     1.111   .     S
C81    C101    1.454   .     S
C81    O123    1.286   .     A
C81    O125    1.287   .     A
C82    O126    1.287   .     A
C82    O124    1.288   .     A
C82    C102    1.458   .     S
C83    H115    1.083   .     S
C83    C85     1.407   .     A
C83    C91     1.405   .     A
C84    H116    1.083   .     S
C84    C92     1.405   .     A
C84    C86     1.407   .     A
C85    H117    1.080   .     S
C85    N121    1.364   .     A
C86    H118    1.081   .     S
C86    N122    1.364   .     A
C87    C89     1.416   .     A
C87    N121    1.365   .     A
C87    H119    1.082   .     S
C88    N122    1.365   .     A
C88    C90     1.415   .     A
C88    H120    1.082   .     S
C89    C153    1.505   .     S
C89    C91     1.415   .     A
C90    C157    1.505   .     S
C90    C92     1.415   .     A
C91    C572    1.507   1_554 S
C92    C571    1.507   .     S
C93    O127    1.277   .     A
C93    O129    1.288   .     A
C93    C95     1.439   .     S
C94    O128    1.277   .     A
C94    C96     1.443   .     S
C94    O130    1.290   .     A
C96    C175    1.368   .     S
C96    C215    1.524   .     S
C97    C107    1.401   .     A
C97    H111    1.084   .     S
C97    C99     1.396   .     A
C98    C100    1.395   .     A
C98    C108    1.399   .     A
C98    H112    1.084   .     S
C99    C101    1.411   .     A
C99    C139    1.508   .     S
C100   C102    1.412   .     A
C100   C143    1.504   .     S
C101   C103    1.406   .     A
C102   C104    1.408   .     A
C103   N147    1.433   .     S
C103   C105    1.396   .     A
C104   N150    1.434   .     S
C104   C106    1.397   .     A
C105   C107    1.399   .     A
C105   H113    1.084   .     S
C106   H114    1.084   .     S
C106   C108    1.400   .     A
C107   C348    1.465   1_545 S
C108   C347    1.465   .     S
Cu109  N122    2.001   .     S
Cu109  O127    1.981   .     S
Cu109  O123    1.953   .     S
Cu109  O130    1.982   .     S
Cu109  Cu110   2.664   .     S
Cu109  O126    1.950   .     S
Cu110  O125    1.950   .     S
Cu110  O128    1.981   .     S
Cu110  N121    2.001   .     S
Cu110  O124    1.953   .     S
Cu110  O129    1.982   .     S
C131   H134    1.105   .     S
C131   H133    1.110   .     S
C131   C175    1.522   .     S
C131   H212    1.110   .     S
C135   H137    1.111   .     S
C135   H138    1.110   .     S
H136   C215    1.110   .     S
C139   H140    1.111   .     S
C139   H141    1.109   .     S
C139   H142    1.111   .     S
C143   H145    1.111   .     S
C143   H146    1.111   .     S
C143   H144    1.108   .     S
N147   H148    1.046   .     S
N147   H149    1.046   .     S
N150   H151    1.046   .     S
N150   H152    1.046   .     S
C153   H155    1.110   .     S
C153   H156    1.111   .     S
C153   H634    1.110   1_554 S
H154   C633    1.110   .     S
C157   H158    1.110   .     S
C157   H159    1.110   .     S
C157   H160    1.111   .     S
C161   C181    1.454   .     S
C161   O203    1.286   .     A
C161   O205    1.287   .     A
C162   O206    1.287   .     A
C162   O204    1.288   .     A
C162   C182    1.458   .     S
C163   H195    1.083   .     S
C163   C165    1.407   .     A
C163   C171    1.405   .     A
C164   H196    1.083   .     S
C164   C172    1.405   .     A
C164   C166    1.407   .     A
C165   H197    1.080   .     S
C165   N201    1.364   .     A
C166   H198    1.081   .     S
C166   N202    1.364   .     A
C167   C169    1.416   .     A
C167   N201    1.365   .     A
C167   H199    1.082   .     S
C168   N202    1.365   .     A
C168   C170    1.415   .     A
C168   H200    1.082   .     S
C169   C233    1.505   .     S
C169   C171    1.415   .     A
C170   C237    1.505   .     S
C170   C172    1.415   .     A
C171   C652    1.507   1_554 S
C172   C651    1.507   .     S
C173   O207    1.277   .     A
C173   O209    1.288   .     A
C173   C175    1.439   .     S
C174   O208    1.277   .     A
C174   C176    1.443   .     S
C174   O210    1.290   .     A
C176   C15     1.368   1_655 S
C176   C55     1.524   1_655 S
C177   C187    1.401   .     A
C177   H191    1.084   .     S
C177   C179    1.396   .     A
C178   C180    1.395   .     A
C178   C188    1.399   .     A
C178   H192    1.084   .     S
C179   C181    1.411   .     A
C179   C219    1.508   .     S
C180   C182    1.412   .     A
C180   C223    1.504   .     S
C181   C183    1.406   .     A
C182   C184    1.408   .     A
C183   N227    1.433   .     S
C183   C185    1.396   .     A
C184   N230    1.434   .     S
C184   C186    1.397   .     A
C185   C187    1.399   .     A
C185   H193    1.084   .     S
C186   H194    1.084   .     S
C186   C188    1.400   .     A
C187   C428    1.465   1_545 S
C188   C427    1.465   .     S
Cu189  N202    2.001   .     S
Cu189  O207    1.981   .     S
Cu189  O203    1.953   .     S
Cu189  O210    1.982   .     S
Cu189  Cu190   2.664   .     S
Cu189  O206    1.950   .     S
Cu190  O205    1.950   .     S
Cu190  O208    1.981   .     S
Cu190  N201    2.001   .     S
Cu190  O204    1.953   .     S
Cu190  O209    1.982   .     S
C211   H214    1.105   .     S
C211   H213    1.110   .     S
C211   C15     1.522   1_655 S
C211   H52     1.110   1_655 S
C215   H217    1.111   .     S
C215   H218    1.110   .     S
H216   C55     1.110   1_655 S
C219   H220    1.111   .     S
C219   H221    1.109   .     S
C219   H222    1.111   .     S
C223   H225    1.111   .     S
C223   H226    1.111   .     S
C223   H224    1.108   .     S
N227   H228    1.046   .     S
N227   H229    1.046   .     S
N230   H231    1.046   .     S
N230   H232    1.046   .     S
C233   H235    1.110   .     S
C233   H236    1.111   .     S
C233   H714    1.110   1_554 S
H234   C713    1.110   .     S
C237   H238    1.110   .     S
C237   H239    1.110   .     S
C237   H240    1.111   .     S
C241   C261    1.454   .     S
C241   O283    1.286   .     A
C241   O285    1.287   .     A
C242   O286    1.287   .     A
C242   O284    1.288   .     A
C242   C262    1.458   .     S
C243   H275    1.083   .     S
C243   C245    1.407   .     A
C243   C251    1.405   .     A
C244   H276    1.083   .     S
C244   C252    1.405   .     A
C244   C246    1.407   .     A
C245   H277    1.080   .     S
C245   N281    1.364   .     A
C246   H278    1.081   .     S
C246   N282    1.364   .     A
C247   C249    1.416   .     A
C247   N281    1.365   .     A
C247   H279    1.082   .     S
C248   N282    1.365   .     A
C248   C250    1.415   .     A
C248   H280    1.082   .     S
C249   C313    1.505   .     S
C249   C251    1.415   .     A
C250   C317    1.505   .     S
C250   C252    1.415   .     A
C251   C732    1.507   1_554 S
C252   C731    1.507   .     S
C253   O287    1.277   .     A
C253   O289    1.288   .     A
C253   C255    1.439   .     S
C254   O288    1.277   .     A
C254   C256    1.443   .     S
C254   O290    1.290   .     A
C255   C416    1.368   1_455 S
C255   C451    1.522   1_455 S
C256   C335    1.368   .     S
C256   C375    1.524   .     S
C257   C267    1.401   .     A
C257   H271    1.084   .     S
C257   C259    1.396   .     A
C258   C260    1.395   .     A
C258   C268    1.399   .     A
C258   H272    1.084   .     S
C259   C261    1.411   .     A
C259   C299    1.508   .     S
C260   C262    1.412   .     A
C260   C303    1.504   .     S
C261   C263    1.406   .     A
C262   C264    1.408   .     A
C263   N307    1.433   .     S
C263   C265    1.396   .     A
C264   N310    1.434   .     S
C264   C266    1.397   .     A
C265   C267    1.399   .     A
C265   H273    1.084   .     S
C266   H274    1.084   .     S
C266   C268    1.400   .     A
C268   C27     1.465   1_565 S
Cu269  N282    2.001   .     S
Cu269  O287    1.981   .     S
Cu269  O283    1.953   .     S
Cu269  O290    1.982   .     S
Cu269  Cu270   2.664   .     S
Cu269  O286    1.950   .     S
Cu270  O285    1.950   .     S
Cu270  O288    1.981   .     S
Cu270  N281    2.001   .     S
Cu270  O284    1.953   .     S
Cu270  O289    1.982   .     S
C291   H294    1.105   .     S
C291   H293    1.110   .     S
C291   C335    1.522   .     S
C291   H372    1.110   .     S
H292   C451    1.110   1_455 S
C295   H297    1.111   .     S
C295   H298    1.110   .     S
C295   C416    1.524   1_455 S
C295   H456    1.110   1_455 S
H296   C375    1.110   .     S
C299   H300    1.111   .     S
C299   H301    1.109   .     S
C299   H302    1.111   .     S
C303   H305    1.111   .     S
C303   H306    1.111   .     S
C303   H304    1.108   .     S
N307   H308    1.046   .     S
N307   H309    1.046   .     S
N310   H311    1.046   .     S
N310   H312    1.046   .     S
C313   H315    1.110   .     S
C313   H316    1.111   .     S
C313   H794    1.110   1_554 S
H314   C793    1.110   .     S
C317   H318    1.110   .     S
C317   H319    1.110   .     S
C317   H320    1.111   .     S
C321   C341    1.454   .     S
C321   O363    1.286   .     A
C321   O365    1.287   .     A
C322   O366    1.287   .     A
C322   O364    1.288   .     A
C322   C342    1.458   .     S
C323   H355    1.083   .     S
C323   C325    1.407   .     A
C323   C331    1.405   .     A
C324   H356    1.083   .     S
C324   C332    1.405   .     A
C324   C326    1.407   .     A
C325   H357    1.080   .     S
C325   N361    1.364   .     A
C326   H358    1.081   .     S
C326   N362    1.364   .     A
C327   C329    1.416   .     A
C327   N361    1.365   .     A
C327   H359    1.082   .     S
C328   N362    1.365   .     A
C328   C330    1.415   .     A
C328   H360    1.082   .     S
C329   C393    1.505   .     S
C329   C331    1.415   .     A
C330   C397    1.505   .     S
C330   C332    1.415   .     A
C331   C812    1.507   1_554 S
C332   C811    1.507   .     S
C333   O367    1.277   .     A
C333   O369    1.288   .     A
C333   C335    1.439   .     S
C334   O368    1.277   .     A
C334   C336    1.443   .     S
C334   O370    1.290   .     A
C336   C415    1.368   .     S
C336   C455    1.524   .     S
C337   C347    1.401   .     A
C337   H351    1.084   .     S
C337   C339    1.396   .     A
C338   C340    1.395   .     A
C338   C348    1.399   .     A
C338   H352    1.084   .     S
C339   C341    1.411   .     A
C339   C379    1.508   .     S
C340   C342    1.412   .     A
C340   C383    1.504   .     S
C341   C343    1.406   .     A
C342   C344    1.408   .     A
C343   N387    1.433   .     S
C343   C345    1.396   .     A
C344   N390    1.434   .     S
C344   C346    1.397   .     A
C345   C347    1.399   .     A
C345   H353    1.084   .     S
C346   H354    1.084   .     S
C346   C348    1.400   .     A
C348   C107    1.465   1_565 S
Cu349  N362    2.001   .     S
Cu349  O367    1.981   .     S
Cu349  O363    1.953   .     S
Cu349  O370    1.982   .     S
Cu349  Cu350   2.664   .     S
Cu349  O366    1.950   .     S
Cu350  O365    1.950   .     S
Cu350  O368    1.981   .     S
Cu350  N361    2.001   .     S
Cu350  O364    1.953   .     S
Cu350  O369    1.982   .     S
C371   H374    1.105   .     S
C371   H373    1.110   .     S
C371   C415    1.522   .     S
C371   H452    1.110   .     S
C375   H377    1.111   .     S
C375   H378    1.110   .     S
H376   C455    1.110   .     S
C379   H380    1.111   .     S
C379   H381    1.109   .     S
C379   H382    1.111   .     S
C383   H385    1.111   .     S
C383   H386    1.111   .     S
C383   H384    1.108   .     S
N387   H388    1.046   .     S
N387   H389    1.046   .     S
N390   H391    1.046   .     S
N390   H392    1.046   .     S
C393   H395    1.110   .     S
C393   H396    1.111   .     S
C393   H874    1.110   1_554 S
H394   C873    1.110   .     S
C397   H398    1.110   .     S
C397   H399    1.110   .     S
C397   H400    1.111   .     S
C401   C421    1.454   .     S
C401   O443    1.286   .     A
C401   O445    1.287   .     A
C402   O446    1.287   .     A
C402   O444    1.288   .     A
C402   C422    1.458   .     S
C403   H435    1.083   .     S
C403   C405    1.407   .     A
C403   C411    1.405   .     A
C404   H436    1.083   .     S
C404   C412    1.405   .     A
C404   C406    1.407   .     A
C405   H437    1.080   .     S
C405   N441    1.364   .     A
C406   H438    1.081   .     S
C406   N442    1.364   .     A
C407   C409    1.416   .     A
C407   N441    1.365   .     A
C407   H439    1.082   .     S
C408   N442    1.365   .     A
C408   C410    1.415   .     A
C408   H440    1.082   .     S
C409   C473    1.505   .     S
C409   C411    1.415   .     A
C410   C477    1.505   .     S
C410   C412    1.415   .     A
C411   C892    1.507   1_554 S
C412   C891    1.507   .     S
C413   O447    1.277   .     A
C413   O449    1.288   .     A
C413   C415    1.439   .     S
C414   O448    1.277   .     A
C414   C416    1.443   .     S
C414   O450    1.290   .     A
C416   C255    1.368   1_655 S
C416   C295    1.524   1_655 S
C417   C427    1.401   .     A
C417   H431    1.084   .     S
C417   C419    1.396   .     A
C418   C420    1.395   .     A
C418   C428    1.399   .     A
C418   H432    1.084   .     S
C419   C421    1.411   .     A
C419   C459    1.508   .     S
C420   C422    1.412   .     A
C420   C463    1.504   .     S
C421   C423    1.406   .     A
C422   C424    1.408   .     A
C423   N467    1.433   .     S
C423   C425    1.396   .     A
C424   N470    1.434   .     S
C424   C426    1.397   .     A
C425   C427    1.399   .     A
C425   H433    1.084   .     S
C426   H434    1.084   .     S
C426   C428    1.400   .     A
C428   C187    1.465   1_565 S
Cu429  N442    2.001   .     S
Cu429  O447    1.981   .     S
Cu429  O443    1.953   .     S
Cu429  O450    1.982   .     S
Cu429  Cu430   2.664   .     S
Cu429  O446    1.950   .     S
Cu430  O445    1.950   .     S
Cu430  O448    1.981   .     S
Cu430  N441    2.001   .     S
Cu430  O444    1.953   .     S
Cu430  O449    1.982   .     S
C451   H454    1.105   .     S
C451   H453    1.110   .     S
C451   C255    1.522   1_655 S
C451   H292    1.110   1_655 S
C455   H457    1.111   .     S
C455   H458    1.110   .     S
H456   C295    1.110   1_655 S
C459   H460    1.111   .     S
C459   H461    1.109   .     S
C459   H462    1.111   .     S
C463   H465    1.111   .     S
C463   H466    1.111   .     S
C463   H464    1.108   .     S
N467   H468    1.046   .     S
N467   H469    1.046   .     S
N470   H471    1.046   .     S
N470   H472    1.046   .     S
C473   H475    1.110   .     S
C473   H476    1.111   .     S
C473   H954    1.110   1_554 S
H474   C953    1.110   .     S
C477   H478    1.110   .     S
C477   H479    1.110   .     S
C477   H480    1.111   .     S
C481   C501    1.454   .     S
C481   O523    1.286   .     A
C481   O525    1.287   .     A
C482   O526    1.287   .     A
C482   O524    1.288   .     A
C482   C502    1.458   .     S
C483   H515    1.083   .     S
C483   C485    1.407   .     A
C483   C491    1.405   .     A
C484   H516    1.083   .     S
C484   C492    1.405   .     A
C484   C486    1.407   .     A
C485   H517    1.080   .     S
C485   N521    1.364   .     A
C486   H518    1.081   .     S
C486   N522    1.364   .     A
C487   C489    1.416   .     A
C487   N521    1.365   .     A
C487   H519    1.082   .     S
C488   N522    1.365   .     A
C488   C490    1.415   .     A
C488   H520    1.082   .     S
C489   C553    1.505   .     S
C489   C491    1.415   .     A
C490   C557    1.505   .     S
C490   C492    1.415   .     A
C492   C11     1.507   1_556 S
C493   O527    1.277   .     A
C493   O529    1.288   .     A
C493   C495    1.439   .     S
C494   O528    1.277   .     A
C494   C496    1.443   .     S
C494   O530    1.290   .     A
C495   C656    1.368   1_455 S
C495   C691    1.522   1_455 S
C496   C575    1.368   .     S
C496   C615    1.524   .     S
C497   C507    1.401   .     A
C497   H511    1.084   .     S
C497   C499    1.396   .     A
C498   C500    1.395   .     A
C498   C508    1.399   .     A
C498   H512    1.084   .     S
C499   C501    1.411   .     A
C499   C539    1.508   .     S
C500   C502    1.412   .     A
C500   C543    1.504   .     S
C501   C503    1.406   .     A
C502   C504    1.408   .     A
C503   N547    1.433   .     S
C503   C505    1.396   .     A
C504   N550    1.434   .     S
C504   C506    1.397   .     A
C505   C507    1.399   .     A
C505   H513    1.084   .     S
C506   H514    1.084   .     S
C506   C508    1.400   .     A
C507   C748    1.465   1_545 S
C508   C747    1.465   .     S
Cu509  N522    2.001   .     S
Cu509  O527    1.981   .     S
Cu509  O523    1.953   .     S
Cu509  O530    1.982   .     S
Cu509  Cu510   2.664   .     S
Cu509  O526    1.950   .     S
Cu510  O525    1.950   .     S
Cu510  O528    1.981   .     S
Cu510  N521    2.001   .     S
Cu510  O524    1.953   .     S
Cu510  O529    1.982   .     S
C531   H534    1.105   .     S
C531   H533    1.110   .     S
C531   C575    1.522   .     S
C531   H612    1.110   .     S
H532   C691    1.110   1_455 S
C535   H537    1.111   .     S
C535   H538    1.110   .     S
C535   C656    1.524   1_455 S
C535   H696    1.110   1_455 S
H536   C615    1.110   .     S
C539   H540    1.111   .     S
C539   H541    1.109   .     S
C539   H542    1.111   .     S
C543   H545    1.111   .     S
C543   H546    1.111   .     S
C543   H544    1.108   .     S
N547   H548    1.046   .     S
N547   H549    1.046   .     S
N550   H551    1.046   .     S
N550   H552    1.046   .     S
C553   H555    1.110   .     S
C553   H556    1.111   .     S
H554   C73     1.110   1_556 S
C557   H558    1.110   .     S
C557   H559    1.110   .     S
C557   H560    1.111   .     S
C561   C581    1.454   .     S
C561   O603    1.286   .     A
C561   O605    1.287   .     A
C562   O606    1.287   .     A
C562   O604    1.288   .     A
C562   C582    1.458   .     S
C563   H595    1.083   .     S
C563   C565    1.407   .     A
C563   C571    1.405   .     A
C564   H596    1.083   .     S
C564   C572    1.405   .     A
C564   C566    1.407   .     A
C565   H597    1.080   .     S
C565   N601    1.364   .     A
C566   H598    1.081   .     S
C566   N602    1.364   .     A
C567   C569    1.416   .     A
C567   N601    1.365   .     A
C567   H599    1.082   .     S
C568   N602    1.365   .     A
C568   C570    1.415   .     A
C568   H600    1.082   .     S
C569   C633    1.505   .     S
C569   C571    1.415   .     A
C570   C637    1.505   .     S
C570   C572    1.415   .     A
C572   C91     1.507   1_556 S
C573   O607    1.277   .     A
C573   O609    1.288   .     A
C573   C575    1.439   .     S
C574   O608    1.277   .     A
C574   C576    1.443   .     S
C574   O610    1.290   .     A
C576   C655    1.368   .     S
C576   C695    1.524   .     S
C577   C587    1.401   .     A
C577   H591    1.084   .     S
C577   C579    1.396   .     A
C578   C580    1.395   .     A
C578   C588    1.399   .     A
C578   H592    1.084   .     S
C579   C581    1.411   .     A
C579   C619    1.508   .     S
C580   C582    1.412   .     A
C580   C623    1.504   .     S
C581   C583    1.406   .     A
C582   C584    1.408   .     A
C583   N627    1.433   .     S
C583   C585    1.396   .     A
C584   N630    1.434   .     S
C584   C586    1.397   .     A
C585   C587    1.399   .     A
C585   H593    1.084   .     S
C586   H594    1.084   .     S
C586   C588    1.400   .     A
C587   C828    1.465   1_545 S
C588   C827    1.465   .     S
Cu589  N602    2.001   .     S
Cu589  O607    1.981   .     S
Cu589  O603    1.953   .     S
Cu589  O610    1.982   .     S
Cu589  Cu590   2.664   .     S
Cu589  O606    1.950   .     S
Cu590  O605    1.950   .     S
Cu590  O608    1.981   .     S
Cu590  N601    2.001   .     S
Cu590  O604    1.953   .     S
Cu590  O609    1.982   .     S
C611   H614    1.105   .     S
C611   H613    1.110   .     S
C611   C655    1.522   .     S
C611   H692    1.110   .     S
C615   H617    1.111   .     S
C615   H618    1.110   .     S
H616   C695    1.110   .     S
C619   H620    1.111   .     S
C619   H621    1.109   .     S
C619   H622    1.111   .     S
C623   H625    1.111   .     S
C623   H626    1.111   .     S
C623   H624    1.108   .     S
N627   H628    1.046   .     S
N627   H629    1.046   .     S
N630   H631    1.046   .     S
N630   H632    1.046   .     S
C633   H635    1.110   .     S
C633   H636    1.111   .     S
H634   C153    1.110   1_556 S
C637   H638    1.110   .     S
C637   H639    1.110   .     S
C637   H640    1.111   .     S
C641   C661    1.454   .     S
C641   O683    1.286   .     A
C641   O685    1.287   .     A
C642   O686    1.287   .     A
C642   O684    1.288   .     A
C642   C662    1.458   .     S
C643   H675    1.083   .     S
C643   C645    1.407   .     A
C643   C651    1.405   .     A
C644   H676    1.083   .     S
C644   C652    1.405   .     A
C644   C646    1.407   .     A
C645   H677    1.080   .     S
C645   N681    1.364   .     A
C646   H678    1.081   .     S
C646   N682    1.364   .     A
C647   C649    1.416   .     A
C647   N681    1.365   .     A
C647   H679    1.082   .     S
C648   N682    1.365   .     A
C648   C650    1.415   .     A
C648   H680    1.082   .     S
C649   C713    1.505   .     S
C649   C651    1.415   .     A
C650   C717    1.505   .     S
C650   C652    1.415   .     A
C652   C171    1.507   1_556 S
C653   O687    1.277   .     A
C653   O689    1.288   .     A
C653   C655    1.439   .     S
C654   O688    1.277   .     A
C654   C656    1.443   .     S
C654   O690    1.290   .     A
C656   C495    1.368   1_655 S
C656   C535    1.524   1_655 S
C657   C667    1.401   .     A
C657   H671    1.084   .     S
C657   C659    1.396   .     A
C658   C660    1.395   .     A
C658   C668    1.399   .     A
C658   H672    1.084   .     S
C659   C661    1.411   .     A
C659   C699    1.508   .     S
C660   C662    1.412   .     A
C660   C703    1.504   .     S
C661   C663    1.406   .     A
C662   C664    1.408   .     A
C663   N707    1.433   .     S
C663   C665    1.396   .     A
C664   N710    1.434   .     S
C664   C666    1.397   .     A
C665   C667    1.399   .     A
C665   H673    1.084   .     S
C666   H674    1.084   .     S
C666   C668    1.400   .     A
C667   C908    1.465   1_545 S
C668   C907    1.465   .     S
Cu669  N682    2.001   .     S
Cu669  O687    1.981   .     S
Cu669  O683    1.953   .     S
Cu669  O690    1.982   .     S
Cu669  Cu670   2.664   .     S
Cu669  O686    1.950   .     S
Cu670  O685    1.950   .     S
Cu670  O688    1.981   .     S
Cu670  N681    2.001   .     S
Cu670  O684    1.953   .     S
Cu670  O689    1.982   .     S
C691   H694    1.105   .     S
C691   H693    1.110   .     S
C691   C495    1.522   1_655 S
C691   H532    1.110   1_655 S
C695   H697    1.111   .     S
C695   H698    1.110   .     S
H696   C535    1.110   1_655 S
C699   H700    1.111   .     S
C699   H701    1.109   .     S
C699   H702    1.111   .     S
C703   H705    1.111   .     S
C703   H706    1.111   .     S
C703   H704    1.108   .     S
N707   H708    1.046   .     S
N707   H709    1.046   .     S
N710   H711    1.046   .     S
N710   H712    1.046   .     S
C713   H715    1.110   .     S
C713   H716    1.111   .     S
H714   C233    1.110   1_556 S
C717   H718    1.110   .     S
C717   H719    1.110   .     S
C717   H720    1.111   .     S
C721   C741    1.454   .     S
C721   O763    1.286   .     A
C721   O765    1.287   .     A
C722   O766    1.287   .     A
C722   O764    1.288   .     A
C722   C742    1.458   .     S
C723   H755    1.083   .     S
C723   C725    1.407   .     A
C723   C731    1.405   .     A
C724   H756    1.083   .     S
C724   C732    1.405   .     A
C724   C726    1.407   .     A
C725   H757    1.080   .     S
C725   N761    1.364   .     A
C726   H758    1.081   .     S
C726   N762    1.364   .     A
C727   C729    1.416   .     A
C727   N761    1.365   .     A
C727   H759    1.082   .     S
C728   N762    1.365   .     A
C728   C730    1.415   .     A
C728   H760    1.082   .     S
C729   C793    1.505   .     S
C729   C731    1.415   .     A
C730   C797    1.505   .     S
C730   C732    1.415   .     A
C732   C251    1.507   1_556 S
C733   O767    1.277   .     A
C733   O769    1.288   .     A
C733   C735    1.439   .     S
C734   O768    1.277   .     A
C734   C736    1.443   .     S
C734   O770    1.290   .     A
C735   C896    1.368   1_455 S
C735   C931    1.522   1_455 S
C736   C815    1.368   .     S
C736   C855    1.524   .     S
C737   C747    1.401   .     A
C737   H751    1.084   .     S
C737   C739    1.396   .     A
C738   C740    1.395   .     A
C738   C748    1.399   .     A
C738   H752    1.084   .     S
C739   C741    1.411   .     A
C739   C779    1.508   .     S
C740   C742    1.412   .     A
C740   C783    1.504   .     S
C741   C743    1.406   .     A
C742   C744    1.408   .     A
C743   N787    1.433   .     S
C743   C745    1.396   .     A
C744   N790    1.434   .     S
C744   C746    1.397   .     A
C745   C747    1.399   .     A
C745   H753    1.084   .     S
C746   H754    1.084   .     S
C746   C748    1.400   .     A
C748   C507    1.465   1_565 S
Cu749  N762    2.001   .     S
Cu749  O767    1.981   .     S
Cu749  O763    1.953   .     S
Cu749  O770    1.982   .     S
Cu749  Cu750   2.664   .     S
Cu749  O766    1.950   .     S
Cu750  O765    1.950   .     S
Cu750  O768    1.981   .     S
Cu750  N761    2.001   .     S
Cu750  O764    1.953   .     S
Cu750  O769    1.982   .     S
C771   H774    1.105   .     S
C771   H773    1.110   .     S
C771   C815    1.522   .     S
C771   H852    1.110   .     S
H772   C931    1.110   1_455 S
C775   H777    1.111   .     S
C775   H778    1.110   .     S
C775   C896    1.524   1_455 S
C775   H936    1.110   1_455 S
H776   C855    1.110   .     S
C779   H780    1.111   .     S
C779   H781    1.109   .     S
C779   H782    1.111   .     S
C783   H785    1.111   .     S
C783   H786    1.111   .     S
C783   H784    1.108   .     S
N787   H788    1.046   .     S
N787   H789    1.046   .     S
N790   H791    1.046   .     S
N790   H792    1.046   .     S
C793   H795    1.110   .     S
C793   H796    1.111   .     S
H794   C313    1.110   1_556 S
C797   H798    1.110   .     S
C797   H799    1.110   .     S
C797   H800    1.111   .     S
C801   C821    1.454   .     S
C801   O843    1.286   .     A
C801   O845    1.287   .     A
C802   O846    1.287   .     A
C802   O844    1.288   .     A
C802   C822    1.458   .     S
C803   H835    1.083   .     S
C803   C805    1.407   .     A
C803   C811    1.405   .     A
C804   H836    1.083   .     S
C804   C812    1.405   .     A
C804   C806    1.407   .     A
C805   H837    1.080   .     S
C805   N841    1.364   .     A
C806   H838    1.081   .     S
C806   N842    1.364   .     A
C807   C809    1.416   .     A
C807   N841    1.365   .     A
C807   H839    1.082   .     S
C808   N842    1.365   .     A
C808   C810    1.415   .     A
C808   H840    1.082   .     S
C809   C873    1.505   .     S
C809   C811    1.415   .     A
C810   C877    1.505   .     S
C810   C812    1.415   .     A
C812   C331    1.507   1_556 S
C813   O847    1.277   .     A
C813   O849    1.288   .     A
C813   C815    1.439   .     S
C814   O848    1.277   .     A
C814   C816    1.443   .     S
C814   O850    1.290   .     A
C816   C895    1.368   .     S
C816   C935    1.524   .     S
C817   C827    1.401   .     A
C817   H831    1.084   .     S
C817   C819    1.396   .     A
C818   C820    1.395   .     A
C818   C828    1.399   .     A
C818   H832    1.084   .     S
C819   C821    1.411   .     A
C819   C859    1.508   .     S
C820   C822    1.412   .     A
C820   C863    1.504   .     S
C821   C823    1.406   .     A
C822   C824    1.408   .     A
C823   N867    1.433   .     S
C823   C825    1.396   .     A
C824   N870    1.434   .     S
C824   C826    1.397   .     A
C825   C827    1.399   .     A
C825   H833    1.084   .     S
C826   H834    1.084   .     S
C826   C828    1.400   .     A
C828   C587    1.465   1_565 S
Cu829  N842    2.001   .     S
Cu829  O847    1.981   .     S
Cu829  O843    1.953   .     S
Cu829  O850    1.982   .     S
Cu829  Cu830   2.664   .     S
Cu829  O846    1.950   .     S
Cu830  O845    1.950   .     S
Cu830  O848    1.981   .     S
Cu830  N841    2.001   .     S
Cu830  O844    1.953   .     S
Cu830  O849    1.982   .     S
C851   H854    1.105   .     S
C851   H853    1.110   .     S
C851   C895    1.522   .     S
C851   H932    1.110   .     S
C855   H857    1.111   .     S
C855   H858    1.110   .     S
H856   C935    1.110   .     S
C859   H860    1.111   .     S
C859   H861    1.109   .     S
C859   H862    1.111   .     S
C863   H865    1.111   .     S
C863   H866    1.111   .     S
C863   H864    1.108   .     S
N867   H868    1.046   .     S
N867   H869    1.046   .     S
N870   H871    1.046   .     S
N870   H872    1.046   .     S
C873   H875    1.110   .     S
C873   H876    1.111   .     S
H874   C393    1.110   1_556 S
C877   H878    1.110   .     S
C877   H879    1.110   .     S
C877   H880    1.111   .     S
C881   C901    1.454   .     S
C881   O923    1.286   .     A
C881   O925    1.287   .     A
C882   O926    1.287   .     A
C882   O924    1.288   .     A
C882   C902    1.458   .     S
C883   H915    1.083   .     S
C883   C885    1.407   .     A
C883   C891    1.405   .     A
C884   H916    1.083   .     S
C884   C892    1.405   .     A
C884   C886    1.407   .     A
C885   H917    1.080   .     S
C885   N921    1.364   .     A
C886   H918    1.081   .     S
C886   N922    1.364   .     A
C887   C889    1.416   .     A
C887   N921    1.365   .     A
C887   H919    1.082   .     S
C888   N922    1.365   .     A
C888   C890    1.415   .     A
C888   H920    1.082   .     S
C889   C953    1.505   .     S
C889   C891    1.415   .     A
C890   C957    1.505   .     S
C890   C892    1.415   .     A
C892   C411    1.507   1_556 S
C893   O927    1.277   .     A
C893   O929    1.288   .     A
C893   C895    1.439   .     S
C894   O928    1.277   .     A
C894   C896    1.443   .     S
C894   O930    1.290   .     A
C896   C735    1.368   1_655 S
C896   C775    1.524   1_655 S
C897   C907    1.401   .     A
C897   H911    1.084   .     S
C897   C899    1.396   .     A
C898   C900    1.395   .     A
C898   C908    1.399   .     A
C898   H912    1.084   .     S
C899   C901    1.411   .     A
C899   C939    1.508   .     S
C900   C902    1.412   .     A
C900   C943    1.504   .     S
C901   C903    1.406   .     A
C902   C904    1.408   .     A
C903   N947    1.433   .     S
C903   C905    1.396   .     A
C904   N950    1.434   .     S
C904   C906    1.397   .     A
C905   C907    1.399   .     A
C905   H913    1.084   .     S
C906   H914    1.084   .     S
C906   C908    1.400   .     A
C908   C667    1.465   1_565 S
Cu909  N922    2.001   .     S
Cu909  O927    1.981   .     S
Cu909  O923    1.953   .     S
Cu909  O930    1.982   .     S
Cu909  Cu910   2.664   .     S
Cu909  O926    1.950   .     S
Cu910  O925    1.950   .     S
Cu910  O928    1.981   .     S
Cu910  N921    2.001   .     S
Cu910  O924    1.953   .     S
Cu910  O929    1.982   .     S
C931   H934    1.105   .     S
C931   H933    1.110   .     S
C931   C735    1.522   1_655 S
C931   H772    1.110   1_655 S
C935   H937    1.111   .     S
C935   H938    1.110   .     S
H936   C775    1.110   1_655 S
C939   H940    1.111   .     S
C939   H941    1.109   .     S
C939   H942    1.111   .     S
C943   H945    1.111   .     S
C943   H946    1.111   .     S
C943   H944    1.108   .     S
N947   H948    1.046   .     S
N947   H949    1.046   .     S
N950   H951    1.046   .     S
N950   H952    1.046   .     S
C953   H955    1.110   .     S
C953   H956    1.111   .     S
H954   C473    1.110   1_556 S
C957   H958    1.110   .     S
C957   H959    1.110   .     S
C957   H960    1.111   .     S
