data_str_m2_o10_o16_pcu_sym.15
_audit_creation_date              2020-01-03
_audit_creation_method            'Materials Studio'
_symmetry_space_group_name_H-M    'P1'
_symmetry_Int_Tables_number       1
_symmetry_cell_setting            triclinic
loop_
_symmetry_equiv_pos_as_xyz
  x,y,z
_cell_length_a                    22.2940
_cell_length_b                    26.0813
_cell_length_c                    26.7339
_cell_angle_alpha                 93.9930
_cell_angle_beta                  77.2682
_cell_angle_gamma                 103.1437
loop_
_atom_site_label
_atom_site_type_symbol
_atom_site_fract_x
_atom_site_fract_y
_atom_site_fract_z
_atom_site_U_iso_or_equiv
_atom_site_adp_type
_atom_site_occupancy
C1     C     0.18177   0.26673   0.25152   0.00000  Uiso   1.00
C2     C     0.11223   0.16579   0.40371   0.00000  Uiso   1.00
C3     C     0.19028   0.32269   0.25228   0.00000  Uiso   1.00
C4     C     0.13310   0.16602   0.34733   0.00000  Uiso   1.00
C5     C     0.14305   0.01064   0.24775   0.00000  Uiso   1.00
C6     C     0.15156   0.06660   0.24849   0.00000  Uiso   1.00
C7     C     0.20060   0.16984   0.15285   0.00000  Uiso   1.00
C8     C     0.29115   0.23214   0.02858   0.00000  Uiso   1.00
C9     C     0.22158   0.17802   0.09749   0.00000  Uiso   1.00
C10    C     0.05017   0.14067   0.42540   0.00000  Uiso   1.00
C11    C     0.03157   0.13324   0.47798   0.00000  Uiso   1.00
C12    C     0.13923   0.17059   0.48819   0.00000  Uiso   1.00
C13    C     0.07546   0.14747   0.00912   0.00000  Uiso   1.00
C14    C     0.15517   0.18572   0.43623   0.00000  Uiso   1.00
C15    C     0.18686   0.18180   0.01783   0.00000  Uiso   1.00
C16    C     0.24507   0.21719   0.49854   0.00000  Uiso   1.00
C17    C     0.25632   0.23745   0.44946   0.00000  Uiso   1.00
C18    C     0.21259   0.22160   0.41867   0.00000  Uiso   1.00
C19    C     0.17952   0.15743   0.06500   0.00000  Uiso   1.00
C20    C     0.27785   0.21377   0.07873   0.00000  Uiso   1.00
Cu21   Cu    0.10710   0.16105   0.24435   0.00000  Uiso   1.00
Cu22   Cu    0.22623   0.17228   0.25564   0.00000  Uiso   1.00
H23    H     0.31048   0.22876   0.10367   0.00000  Uiso   1.00
H24    H     0.01606   0.12623   0.40163   0.00000  Uiso   1.00
H25    H     0.05777   0.14241   0.04983   0.00000  Uiso   1.00
H26    H     0.31638   0.11539   0.49464   0.00000  Uiso   1.00
H27    H     0.09753   0.32018   0.24346   0.00000  Uiso   1.00
H28    H     0.32973   0.12742   0.21030   0.00000  Uiso   1.00
H29    H     0.29955   0.26533   0.43419   0.00000  Uiso   1.00
H30    H     0.22338   0.23982   0.38173   0.00000  Uiso   1.00
H31    H     0.23580   0.01315   0.25657   0.00000  Uiso   1.00
H32    H     0.00359   0.20590   0.28972   0.00000  Uiso   1.00
H33    H     0.04143   0.27168   0.03457   0.00000  Uiso   1.00
H34    H     0.14498   0.09244   0.10329   0.00000  Uiso   1.00
N35    N     0.31574   0.18074   0.26416   0.00000  Uiso   1.00
N36    N     0.01759   0.15259   0.23584   0.00000  Uiso   1.00
O37    O     0.12797   0.23807   0.24633   0.00000  Uiso   1.00
O38    O     0.13383   0.11187   0.07733   0.00000  Uiso   1.00
O39    O     0.22858   0.24755   0.25586   0.00000  Uiso   1.00
O40    O     0.09181   0.15960   0.31839   0.00000  Uiso   1.00
O41    O     0.19242   0.16908   0.32793   0.00000  Uiso   1.00
O42    O     0.10476   0.08578   0.24414   0.00000  Uiso   1.00
O43    O     0.20536   0.09526   0.25367   0.00000  Uiso   1.00
O44    O     0.14092   0.16425   0.17207   0.00000  Uiso   1.00
O45    O     0.24152   0.17373   0.18160   0.00000  Uiso   1.00
O46    O     0.01426   0.26621   0.00902   0.00000  Uiso   1.00
C47    C     0.51510   0.26673   0.25152   0.00000  Uiso   1.00
C48    C     0.44556   0.16579   0.40371   0.00000  Uiso   1.00
C49    C     0.52361   0.32269   0.25228   0.00000  Uiso   1.00
C50    C     0.46643   0.16602   0.34733   0.00000  Uiso   1.00
C51    C     0.47638   0.01064   0.24775   0.00000  Uiso   1.00
C52    C     0.48489   0.06660   0.24849   0.00000  Uiso   1.00
C53    C     0.53394   0.16984   0.15285   0.00000  Uiso   1.00
C54    C     0.62449   0.23214   0.02858   0.00000  Uiso   1.00
C55    C     0.55491   0.17802   0.09749   0.00000  Uiso   1.00
C56    C     0.38350   0.14067   0.42540   0.00000  Uiso   1.00
C57    C     0.36490   0.13324   0.47798   0.00000  Uiso   1.00
C58    C     0.47257   0.17059   0.48819   0.00000  Uiso   1.00
C59    C     0.40880   0.14747   0.00912   0.00000  Uiso   1.00
C60    C     0.48851   0.18572   0.43623   0.00000  Uiso   1.00
C61    C     0.52019   0.18180   0.01783   0.00000  Uiso   1.00
C62    C     0.57840   0.21719   0.49854   0.00000  Uiso   1.00
C63    C     0.58965   0.23745   0.44946   0.00000  Uiso   1.00
C64    C     0.54592   0.22160   0.41867   0.00000  Uiso   1.00
C65    C     0.51285   0.15743   0.06500   0.00000  Uiso   1.00
C66    C     0.61118   0.21377   0.07873   0.00000  Uiso   1.00
Cu67   Cu    0.44043   0.16105   0.24435   0.00000  Uiso   1.00
Cu68   Cu    0.55957   0.17228   0.25564   0.00000  Uiso   1.00
H69    H     0.64381   0.22876   0.10367   0.00000  Uiso   1.00
H70    H     0.34939   0.12623   0.40163   0.00000  Uiso   1.00
H71    H     0.39111   0.14241   0.04983   0.00000  Uiso   1.00
H72    H     0.64972   0.11539   0.49464   0.00000  Uiso   1.00
H73    H     0.43086   0.32018   0.24346   0.00000  Uiso   1.00
H74    H     0.66306   0.12742   0.21030   0.00000  Uiso   1.00
H75    H     0.63289   0.26533   0.43419   0.00000  Uiso   1.00
H76    H     0.55672   0.23982   0.38173   0.00000  Uiso   1.00
H77    H     0.56913   0.01315   0.25657   0.00000  Uiso   1.00
H78    H     0.33692   0.20590   0.28972   0.00000  Uiso   1.00
H79    H     0.37477   0.27168   0.03457   0.00000  Uiso   1.00
H80    H     0.47831   0.09244   0.10329   0.00000  Uiso   1.00
N81    N     0.64908   0.18074   0.26416   0.00000  Uiso   1.00
N82    N     0.35092   0.15259   0.23584   0.00000  Uiso   1.00
O83    O     0.46131   0.23807   0.24633   0.00000  Uiso   1.00
O84    O     0.46716   0.11187   0.07733   0.00000  Uiso   1.00
O85    O     0.56191   0.24755   0.25586   0.00000  Uiso   1.00
O86    O     0.42515   0.15960   0.31839   0.00000  Uiso   1.00
O87    O     0.52575   0.16908   0.32793   0.00000  Uiso   1.00
O88    O     0.43809   0.08578   0.24414   0.00000  Uiso   1.00
O89    O     0.53869   0.09526   0.25367   0.00000  Uiso   1.00
O90    O     0.47425   0.16425   0.17207   0.00000  Uiso   1.00
O91    O     0.57485   0.17373   0.18160   0.00000  Uiso   1.00
O92    O     0.34759   0.26621   0.00902   0.00000  Uiso   1.00
C93    C     0.84844   0.26673   0.25152   0.00000  Uiso   1.00
C94    C     0.77890   0.16579   0.40371   0.00000  Uiso   1.00
C95    C     0.85694   0.32269   0.25228   0.00000  Uiso   1.00
C96    C     0.79977   0.16602   0.34733   0.00000  Uiso   1.00
C97    C     0.80972   0.01064   0.24775   0.00000  Uiso   1.00
C98    C     0.81823   0.06660   0.24849   0.00000  Uiso   1.00
C99    C     0.86727   0.16984   0.15285   0.00000  Uiso   1.00
C100   C     0.95782   0.23214   0.02858   0.00000  Uiso   1.00
C101   C     0.88824   0.17802   0.09749   0.00000  Uiso   1.00
C102   C     0.71684   0.14067   0.42540   0.00000  Uiso   1.00
C103   C     0.69823   0.13324   0.47798   0.00000  Uiso   1.00
C104   C     0.80590   0.17059   0.48819   0.00000  Uiso   1.00
C105   C     0.74213   0.14747   0.00912   0.00000  Uiso   1.00
C106   C     0.82184   0.18572   0.43623   0.00000  Uiso   1.00
C107   C     0.85353   0.18180   0.01783   0.00000  Uiso   1.00
C108   C     0.91173   0.21719   0.49854   0.00000  Uiso   1.00
C109   C     0.92298   0.23745   0.44946   0.00000  Uiso   1.00
C110   C     0.87925   0.22160   0.41867   0.00000  Uiso   1.00
C111   C     0.84619   0.15743   0.06500   0.00000  Uiso   1.00
C112   C     0.94452   0.21377   0.07873   0.00000  Uiso   1.00
Cu113  Cu    0.77377   0.16105   0.24435   0.00000  Uiso   1.00
Cu114  Cu    0.89290   0.17228   0.25564   0.00000  Uiso   1.00
H115   H     0.97715   0.22876   0.10367   0.00000  Uiso   1.00
H116   H     0.68273   0.12623   0.40163   0.00000  Uiso   1.00
H117   H     0.72444   0.14241   0.04983   0.00000  Uiso   1.00
H118   H     0.98305   0.11539   0.49464   0.00000  Uiso   1.00
H119   H     0.76420   0.32018   0.24346   0.00000  Uiso   1.00
H120   H     0.99640   0.12742   0.21030   0.00000  Uiso   1.00
H121   H     0.96622   0.26533   0.43419   0.00000  Uiso   1.00
H122   H     0.89005   0.23982   0.38173   0.00000  Uiso   1.00
H123   H     0.90246   0.01315   0.25657   0.00000  Uiso   1.00
H124   H     0.67025   0.20590   0.28972   0.00000  Uiso   1.00
H125   H     0.70810   0.27168   0.03457   0.00000  Uiso   1.00
H126   H     0.81164   0.09244   0.10329   0.00000  Uiso   1.00
N127   N     0.98241   0.18074   0.26416   0.00000  Uiso   1.00
N128   N     0.68426   0.15259   0.23584   0.00000  Uiso   1.00
O129   O     0.79464   0.23807   0.24633   0.00000  Uiso   1.00
O130   O     0.80049   0.11187   0.07733   0.00000  Uiso   1.00
O131   O     0.89524   0.24755   0.25586   0.00000  Uiso   1.00
O132   O     0.75848   0.15960   0.31839   0.00000  Uiso   1.00
O133   O     0.85908   0.16908   0.32793   0.00000  Uiso   1.00
O134   O     0.77142   0.08578   0.24414   0.00000  Uiso   1.00
O135   O     0.87203   0.09526   0.25367   0.00000  Uiso   1.00
O136   O     0.80758   0.16425   0.17207   0.00000  Uiso   1.00
O137   O     0.90819   0.17373   0.18160   0.00000  Uiso   1.00
O138   O     0.68092   0.26621   0.00902   0.00000  Uiso   1.00
C139   C     0.18177   0.60006   0.25152   0.00000  Uiso   1.00
C140   C     0.11223   0.49913   0.40371   0.00000  Uiso   1.00
C141   C     0.19028   0.65602   0.25228   0.00000  Uiso   1.00
C142   C     0.13310   0.49935   0.34733   0.00000  Uiso   1.00
C143   C     0.14305   0.34398   0.24775   0.00000  Uiso   1.00
C144   C     0.15156   0.39994   0.24849   0.00000  Uiso   1.00
C145   C     0.20060   0.50318   0.15285   0.00000  Uiso   1.00
C146   C     0.29115   0.56548   0.02858   0.00000  Uiso   1.00
C147   C     0.22158   0.51135   0.09749   0.00000  Uiso   1.00
C148   C     0.05017   0.47400   0.42540   0.00000  Uiso   1.00
C149   C     0.03157   0.46658   0.47798   0.00000  Uiso   1.00
C150   C     0.13923   0.50392   0.48819   0.00000  Uiso   1.00
C151   C     0.07546   0.48081   0.00912   0.00000  Uiso   1.00
C152   C     0.15517   0.51905   0.43623   0.00000  Uiso   1.00
C153   C     0.18686   0.51513   0.01783   0.00000  Uiso   1.00
C154   C     0.24507   0.55053   0.49854   0.00000  Uiso   1.00
C155   C     0.25632   0.57078   0.44946   0.00000  Uiso   1.00
C156   C     0.21259   0.55493   0.41867   0.00000  Uiso   1.00
C157   C     0.17952   0.49077   0.06500   0.00000  Uiso   1.00
C158   C     0.27785   0.54711   0.07873   0.00000  Uiso   1.00
Cu159  Cu    0.10710   0.49439   0.24435   0.00000  Uiso   1.00
Cu160  Cu    0.22623   0.50561   0.25564   0.00000  Uiso   1.00
H161   H     0.31048   0.56209   0.10367   0.00000  Uiso   1.00
H162   H     0.01606   0.45956   0.40163   0.00000  Uiso   1.00
H163   H     0.05777   0.47575   0.04983   0.00000  Uiso   1.00
H164   H     0.31638   0.44872   0.49464   0.00000  Uiso   1.00
H165   H     0.09753   0.65352   0.24346   0.00000  Uiso   1.00
H166   H     0.32973   0.46075   0.21030   0.00000  Uiso   1.00
H167   H     0.29955   0.59866   0.43419   0.00000  Uiso   1.00
H168   H     0.22338   0.57315   0.38173   0.00000  Uiso   1.00
H169   H     0.23580   0.34648   0.25657   0.00000  Uiso   1.00
H170   H     0.00359   0.53923   0.28972   0.00000  Uiso   1.00
H171   H     0.04143   0.60502   0.03457   0.00000  Uiso   1.00
H172   H     0.14498   0.42577   0.10329   0.00000  Uiso   1.00
N173   N     0.31574   0.51407   0.26416   0.00000  Uiso   1.00
N174   N     0.01759   0.48593   0.23584   0.00000  Uiso   1.00
O175   O     0.12797   0.57141   0.24633   0.00000  Uiso   1.00
O176   O     0.13383   0.44520   0.07733   0.00000  Uiso   1.00
O177   O     0.22858   0.58089   0.25586   0.00000  Uiso   1.00
O178   O     0.09181   0.49293   0.31839   0.00000  Uiso   1.00
O179   O     0.19242   0.50241   0.32793   0.00000  Uiso   1.00
O180   O     0.10476   0.41911   0.24414   0.00000  Uiso   1.00
O181   O     0.20536   0.42859   0.25367   0.00000  Uiso   1.00
O182   O     0.14092   0.49759   0.17207   0.00000  Uiso   1.00
O183   O     0.24152   0.50707   0.18160   0.00000  Uiso   1.00
O184   O     0.01426   0.59955   0.00902   0.00000  Uiso   1.00
C185   C     0.51510   0.60006   0.25152   0.00000  Uiso   1.00
C186   C     0.44556   0.49913   0.40371   0.00000  Uiso   1.00
C187   C     0.52361   0.65602   0.25228   0.00000  Uiso   1.00
C188   C     0.46643   0.49935   0.34733   0.00000  Uiso   1.00
C189   C     0.47638   0.34398   0.24775   0.00000  Uiso   1.00
C190   C     0.48489   0.39994   0.24849   0.00000  Uiso   1.00
C191   C     0.53394   0.50318   0.15285   0.00000  Uiso   1.00
C192   C     0.62449   0.56548   0.02858   0.00000  Uiso   1.00
C193   C     0.55491   0.51135   0.09749   0.00000  Uiso   1.00
C194   C     0.38350   0.47400   0.42540   0.00000  Uiso   1.00
C195   C     0.36490   0.46658   0.47798   0.00000  Uiso   1.00
C196   C     0.47257   0.50392   0.48819   0.00000  Uiso   1.00
C197   C     0.40880   0.48081   0.00912   0.00000  Uiso   1.00
C198   C     0.48851   0.51905   0.43623   0.00000  Uiso   1.00
C199   C     0.52019   0.51513   0.01783   0.00000  Uiso   1.00
C200   C     0.57840   0.55053   0.49854   0.00000  Uiso   1.00
C201   C     0.58965   0.57078   0.44946   0.00000  Uiso   1.00
C202   C     0.54592   0.55493   0.41867   0.00000  Uiso   1.00
C203   C     0.51285   0.49077   0.06500   0.00000  Uiso   1.00
C204   C     0.61118   0.54711   0.07873   0.00000  Uiso   1.00
Cu205  Cu    0.44043   0.49439   0.24435   0.00000  Uiso   1.00
Cu206  Cu    0.55957   0.50561   0.25564   0.00000  Uiso   1.00
H207   H     0.64381   0.56209   0.10367   0.00000  Uiso   1.00
H208   H     0.34939   0.45956   0.40163   0.00000  Uiso   1.00
H209   H     0.39111   0.47575   0.04983   0.00000  Uiso   1.00
H210   H     0.64972   0.44872   0.49464   0.00000  Uiso   1.00
H211   H     0.43086   0.65352   0.24346   0.00000  Uiso   1.00
H212   H     0.66306   0.46075   0.21030   0.00000  Uiso   1.00
H213   H     0.63289   0.59866   0.43419   0.00000  Uiso   1.00
H214   H     0.55672   0.57315   0.38173   0.00000  Uiso   1.00
H215   H     0.56913   0.34648   0.25657   0.00000  Uiso   1.00
H216   H     0.33692   0.53923   0.28972   0.00000  Uiso   1.00
H217   H     0.37477   0.60502   0.03457   0.00000  Uiso   1.00
H218   H     0.47831   0.42577   0.10329   0.00000  Uiso   1.00
N219   N     0.64908   0.51407   0.26416   0.00000  Uiso   1.00
N220   N     0.35092   0.48593   0.23584   0.00000  Uiso   1.00
O221   O     0.46131   0.57141   0.24633   0.00000  Uiso   1.00
O222   O     0.46716   0.44520   0.07733   0.00000  Uiso   1.00
O223   O     0.56191   0.58089   0.25586   0.00000  Uiso   1.00
O224   O     0.42515   0.49293   0.31839   0.00000  Uiso   1.00
O225   O     0.52575   0.50241   0.32793   0.00000  Uiso   1.00
O226   O     0.43809   0.41911   0.24414   0.00000  Uiso   1.00
O227   O     0.53869   0.42859   0.25367   0.00000  Uiso   1.00
O228   O     0.47425   0.49759   0.17207   0.00000  Uiso   1.00
O229   O     0.57485   0.50707   0.18160   0.00000  Uiso   1.00
O230   O     0.34759   0.59955   0.00902   0.00000  Uiso   1.00
C231   C     0.84844   0.60006   0.25152   0.00000  Uiso   1.00
C232   C     0.77890   0.49913   0.40371   0.00000  Uiso   1.00
C233   C     0.85694   0.65602   0.25228   0.00000  Uiso   1.00
C234   C     0.79977   0.49935   0.34733   0.00000  Uiso   1.00
C235   C     0.80972   0.34398   0.24775   0.00000  Uiso   1.00
C236   C     0.81823   0.39994   0.24849   0.00000  Uiso   1.00
C237   C     0.86727   0.50318   0.15285   0.00000  Uiso   1.00
C238   C     0.95782   0.56548   0.02858   0.00000  Uiso   1.00
C239   C     0.88824   0.51135   0.09749   0.00000  Uiso   1.00
C240   C     0.71684   0.47400   0.42540   0.00000  Uiso   1.00
C241   C     0.69823   0.46658   0.47798   0.00000  Uiso   1.00
C242   C     0.80590   0.50392   0.48819   0.00000  Uiso   1.00
C243   C     0.74213   0.48081   0.00912   0.00000  Uiso   1.00
C244   C     0.82184   0.51905   0.43623   0.00000  Uiso   1.00
C245   C     0.85353   0.51513   0.01783   0.00000  Uiso   1.00
C246   C     0.91173   0.55053   0.49854   0.00000  Uiso   1.00
C247   C     0.92298   0.57078   0.44946   0.00000  Uiso   1.00
C248   C     0.87925   0.55493   0.41867   0.00000  Uiso   1.00
C249   C     0.84619   0.49077   0.06500   0.00000  Uiso   1.00
C250   C     0.94452   0.54711   0.07873   0.00000  Uiso   1.00
Cu251  Cu    0.77377   0.49439   0.24435   0.00000  Uiso   1.00
Cu252  Cu    0.89290   0.50561   0.25564   0.00000  Uiso   1.00
H253   H     0.97715   0.56209   0.10367   0.00000  Uiso   1.00
H254   H     0.68273   0.45956   0.40163   0.00000  Uiso   1.00
H255   H     0.72444   0.47575   0.04983   0.00000  Uiso   1.00
H256   H     0.98305   0.44872   0.49464   0.00000  Uiso   1.00
H257   H     0.76420   0.65352   0.24346   0.00000  Uiso   1.00
H258   H     0.99640   0.46075   0.21030   0.00000  Uiso   1.00
H259   H     0.96622   0.59866   0.43419   0.00000  Uiso   1.00
H260   H     0.89005   0.57315   0.38173   0.00000  Uiso   1.00
H261   H     0.90246   0.34648   0.25657   0.00000  Uiso   1.00
H262   H     0.67025   0.53923   0.28972   0.00000  Uiso   1.00
H263   H     0.70810   0.60502   0.03457   0.00000  Uiso   1.00
H264   H     0.81164   0.42577   0.10329   0.00000  Uiso   1.00
N265   N     0.98241   0.51407   0.26416   0.00000  Uiso   1.00
N266   N     0.68426   0.48593   0.23584   0.00000  Uiso   1.00
O267   O     0.79464   0.57141   0.24633   0.00000  Uiso   1.00
O268   O     0.80049   0.44520   0.07733   0.00000  Uiso   1.00
O269   O     0.89524   0.58089   0.25586   0.00000  Uiso   1.00
O270   O     0.75848   0.49293   0.31839   0.00000  Uiso   1.00
O271   O     0.85908   0.50241   0.32793   0.00000  Uiso   1.00
O272   O     0.77142   0.41911   0.24414   0.00000  Uiso   1.00
O273   O     0.87203   0.42859   0.25367   0.00000  Uiso   1.00
O274   O     0.80758   0.49759   0.17207   0.00000  Uiso   1.00
O275   O     0.90819   0.50707   0.18160   0.00000  Uiso   1.00
O276   O     0.68092   0.59955   0.00902   0.00000  Uiso   1.00
C277   C     0.18177   0.93340   0.25152   0.00000  Uiso   1.00
C278   C     0.11223   0.83246   0.40371   0.00000  Uiso   1.00
C279   C     0.19028   0.98935   0.25228   0.00000  Uiso   1.00
C280   C     0.13310   0.83268   0.34733   0.00000  Uiso   1.00
C281   C     0.14305   0.67731   0.24775   0.00000  Uiso   1.00
C282   C     0.15156   0.73327   0.24849   0.00000  Uiso   1.00
C283   C     0.20060   0.83651   0.15285   0.00000  Uiso   1.00
C284   C     0.29115   0.89881   0.02858   0.00000  Uiso   1.00
C285   C     0.22158   0.84469   0.09749   0.00000  Uiso   1.00
C286   C     0.05017   0.80734   0.42540   0.00000  Uiso   1.00
C287   C     0.03157   0.79991   0.47798   0.00000  Uiso   1.00
C288   C     0.13923   0.83726   0.48819   0.00000  Uiso   1.00
C289   C     0.07546   0.81414   0.00912   0.00000  Uiso   1.00
C290   C     0.15517   0.85238   0.43623   0.00000  Uiso   1.00
C291   C     0.18686   0.84846   0.01783   0.00000  Uiso   1.00
C292   C     0.24507   0.88386   0.49854   0.00000  Uiso   1.00
C293   C     0.25632   0.90412   0.44946   0.00000  Uiso   1.00
C294   C     0.21259   0.88826   0.41867   0.00000  Uiso   1.00
C295   C     0.17952   0.82410   0.06500   0.00000  Uiso   1.00
C296   C     0.27785   0.88044   0.07873   0.00000  Uiso   1.00
Cu297  Cu    0.10710   0.82772   0.24435   0.00000  Uiso   1.00
Cu298  Cu    0.22623   0.83895   0.25564   0.00000  Uiso   1.00
H299   H     0.31048   0.89543   0.10367   0.00000  Uiso   1.00
H300   H     0.01606   0.79290   0.40163   0.00000  Uiso   1.00
H301   H     0.05777   0.80908   0.04983   0.00000  Uiso   1.00
H302   H     0.31638   0.78205   0.49464   0.00000  Uiso   1.00
H303   H     0.09753   0.98685   0.24346   0.00000  Uiso   1.00
H304   H     0.32973   0.79408   0.21030   0.00000  Uiso   1.00
H305   H     0.29955   0.93199   0.43419   0.00000  Uiso   1.00
H306   H     0.22338   0.90649   0.38173   0.00000  Uiso   1.00
H307   H     0.23580   0.67981   0.25657   0.00000  Uiso   1.00
H308   H     0.00359   0.87257   0.28972   0.00000  Uiso   1.00
H309   H     0.04143   0.93835   0.03457   0.00000  Uiso   1.00
H310   H     0.14498   0.75911   0.10329   0.00000  Uiso   1.00
N311   N     0.31574   0.84741   0.26416   0.00000  Uiso   1.00
N312   N     0.01759   0.81926   0.23584   0.00000  Uiso   1.00
O313   O     0.12797   0.90474   0.24633   0.00000  Uiso   1.00
O314   O     0.13383   0.77854   0.07733   0.00000  Uiso   1.00
O315   O     0.22858   0.91422   0.25586   0.00000  Uiso   1.00
O316   O     0.09181   0.82627   0.31839   0.00000  Uiso   1.00
O317   O     0.19242   0.83575   0.32793   0.00000  Uiso   1.00
O318   O     0.10476   0.75245   0.24414   0.00000  Uiso   1.00
O319   O     0.20536   0.76193   0.25367   0.00000  Uiso   1.00
O320   O     0.14092   0.83092   0.17207   0.00000  Uiso   1.00
O321   O     0.24152   0.84040   0.18160   0.00000  Uiso   1.00
O322   O     0.01426   0.93288   0.00902   0.00000  Uiso   1.00
C323   C     0.51510   0.93340   0.25152   0.00000  Uiso   1.00
C324   C     0.44556   0.83246   0.40371   0.00000  Uiso   1.00
C325   C     0.52361   0.98935   0.25228   0.00000  Uiso   1.00
C326   C     0.46643   0.83268   0.34733   0.00000  Uiso   1.00
C327   C     0.47638   0.67731   0.24775   0.00000  Uiso   1.00
C328   C     0.48489   0.73327   0.24849   0.00000  Uiso   1.00
C329   C     0.53394   0.83651   0.15285   0.00000  Uiso   1.00
C330   C     0.62449   0.89881   0.02858   0.00000  Uiso   1.00
C331   C     0.55491   0.84469   0.09749   0.00000  Uiso   1.00
C332   C     0.38350   0.80734   0.42540   0.00000  Uiso   1.00
C333   C     0.36490   0.79991   0.47798   0.00000  Uiso   1.00
C334   C     0.47257   0.83726   0.48819   0.00000  Uiso   1.00
C335   C     0.40880   0.81414   0.00912   0.00000  Uiso   1.00
C336   C     0.48851   0.85238   0.43623   0.00000  Uiso   1.00
C337   C     0.52019   0.84846   0.01783   0.00000  Uiso   1.00
C338   C     0.57840   0.88386   0.49854   0.00000  Uiso   1.00
C339   C     0.58965   0.90412   0.44946   0.00000  Uiso   1.00
C340   C     0.54592   0.88826   0.41867   0.00000  Uiso   1.00
C341   C     0.51285   0.82410   0.06500   0.00000  Uiso   1.00
C342   C     0.61118   0.88044   0.07873   0.00000  Uiso   1.00
Cu343  Cu    0.44043   0.82772   0.24435   0.00000  Uiso   1.00
Cu344  Cu    0.55957   0.83895   0.25564   0.00000  Uiso   1.00
H345   H     0.64381   0.89543   0.10367   0.00000  Uiso   1.00
H346   H     0.34939   0.79290   0.40163   0.00000  Uiso   1.00
H347   H     0.39111   0.80908   0.04983   0.00000  Uiso   1.00
H348   H     0.64972   0.78205   0.49464   0.00000  Uiso   1.00
H349   H     0.43086   0.98685   0.24346   0.00000  Uiso   1.00
H350   H     0.66306   0.79408   0.21030   0.00000  Uiso   1.00
H351   H     0.63289   0.93199   0.43419   0.00000  Uiso   1.00
H352   H     0.55672   0.90649   0.38173   0.00000  Uiso   1.00
H353   H     0.56913   0.67981   0.25657   0.00000  Uiso   1.00
H354   H     0.33692   0.87257   0.28972   0.00000  Uiso   1.00
H355   H     0.37477   0.93835   0.03457   0.00000  Uiso   1.00
H356   H     0.47831   0.75911   0.10329   0.00000  Uiso   1.00
N357   N     0.64908   0.84741   0.26416   0.00000  Uiso   1.00
N358   N     0.35092   0.81926   0.23584   0.00000  Uiso   1.00
O359   O     0.46131   0.90474   0.24633   0.00000  Uiso   1.00
O360   O     0.46716   0.77854   0.07733   0.00000  Uiso   1.00
O361   O     0.56191   0.91422   0.25586   0.00000  Uiso   1.00
O362   O     0.42515   0.82627   0.31839   0.00000  Uiso   1.00
O363   O     0.52575   0.83575   0.32793   0.00000  Uiso   1.00
O364   O     0.43809   0.75245   0.24414   0.00000  Uiso   1.00
O365   O     0.53869   0.76193   0.25367   0.00000  Uiso   1.00
O366   O     0.47425   0.83092   0.17207   0.00000  Uiso   1.00
O367   O     0.57485   0.84040   0.18160   0.00000  Uiso   1.00
O368   O     0.34759   0.93288   0.00902   0.00000  Uiso   1.00
C369   C     0.84844   0.93340   0.25152   0.00000  Uiso   1.00
C370   C     0.77890   0.83246   0.40371   0.00000  Uiso   1.00
C371   C     0.85694   0.98935   0.25228   0.00000  Uiso   1.00
C372   C     0.79977   0.83268   0.34733   0.00000  Uiso   1.00
C373   C     0.80972   0.67731   0.24775   0.00000  Uiso   1.00
C374   C     0.81823   0.73327   0.24849   0.00000  Uiso   1.00
C375   C     0.86727   0.83651   0.15285   0.00000  Uiso   1.00
C376   C     0.95782   0.89881   0.02858   0.00000  Uiso   1.00
C377   C     0.88824   0.84469   0.09749   0.00000  Uiso   1.00
C378   C     0.71684   0.80734   0.42540   0.00000  Uiso   1.00
C379   C     0.69823   0.79991   0.47798   0.00000  Uiso   1.00
C380   C     0.80590   0.83726   0.48819   0.00000  Uiso   1.00
C381   C     0.74213   0.81414   0.00912   0.00000  Uiso   1.00
C382   C     0.82184   0.85238   0.43623   0.00000  Uiso   1.00
C383   C     0.85353   0.84846   0.01783   0.00000  Uiso   1.00
C384   C     0.91173   0.88386   0.49854   0.00000  Uiso   1.00
C385   C     0.92298   0.90412   0.44946   0.00000  Uiso   1.00
C386   C     0.87925   0.88826   0.41867   0.00000  Uiso   1.00
C387   C     0.84619   0.82410   0.06500   0.00000  Uiso   1.00
C388   C     0.94452   0.88044   0.07873   0.00000  Uiso   1.00
Cu389  Cu    0.77377   0.82772   0.24435   0.00000  Uiso   1.00
Cu390  Cu    0.89290   0.83895   0.25564   0.00000  Uiso   1.00
H391   H     0.97715   0.89543   0.10367   0.00000  Uiso   1.00
H392   H     0.68273   0.79290   0.40163   0.00000  Uiso   1.00
H393   H     0.72444   0.80908   0.04983   0.00000  Uiso   1.00
H394   H     0.98305   0.78205   0.49464   0.00000  Uiso   1.00
H395   H     0.76420   0.98685   0.24346   0.00000  Uiso   1.00
H396   H     0.99640   0.79408   0.21030   0.00000  Uiso   1.00
H397   H     0.96622   0.93199   0.43419   0.00000  Uiso   1.00
H398   H     0.89005   0.90649   0.38173   0.00000  Uiso   1.00
H399   H     0.90246   0.67981   0.25657   0.00000  Uiso   1.00
H400   H     0.67025   0.87257   0.28972   0.00000  Uiso   1.00
H401   H     0.70810   0.93835   0.03457   0.00000  Uiso   1.00
H402   H     0.81164   0.75911   0.10329   0.00000  Uiso   1.00
N403   N     0.98241   0.84741   0.26416   0.00000  Uiso   1.00
N404   N     0.68426   0.81926   0.23584   0.00000  Uiso   1.00
O405   O     0.79464   0.90474   0.24633   0.00000  Uiso   1.00
O406   O     0.80049   0.77854   0.07733   0.00000  Uiso   1.00
O407   O     0.89524   0.91422   0.25586   0.00000  Uiso   1.00
O408   O     0.75848   0.82627   0.31839   0.00000  Uiso   1.00
O409   O     0.85908   0.83575   0.32793   0.00000  Uiso   1.00
O410   O     0.77142   0.75245   0.24414   0.00000  Uiso   1.00
O411   O     0.87203   0.76193   0.25367   0.00000  Uiso   1.00
O412   O     0.80758   0.83092   0.17207   0.00000  Uiso   1.00
O413   O     0.90819   0.84040   0.18160   0.00000  Uiso   1.00
O414   O     0.68092   0.93288   0.00902   0.00000  Uiso   1.00
C415   C     0.18177   0.26673   0.75152   0.00000  Uiso   1.00
C416   C     0.11223   0.16579   0.90371   0.00000  Uiso   1.00
C417   C     0.19028   0.32269   0.75228   0.00000  Uiso   1.00
C418   C     0.13310   0.16602   0.84733   0.00000  Uiso   1.00
C419   C     0.14305   0.01064   0.74775   0.00000  Uiso   1.00
C420   C     0.15156   0.06660   0.74849   0.00000  Uiso   1.00
C421   C     0.20060   0.16984   0.65285   0.00000  Uiso   1.00
C422   C     0.29115   0.23214   0.52858   0.00000  Uiso   1.00
C423   C     0.22158   0.17802   0.59749   0.00000  Uiso   1.00
C424   C     0.05017   0.14067   0.92540   0.00000  Uiso   1.00
C425   C     0.03157   0.13324   0.97798   0.00000  Uiso   1.00
C426   C     0.13923   0.17059   0.98819   0.00000  Uiso   1.00
C427   C     0.07546   0.14747   0.50912   0.00000  Uiso   1.00
C428   C     0.15517   0.18572   0.93623   0.00000  Uiso   1.00
C429   C     0.18686   0.18180   0.51783   0.00000  Uiso   1.00
C430   C     0.24507   0.21719   0.99854   0.00000  Uiso   1.00
C431   C     0.25632   0.23745   0.94946   0.00000  Uiso   1.00
C432   C     0.21259   0.22160   0.91867   0.00000  Uiso   1.00
C433   C     0.17952   0.15743   0.56500   0.00000  Uiso   1.00
C434   C     0.27785   0.21377   0.57873   0.00000  Uiso   1.00
Cu435  Cu    0.10710   0.16105   0.74435   0.00000  Uiso   1.00
Cu436  Cu    0.22623   0.17228   0.75564   0.00000  Uiso   1.00
H437   H     0.31048   0.22876   0.60367   0.00000  Uiso   1.00
H438   H     0.01606   0.12623   0.90163   0.00000  Uiso   1.00
H439   H     0.05777   0.14241   0.54983   0.00000  Uiso   1.00
H440   H     0.31638   0.11539   0.99464   0.00000  Uiso   1.00
H441   H     0.09753   0.32018   0.74346   0.00000  Uiso   1.00
H442   H     0.32973   0.12742   0.71030   0.00000  Uiso   1.00
H443   H     0.29955   0.26533   0.93419   0.00000  Uiso   1.00
H444   H     0.22338   0.23982   0.88173   0.00000  Uiso   1.00
H445   H     0.23580   0.01315   0.75657   0.00000  Uiso   1.00
H446   H     0.00359   0.20590   0.78972   0.00000  Uiso   1.00
H447   H     0.04143   0.27168   0.53457   0.00000  Uiso   1.00
H448   H     0.14498   0.09244   0.60329   0.00000  Uiso   1.00
N449   N     0.31574   0.18074   0.76416   0.00000  Uiso   1.00
N450   N     0.01759   0.15259   0.73584   0.00000  Uiso   1.00
O451   O     0.12797   0.23807   0.74633   0.00000  Uiso   1.00
O452   O     0.13383   0.11187   0.57733   0.00000  Uiso   1.00
O453   O     0.22858   0.24755   0.75586   0.00000  Uiso   1.00
O454   O     0.09181   0.15960   0.81839   0.00000  Uiso   1.00
O455   O     0.19242   0.16908   0.82793   0.00000  Uiso   1.00
O456   O     0.10476   0.08578   0.74414   0.00000  Uiso   1.00
O457   O     0.20536   0.09526   0.75367   0.00000  Uiso   1.00
O458   O     0.14092   0.16425   0.67207   0.00000  Uiso   1.00
O459   O     0.24152   0.17373   0.68160   0.00000  Uiso   1.00
O460   O     0.01426   0.26621   0.50902   0.00000  Uiso   1.00
C461   C     0.51510   0.26673   0.75152   0.00000  Uiso   1.00
C462   C     0.44556   0.16579   0.90371   0.00000  Uiso   1.00
C463   C     0.52361   0.32269   0.75228   0.00000  Uiso   1.00
C464   C     0.46643   0.16602   0.84733   0.00000  Uiso   1.00
C465   C     0.47638   0.01064   0.74775   0.00000  Uiso   1.00
C466   C     0.48489   0.06660   0.74849   0.00000  Uiso   1.00
C467   C     0.53394   0.16984   0.65285   0.00000  Uiso   1.00
C468   C     0.62449   0.23214   0.52858   0.00000  Uiso   1.00
C469   C     0.55491   0.17802   0.59749   0.00000  Uiso   1.00
C470   C     0.38350   0.14067   0.92540   0.00000  Uiso   1.00
C471   C     0.36490   0.13324   0.97798   0.00000  Uiso   1.00
C472   C     0.47257   0.17059   0.98819   0.00000  Uiso   1.00
C473   C     0.40880   0.14747   0.50912   0.00000  Uiso   1.00
C474   C     0.48851   0.18572   0.93623   0.00000  Uiso   1.00
C475   C     0.52019   0.18180   0.51783   0.00000  Uiso   1.00
C476   C     0.57840   0.21719   0.99854   0.00000  Uiso   1.00
C477   C     0.58965   0.23745   0.94946   0.00000  Uiso   1.00
C478   C     0.54592   0.22160   0.91867   0.00000  Uiso   1.00
C479   C     0.51285   0.15743   0.56500   0.00000  Uiso   1.00
C480   C     0.61118   0.21377   0.57873   0.00000  Uiso   1.00
Cu481  Cu    0.44043   0.16105   0.74435   0.00000  Uiso   1.00
Cu482  Cu    0.55957   0.17228   0.75564   0.00000  Uiso   1.00
H483   H     0.64381   0.22876   0.60367   0.00000  Uiso   1.00
H484   H     0.34939   0.12623   0.90163   0.00000  Uiso   1.00
H485   H     0.39111   0.14241   0.54983   0.00000  Uiso   1.00
H486   H     0.64972   0.11539   0.99464   0.00000  Uiso   1.00
H487   H     0.43086   0.32018   0.74346   0.00000  Uiso   1.00
H488   H     0.66306   0.12742   0.71030   0.00000  Uiso   1.00
H489   H     0.63289   0.26533   0.93419   0.00000  Uiso   1.00
H490   H     0.55672   0.23982   0.88173   0.00000  Uiso   1.00
H491   H     0.56913   0.01315   0.75657   0.00000  Uiso   1.00
H492   H     0.33692   0.20590   0.78972   0.00000  Uiso   1.00
H493   H     0.37477   0.27168   0.53457   0.00000  Uiso   1.00
H494   H     0.47831   0.09244   0.60329   0.00000  Uiso   1.00
N495   N     0.64908   0.18074   0.76416   0.00000  Uiso   1.00
N496   N     0.35092   0.15259   0.73584   0.00000  Uiso   1.00
O497   O     0.46131   0.23807   0.74633   0.00000  Uiso   1.00
O498   O     0.46716   0.11187   0.57733   0.00000  Uiso   1.00
O499   O     0.56191   0.24755   0.75586   0.00000  Uiso   1.00
O500   O     0.42515   0.15960   0.81839   0.00000  Uiso   1.00
O501   O     0.52575   0.16908   0.82793   0.00000  Uiso   1.00
O502   O     0.43809   0.08578   0.74414   0.00000  Uiso   1.00
O503   O     0.53869   0.09526   0.75367   0.00000  Uiso   1.00
O504   O     0.47425   0.16425   0.67207   0.00000  Uiso   1.00
O505   O     0.57485   0.17373   0.68160   0.00000  Uiso   1.00
O506   O     0.34759   0.26621   0.50902   0.00000  Uiso   1.00
C507   C     0.84844   0.26673   0.75152   0.00000  Uiso   1.00
C508   C     0.77890   0.16579   0.90371   0.00000  Uiso   1.00
C509   C     0.85694   0.32269   0.75228   0.00000  Uiso   1.00
C510   C     0.79977   0.16602   0.84733   0.00000  Uiso   1.00
C511   C     0.80972   0.01064   0.74775   0.00000  Uiso   1.00
C512   C     0.81823   0.06660   0.74849   0.00000  Uiso   1.00
C513   C     0.86727   0.16984   0.65285   0.00000  Uiso   1.00
C514   C     0.95782   0.23214   0.52858   0.00000  Uiso   1.00
C515   C     0.88824   0.17802   0.59749   0.00000  Uiso   1.00
C516   C     0.71684   0.14067   0.92540   0.00000  Uiso   1.00
C517   C     0.69823   0.13324   0.97798   0.00000  Uiso   1.00
C518   C     0.80590   0.17059   0.98819   0.00000  Uiso   1.00
C519   C     0.74213   0.14747   0.50912   0.00000  Uiso   1.00
C520   C     0.82184   0.18572   0.93623   0.00000  Uiso   1.00
C521   C     0.85353   0.18180   0.51783   0.00000  Uiso   1.00
C522   C     0.91173   0.21719   0.99854   0.00000  Uiso   1.00
C523   C     0.92298   0.23745   0.94946   0.00000  Uiso   1.00
C524   C     0.87925   0.22160   0.91867   0.00000  Uiso   1.00
C525   C     0.84619   0.15743   0.56500   0.00000  Uiso   1.00
C526   C     0.94452   0.21377   0.57873   0.00000  Uiso   1.00
Cu527  Cu    0.77377   0.16105   0.74435   0.00000  Uiso   1.00
Cu528  Cu    0.89290   0.17228   0.75564   0.00000  Uiso   1.00
H529   H     0.97715   0.22876   0.60367   0.00000  Uiso   1.00
H530   H     0.68273   0.12623   0.90163   0.00000  Uiso   1.00
H531   H     0.72444   0.14241   0.54983   0.00000  Uiso   1.00
H532   H     0.98305   0.11539   0.99464   0.00000  Uiso   1.00
H533   H     0.76420   0.32018   0.74346   0.00000  Uiso   1.00
H534   H     0.99640   0.12742   0.71030   0.00000  Uiso   1.00
H535   H     0.96622   0.26533   0.93419   0.00000  Uiso   1.00
H536   H     0.89005   0.23982   0.88173   0.00000  Uiso   1.00
H537   H     0.90246   0.01315   0.75657   0.00000  Uiso   1.00
H538   H     0.67025   0.20590   0.78972   0.00000  Uiso   1.00
H539   H     0.70810   0.27168   0.53457   0.00000  Uiso   1.00
H540   H     0.81164   0.09244   0.60329   0.00000  Uiso   1.00
N541   N     0.98241   0.18074   0.76416   0.00000  Uiso   1.00
N542   N     0.68426   0.15259   0.73584   0.00000  Uiso   1.00
O543   O     0.79464   0.23807   0.74633   0.00000  Uiso   1.00
O544   O     0.80049   0.11187   0.57733   0.00000  Uiso   1.00
O545   O     0.89524   0.24755   0.75586   0.00000  Uiso   1.00
O546   O     0.75848   0.15960   0.81839   0.00000  Uiso   1.00
O547   O     0.85908   0.16908   0.82793   0.00000  Uiso   1.00
O548   O     0.77142   0.08578   0.74414   0.00000  Uiso   1.00
O549   O     0.87203   0.09526   0.75367   0.00000  Uiso   1.00
O550   O     0.80758   0.16425   0.67207   0.00000  Uiso   1.00
O551   O     0.90819   0.17373   0.68160   0.00000  Uiso   1.00
O552   O     0.68092   0.26621   0.50902   0.00000  Uiso   1.00
C553   C     0.18177   0.60006   0.75152   0.00000  Uiso   1.00
C554   C     0.11223   0.49913   0.90371   0.00000  Uiso   1.00
C555   C     0.19028   0.65602   0.75228   0.00000  Uiso   1.00
C556   C     0.13310   0.49935   0.84733   0.00000  Uiso   1.00
C557   C     0.14305   0.34398   0.74775   0.00000  Uiso   1.00
C558   C     0.15156   0.39994   0.74849   0.00000  Uiso   1.00
C559   C     0.20060   0.50318   0.65285   0.00000  Uiso   1.00
C560   C     0.29115   0.56548   0.52858   0.00000  Uiso   1.00
C561   C     0.22158   0.51135   0.59749   0.00000  Uiso   1.00
C562   C     0.05017   0.47400   0.92540   0.00000  Uiso   1.00
C563   C     0.03157   0.46658   0.97798   0.00000  Uiso   1.00
C564   C     0.13923   0.50392   0.98819   0.00000  Uiso   1.00
C565   C     0.07546   0.48081   0.50912   0.00000  Uiso   1.00
C566   C     0.15517   0.51905   0.93623   0.00000  Uiso   1.00
C567   C     0.18686   0.51513   0.51783   0.00000  Uiso   1.00
C568   C     0.24507   0.55053   0.99854   0.00000  Uiso   1.00
C569   C     0.25632   0.57078   0.94946   0.00000  Uiso   1.00
C570   C     0.21259   0.55493   0.91867   0.00000  Uiso   1.00
C571   C     0.17952   0.49077   0.56500   0.00000  Uiso   1.00
C572   C     0.27785   0.54711   0.57873   0.00000  Uiso   1.00
Cu573  Cu    0.10710   0.49439   0.74435   0.00000  Uiso   1.00
Cu574  Cu    0.22623   0.50561   0.75564   0.00000  Uiso   1.00
H575   H     0.31048   0.56209   0.60367   0.00000  Uiso   1.00
H576   H     0.01606   0.45956   0.90163   0.00000  Uiso   1.00
H577   H     0.05777   0.47575   0.54983   0.00000  Uiso   1.00
H578   H     0.31638   0.44872   0.99464   0.00000  Uiso   1.00
H579   H     0.09753   0.65352   0.74346   0.00000  Uiso   1.00
H580   H     0.32973   0.46075   0.71030   0.00000  Uiso   1.00
H581   H     0.29955   0.59866   0.93419   0.00000  Uiso   1.00
H582   H     0.22338   0.57315   0.88173   0.00000  Uiso   1.00
H583   H     0.23580   0.34648   0.75657   0.00000  Uiso   1.00
H584   H     0.00359   0.53923   0.78972   0.00000  Uiso   1.00
H585   H     0.04143   0.60502   0.53457   0.00000  Uiso   1.00
H586   H     0.14498   0.42577   0.60329   0.00000  Uiso   1.00
N587   N     0.31574   0.51407   0.76416   0.00000  Uiso   1.00
N588   N     0.01759   0.48593   0.73584   0.00000  Uiso   1.00
O589   O     0.12797   0.57141   0.74633   0.00000  Uiso   1.00
O590   O     0.13383   0.44520   0.57733   0.00000  Uiso   1.00
O591   O     0.22858   0.58089   0.75586   0.00000  Uiso   1.00
O592   O     0.09181   0.49293   0.81839   0.00000  Uiso   1.00
O593   O     0.19242   0.50241   0.82793   0.00000  Uiso   1.00
O594   O     0.10476   0.41911   0.74414   0.00000  Uiso   1.00
O595   O     0.20536   0.42859   0.75367   0.00000  Uiso   1.00
O596   O     0.14092   0.49759   0.67207   0.00000  Uiso   1.00
O597   O     0.24152   0.50707   0.68160   0.00000  Uiso   1.00
O598   O     0.01426   0.59955   0.50902   0.00000  Uiso   1.00
C599   C     0.51510   0.60006   0.75152   0.00000  Uiso   1.00
C600   C     0.44556   0.49913   0.90371   0.00000  Uiso   1.00
C601   C     0.52361   0.65602   0.75228   0.00000  Uiso   1.00
C602   C     0.46643   0.49935   0.84733   0.00000  Uiso   1.00
C603   C     0.47638   0.34398   0.74775   0.00000  Uiso   1.00
C604   C     0.48489   0.39994   0.74849   0.00000  Uiso   1.00
C605   C     0.53394   0.50318   0.65285   0.00000  Uiso   1.00
C606   C     0.62449   0.56548   0.52858   0.00000  Uiso   1.00
C607   C     0.55491   0.51135   0.59749   0.00000  Uiso   1.00
C608   C     0.38350   0.47400   0.92540   0.00000  Uiso   1.00
C609   C     0.36490   0.46658   0.97798   0.00000  Uiso   1.00
C610   C     0.47257   0.50392   0.98819   0.00000  Uiso   1.00
C611   C     0.40880   0.48081   0.50912   0.00000  Uiso   1.00
C612   C     0.48851   0.51905   0.93623   0.00000  Uiso   1.00
C613   C     0.52019   0.51513   0.51783   0.00000  Uiso   1.00
C614   C     0.57840   0.55053   0.99854   0.00000  Uiso   1.00
C615   C     0.58965   0.57078   0.94946   0.00000  Uiso   1.00
C616   C     0.54592   0.55493   0.91867   0.00000  Uiso   1.00
C617   C     0.51285   0.49077   0.56500   0.00000  Uiso   1.00
C618   C     0.61118   0.54711   0.57873   0.00000  Uiso   1.00
Cu619  Cu    0.44043   0.49439   0.74435   0.00000  Uiso   1.00
Cu620  Cu    0.55957   0.50561   0.75564   0.00000  Uiso   1.00
H621   H     0.64381   0.56209   0.60367   0.00000  Uiso   1.00
H622   H     0.34939   0.45956   0.90163   0.00000  Uiso   1.00
H623   H     0.39111   0.47575   0.54983   0.00000  Uiso   1.00
H624   H     0.64972   0.44872   0.99464   0.00000  Uiso   1.00
H625   H     0.43086   0.65352   0.74346   0.00000  Uiso   1.00
H626   H     0.66306   0.46075   0.71030   0.00000  Uiso   1.00
H627   H     0.63289   0.59866   0.93419   0.00000  Uiso   1.00
H628   H     0.55672   0.57315   0.88173   0.00000  Uiso   1.00
H629   H     0.56913   0.34648   0.75657   0.00000  Uiso   1.00
H630   H     0.33692   0.53923   0.78972   0.00000  Uiso   1.00
H631   H     0.37477   0.60502   0.53457   0.00000  Uiso   1.00
H632   H     0.47831   0.42577   0.60329   0.00000  Uiso   1.00
N633   N     0.64908   0.51407   0.76416   0.00000  Uiso   1.00
N634   N     0.35092   0.48593   0.73584   0.00000  Uiso   1.00
O635   O     0.46131   0.57141   0.74633   0.00000  Uiso   1.00
O636   O     0.46716   0.44520   0.57733   0.00000  Uiso   1.00
O637   O     0.56191   0.58089   0.75586   0.00000  Uiso   1.00
O638   O     0.42515   0.49293   0.81839   0.00000  Uiso   1.00
O639   O     0.52575   0.50241   0.82793   0.00000  Uiso   1.00
O640   O     0.43809   0.41911   0.74414   0.00000  Uiso   1.00
O641   O     0.53869   0.42859   0.75367   0.00000  Uiso   1.00
O642   O     0.47425   0.49759   0.67207   0.00000  Uiso   1.00
O643   O     0.57485   0.50707   0.68160   0.00000  Uiso   1.00
O644   O     0.34759   0.59955   0.50902   0.00000  Uiso   1.00
C645   C     0.84844   0.60006   0.75152   0.00000  Uiso   1.00
C646   C     0.77890   0.49913   0.90371   0.00000  Uiso   1.00
C647   C     0.85694   0.65602   0.75228   0.00000  Uiso   1.00
C648   C     0.79977   0.49935   0.84733   0.00000  Uiso   1.00
C649   C     0.80972   0.34398   0.74775   0.00000  Uiso   1.00
C650   C     0.81823   0.39994   0.74849   0.00000  Uiso   1.00
C651   C     0.86727   0.50318   0.65285   0.00000  Uiso   1.00
C652   C     0.95782   0.56548   0.52858   0.00000  Uiso   1.00
C653   C     0.88824   0.51135   0.59749   0.00000  Uiso   1.00
C654   C     0.71684   0.47400   0.92540   0.00000  Uiso   1.00
C655   C     0.69823   0.46658   0.97798   0.00000  Uiso   1.00
C656   C     0.80590   0.50392   0.98819   0.00000  Uiso   1.00
C657   C     0.74213   0.48081   0.50912   0.00000  Uiso   1.00
C658   C     0.82184   0.51905   0.93623   0.00000  Uiso   1.00
C659   C     0.85353   0.51513   0.51783   0.00000  Uiso   1.00
C660   C     0.91173   0.55053   0.99854   0.00000  Uiso   1.00
C661   C     0.92298   0.57078   0.94946   0.00000  Uiso   1.00
C662   C     0.87925   0.55493   0.91867   0.00000  Uiso   1.00
C663   C     0.84619   0.49077   0.56500   0.00000  Uiso   1.00
C664   C     0.94452   0.54711   0.57873   0.00000  Uiso   1.00
Cu665  Cu    0.77377   0.49439   0.74435   0.00000  Uiso   1.00
Cu666  Cu    0.89290   0.50561   0.75564   0.00000  Uiso   1.00
H667   H     0.97715   0.56209   0.60367   0.00000  Uiso   1.00
H668   H     0.68273   0.45956   0.90163   0.00000  Uiso   1.00
H669   H     0.72444   0.47575   0.54983   0.00000  Uiso   1.00
H670   H     0.98305   0.44872   0.99464   0.00000  Uiso   1.00
H671   H     0.76420   0.65352   0.74346   0.00000  Uiso   1.00
H672   H     0.99640   0.46075   0.71030   0.00000  Uiso   1.00
H673   H     0.96622   0.59866   0.93419   0.00000  Uiso   1.00
H674   H     0.89005   0.57315   0.88173   0.00000  Uiso   1.00
H675   H     0.90246   0.34648   0.75657   0.00000  Uiso   1.00
H676   H     0.67025   0.53923   0.78972   0.00000  Uiso   1.00
H677   H     0.70810   0.60502   0.53457   0.00000  Uiso   1.00
H678   H     0.81164   0.42577   0.60329   0.00000  Uiso   1.00
N679   N     0.98241   0.51407   0.76416   0.00000  Uiso   1.00
N680   N     0.68426   0.48593   0.73584   0.00000  Uiso   1.00
O681   O     0.79464   0.57141   0.74633   0.00000  Uiso   1.00
O682   O     0.80049   0.44520   0.57733   0.00000  Uiso   1.00
O683   O     0.89524   0.58089   0.75586   0.00000  Uiso   1.00
O684   O     0.75848   0.49293   0.81839   0.00000  Uiso   1.00
O685   O     0.85908   0.50241   0.82793   0.00000  Uiso   1.00
O686   O     0.77142   0.41911   0.74414   0.00000  Uiso   1.00
O687   O     0.87203   0.42859   0.75367   0.00000  Uiso   1.00
O688   O     0.80758   0.49759   0.67207   0.00000  Uiso   1.00
O689   O     0.90819   0.50707   0.68160   0.00000  Uiso   1.00
O690   O     0.68092   0.59955   0.50902   0.00000  Uiso   1.00
C691   C     0.18177   0.93340   0.75152   0.00000  Uiso   1.00
C692   C     0.11223   0.83246   0.90371   0.00000  Uiso   1.00
C693   C     0.19028   0.98935   0.75228   0.00000  Uiso   1.00
C694   C     0.13310   0.83268   0.84733   0.00000  Uiso   1.00
C695   C     0.14305   0.67731   0.74775   0.00000  Uiso   1.00
C696   C     0.15156   0.73327   0.74849   0.00000  Uiso   1.00
C697   C     0.20060   0.83651   0.65285   0.00000  Uiso   1.00
C698   C     0.29115   0.89881   0.52858   0.00000  Uiso   1.00
C699   C     0.22158   0.84469   0.59749   0.00000  Uiso   1.00
C700   C     0.05017   0.80734   0.92540   0.00000  Uiso   1.00
C701   C     0.03157   0.79991   0.97798   0.00000  Uiso   1.00
C702   C     0.13923   0.83726   0.98819   0.00000  Uiso   1.00
C703   C     0.07546   0.81414   0.50912   0.00000  Uiso   1.00
C704   C     0.15517   0.85238   0.93623   0.00000  Uiso   1.00
C705   C     0.18686   0.84846   0.51783   0.00000  Uiso   1.00
C706   C     0.24507   0.88386   0.99854   0.00000  Uiso   1.00
C707   C     0.25632   0.90412   0.94946   0.00000  Uiso   1.00
C708   C     0.21259   0.88826   0.91867   0.00000  Uiso   1.00
C709   C     0.17952   0.82410   0.56500   0.00000  Uiso   1.00
C710   C     0.27785   0.88044   0.57873   0.00000  Uiso   1.00
Cu711  Cu    0.10710   0.82772   0.74435   0.00000  Uiso   1.00
Cu712  Cu    0.22623   0.83895   0.75564   0.00000  Uiso   1.00
H713   H     0.31048   0.89543   0.60367   0.00000  Uiso   1.00
H714   H     0.01606   0.79290   0.90163   0.00000  Uiso   1.00
H715   H     0.05777   0.80908   0.54983   0.00000  Uiso   1.00
H716   H     0.31638   0.78205   0.99464   0.00000  Uiso   1.00
H717   H     0.09753   0.98685   0.74346   0.00000  Uiso   1.00
H718   H     0.32973   0.79408   0.71030   0.00000  Uiso   1.00
H719   H     0.29955   0.93199   0.93419   0.00000  Uiso   1.00
H720   H     0.22338   0.90649   0.88173   0.00000  Uiso   1.00
H721   H     0.23580   0.67981   0.75657   0.00000  Uiso   1.00
H722   H     0.00359   0.87257   0.78972   0.00000  Uiso   1.00
H723   H     0.04143   0.93835   0.53457   0.00000  Uiso   1.00
H724   H     0.14498   0.75911   0.60329   0.00000  Uiso   1.00
N725   N     0.31574   0.84741   0.76416   0.00000  Uiso   1.00
N726   N     0.01759   0.81926   0.73584   0.00000  Uiso   1.00
O727   O     0.12797   0.90474   0.74633   0.00000  Uiso   1.00
O728   O     0.13383   0.77854   0.57733   0.00000  Uiso   1.00
O729   O     0.22858   0.91422   0.75586   0.00000  Uiso   1.00
O730   O     0.09181   0.82627   0.81839   0.00000  Uiso   1.00
O731   O     0.19242   0.83575   0.82793   0.00000  Uiso   1.00
O732   O     0.10476   0.75245   0.74414   0.00000  Uiso   1.00
O733   O     0.20536   0.76193   0.75367   0.00000  Uiso   1.00
O734   O     0.14092   0.83092   0.67207   0.00000  Uiso   1.00
O735   O     0.24152   0.84040   0.68160   0.00000  Uiso   1.00
O736   O     0.01426   0.93288   0.50902   0.00000  Uiso   1.00
C737   C     0.51510   0.93340   0.75152   0.00000  Uiso   1.00
C738   C     0.44556   0.83246   0.90371   0.00000  Uiso   1.00
C739   C     0.52361   0.98935   0.75228   0.00000  Uiso   1.00
C740   C     0.46643   0.83268   0.84733   0.00000  Uiso   1.00
C741   C     0.47638   0.67731   0.74775   0.00000  Uiso   1.00
C742   C     0.48489   0.73327   0.74849   0.00000  Uiso   1.00
C743   C     0.53394   0.83651   0.65285   0.00000  Uiso   1.00
C744   C     0.62449   0.89881   0.52858   0.00000  Uiso   1.00
C745   C     0.55491   0.84469   0.59749   0.00000  Uiso   1.00
C746   C     0.38350   0.80734   0.92540   0.00000  Uiso   1.00
C747   C     0.36490   0.79991   0.97798   0.00000  Uiso   1.00
C748   C     0.47257   0.83726   0.98819   0.00000  Uiso   1.00
C749   C     0.40880   0.81414   0.50912   0.00000  Uiso   1.00
C750   C     0.48851   0.85238   0.93623   0.00000  Uiso   1.00
C751   C     0.52019   0.84846   0.51783   0.00000  Uiso   1.00
C752   C     0.57840   0.88386   0.99854   0.00000  Uiso   1.00
C753   C     0.58965   0.90412   0.94946   0.00000  Uiso   1.00
C754   C     0.54592   0.88826   0.91867   0.00000  Uiso   1.00
C755   C     0.51285   0.82410   0.56500   0.00000  Uiso   1.00
C756   C     0.61118   0.88044   0.57873   0.00000  Uiso   1.00
Cu757  Cu    0.44043   0.82772   0.74435   0.00000  Uiso   1.00
Cu758  Cu    0.55957   0.83895   0.75564   0.00000  Uiso   1.00
H759   H     0.64381   0.89543   0.60367   0.00000  Uiso   1.00
H760   H     0.34939   0.79290   0.90163   0.00000  Uiso   1.00
H761   H     0.39111   0.80908   0.54983   0.00000  Uiso   1.00
H762   H     0.64972   0.78205   0.99464   0.00000  Uiso   1.00
H763   H     0.43086   0.98685   0.74346   0.00000  Uiso   1.00
H764   H     0.66306   0.79408   0.71030   0.00000  Uiso   1.00
H765   H     0.63289   0.93199   0.93419   0.00000  Uiso   1.00
H766   H     0.55672   0.90649   0.88173   0.00000  Uiso   1.00
H767   H     0.56913   0.67981   0.75657   0.00000  Uiso   1.00
H768   H     0.33692   0.87257   0.78972   0.00000  Uiso   1.00
H769   H     0.37477   0.93835   0.53457   0.00000  Uiso   1.00
H770   H     0.47831   0.75911   0.60329   0.00000  Uiso   1.00
N771   N     0.64908   0.84741   0.76416   0.00000  Uiso   1.00
N772   N     0.35092   0.81926   0.73584   0.00000  Uiso   1.00
O773   O     0.46131   0.90474   0.74633   0.00000  Uiso   1.00
O774   O     0.46716   0.77854   0.57733   0.00000  Uiso   1.00
O775   O     0.56191   0.91422   0.75586   0.00000  Uiso   1.00
O776   O     0.42515   0.82627   0.81839   0.00000  Uiso   1.00
O777   O     0.52575   0.83575   0.82793   0.00000  Uiso   1.00
O778   O     0.43809   0.75245   0.74414   0.00000  Uiso   1.00
O779   O     0.53869   0.76193   0.75367   0.00000  Uiso   1.00
O780   O     0.47425   0.83092   0.67207   0.00000  Uiso   1.00
O781   O     0.57485   0.84040   0.68160   0.00000  Uiso   1.00
O782   O     0.34759   0.93288   0.50902   0.00000  Uiso   1.00
C783   C     0.84844   0.93340   0.75152   0.00000  Uiso   1.00
C784   C     0.77890   0.83246   0.90371   0.00000  Uiso   1.00
C785   C     0.85694   0.98935   0.75228   0.00000  Uiso   1.00
C786   C     0.79977   0.83268   0.84733   0.00000  Uiso   1.00
C787   C     0.80972   0.67731   0.74775   0.00000  Uiso   1.00
C788   C     0.81823   0.73327   0.74849   0.00000  Uiso   1.00
C789   C     0.86727   0.83651   0.65285   0.00000  Uiso   1.00
C790   C     0.95782   0.89881   0.52858   0.00000  Uiso   1.00
C791   C     0.88824   0.84469   0.59749   0.00000  Uiso   1.00
C792   C     0.71684   0.80734   0.92540   0.00000  Uiso   1.00
C793   C     0.69823   0.79991   0.97798   0.00000  Uiso   1.00
C794   C     0.80590   0.83726   0.98819   0.00000  Uiso   1.00
C795   C     0.74213   0.81414   0.50912   0.00000  Uiso   1.00
C796   C     0.82184   0.85238   0.93623   0.00000  Uiso   1.00
C797   C     0.85353   0.84846   0.51783   0.00000  Uiso   1.00
C798   C     0.91173   0.88386   0.99854   0.00000  Uiso   1.00
C799   C     0.92298   0.90412   0.94946   0.00000  Uiso   1.00
C800   C     0.87925   0.88826   0.91867   0.00000  Uiso   1.00
C801   C     0.84619   0.82410   0.56500   0.00000  Uiso   1.00
C802   C     0.94452   0.88044   0.57873   0.00000  Uiso   1.00
Cu803  Cu    0.77377   0.82772   0.74435   0.00000  Uiso   1.00
Cu804  Cu    0.89290   0.83895   0.75564   0.00000  Uiso   1.00
H805   H     0.97715   0.89543   0.60367   0.00000  Uiso   1.00
H806   H     0.68273   0.79290   0.90163   0.00000  Uiso   1.00
H807   H     0.72444   0.80908   0.54983   0.00000  Uiso   1.00
H808   H     0.98305   0.78205   0.99464   0.00000  Uiso   1.00
H809   H     0.76420   0.98685   0.74346   0.00000  Uiso   1.00
H810   H     0.99640   0.79408   0.71030   0.00000  Uiso   1.00
H811   H     0.96622   0.93199   0.93419   0.00000  Uiso   1.00
H812   H     0.89005   0.90649   0.88173   0.00000  Uiso   1.00
H813   H     0.90246   0.67981   0.75657   0.00000  Uiso   1.00
H814   H     0.67025   0.87257   0.78972   0.00000  Uiso   1.00
H815   H     0.70810   0.93835   0.53457   0.00000  Uiso   1.00
H816   H     0.81164   0.75911   0.60329   0.00000  Uiso   1.00
N817   N     0.98241   0.84741   0.76416   0.00000  Uiso   1.00
N818   N     0.68426   0.81926   0.73584   0.00000  Uiso   1.00
O819   O     0.79464   0.90474   0.74633   0.00000  Uiso   1.00
O820   O     0.80049   0.77854   0.57733   0.00000  Uiso   1.00
O821   O     0.89524   0.91422   0.75586   0.00000  Uiso   1.00
O822   O     0.75848   0.82627   0.81839   0.00000  Uiso   1.00
O823   O     0.85908   0.83575   0.82793   0.00000  Uiso   1.00
O824   O     0.77142   0.75245   0.74414   0.00000  Uiso   1.00
O825   O     0.87203   0.76193   0.75367   0.00000  Uiso   1.00
O826   O     0.80758   0.83092   0.67207   0.00000  Uiso   1.00
O827   O     0.90819   0.84040   0.68160   0.00000  Uiso   1.00
O828   O     0.68092   0.93288   0.50902   0.00000  Uiso   1.00
loop_
_geom_bond_atom_site_label_1
_geom_bond_atom_site_label_2
_geom_bond_distance
_geom_bond_site_symmetry_2
_ccdc_geom_bond_type
C1     O37     1.291   .     A
C1     O39     1.285   .     A
C1     C3      1.428   .     S
C2     C4      1.476   .     S
C2     C14     1.421   .     A
C2     C10     1.402   .     A
C3     C143    1.328   .     S
C3     H169    1.088   .     S
C4     O41     1.296   .     A
C4     O40     1.304   .     A
C5     C6      1.428   .     S
C5     C279    1.328   1_545 S
C5     H303    1.088   1_545 S
C6     O43     1.291   .     A
C6     O42     1.285   .     A
C7     O44     1.295   .     A
C7     O45     1.300   .     A
C7     C9      1.466   .     S
C8     C20     1.402   .     A
C8     C430    1.411   1_554 S
C8     O92     1.383   .     S
C9     C20     1.397   .     A
C9     C19     1.409   .     A
C10    C11     1.389   .     A
C10    H24     1.083   .     S
C11    C427    1.393   .     S
C11    H118    1.083   1_455 S
C12    C14     1.416   .     A
C12    C427    1.416   .     S
C12    C429    1.428   .     S
C13    H25     1.079   .     S
C13    C426    1.416   1_554 S
C13    C425    1.393   1_554 S
C14    C18     1.409   .     A
C15    C19     1.412   .     A
C15    C426    1.428   1_554 S
C15    C430    1.424   1_554 S
C16    C17     1.398   .     A
C16    C429    1.424   .     S
C16    C422    1.411   .     S
C17    H29     1.083   .     S
C17    C18     1.386   .     A
C18    H30     1.081   .     S
C19    O38     1.384   .     S
C20    H23     1.084   .     S
Cu21   O44     1.913   .     S
Cu21   N36     2.019   .     S
Cu21   O40     1.935   .     S
Cu21   Cu22    2.687   .     S
Cu21   O42     1.952   .     S
Cu21   O37     1.956   .     S
Cu22   N35     2.019   .     S
Cu22   O39     1.952   .     S
Cu22   O41     1.913   .     S
Cu22   O45     1.935   .     S
Cu22   O43     1.956   .     S
H26    C57     1.083   .     S
H27    C143    1.088   .     S
H28    N82     1.029   .     S
H31    C279    1.088   1_545 S
H32    N127    1.029   1_455 S
H33    O46     0.992   .     S
H34    O38     0.991   .     S
N35    H78     1.029   .     S
N35    N82     1.285   .     S
N36    N127    1.285   1_455 S
N36    H120    1.029   1_455 S
O46    C100    1.383   1_455 S
C47    O83     1.291   .     A
C47    O85     1.285   .     A
C47    C49     1.428   .     S
C48    C50     1.476   .     S
C48    C60     1.421   .     A
C48    C56     1.402   .     A
C49    C189    1.328   .     S
C49    H215    1.088   .     S
C50    O87     1.296   .     A
C50    O86     1.304   .     A
C51    C52     1.428   .     S
C51    C325    1.328   1_545 S
C51    H349    1.088   1_545 S
C52    O89     1.291   .     A
C52    O88     1.285   .     A
C53    O90     1.295   .     A
C53    O91     1.300   .     A
C53    C55     1.466   .     S
C54    C66     1.402   .     A
C54    C476    1.411   1_554 S
C54    O138    1.383   .     S
C55    C66     1.397   .     A
C55    C65     1.409   .     A
C56    C57     1.389   .     A
C56    H70     1.083   .     S
C57    C473    1.393   .     S
C58    C60     1.416   .     A
C58    C473    1.416   .     S
C58    C475    1.428   .     S
C59    H71     1.079   .     S
C59    C472    1.416   1_554 S
C59    C471    1.393   1_554 S
C60    C64     1.409   .     A
C61    C65     1.412   .     A
C61    C472    1.428   1_554 S
C61    C476    1.424   1_554 S
C62    C63     1.398   .     A
C62    C475    1.424   .     S
C62    C468    1.411   .     S
C63    H75     1.083   .     S
C63    C64     1.386   .     A
C64    H76     1.081   .     S
C65    O84     1.384   .     S
C66    H69     1.084   .     S
Cu67   O90     1.913   .     S
Cu67   N82     2.019   .     S
Cu67   O86     1.935   .     S
Cu67   Cu68    2.687   .     S
Cu67   O88     1.952   .     S
Cu67   O83     1.956   .     S
Cu68   N81     2.019   .     S
Cu68   O85     1.952   .     S
Cu68   O87     1.913   .     S
Cu68   O91     1.935   .     S
Cu68   O89     1.956   .     S
H72    C103    1.083   .     S
H73    C189    1.088   .     S
H74    N128    1.029   .     S
H77    C325    1.088   1_545 S
H79    O92     0.992   .     S
H80    O84     0.991   .     S
N81    H124    1.029   .     S
N81    N128    1.285   .     S
C93    O129    1.291   .     A
C93    O131    1.285   .     A
C93    C95     1.428   .     S
C94    C96     1.476   .     S
C94    C106    1.421   .     A
C94    C102    1.402   .     A
C95    C235    1.328   .     S
C95    H261    1.088   .     S
C96    O133    1.296   .     A
C96    O132    1.304   .     A
C97    C98     1.428   .     S
C97    C371    1.328   1_545 S
C97    H395    1.088   1_545 S
C98    O135    1.291   .     A
C98    O134    1.285   .     A
C99    O136    1.295   .     A
C99    O137    1.300   .     A
C99    C101    1.466   .     S
C100   C112    1.402   .     A
C100   C522    1.411   1_554 S
C100   O46     1.383   1_655 S
C101   C112    1.397   .     A
C101   C111    1.409   .     A
C102   C103    1.389   .     A
C102   H116    1.083   .     S
C103   C519    1.393   .     S
C104   C106    1.416   .     A
C104   C519    1.416   .     S
C104   C521    1.428   .     S
C105   H117    1.079   .     S
C105   C518    1.416   1_554 S
C105   C517    1.393   1_554 S
C106   C110    1.409   .     A
C107   C111    1.412   .     A
C107   C518    1.428   1_554 S
C107   C522    1.424   1_554 S
C108   C109    1.398   .     A
C108   C521    1.424   .     S
C108   C514    1.411   .     S
C109   H121    1.083   .     S
C109   C110    1.386   .     A
C110   H122    1.081   .     S
C111   O130    1.384   .     S
C112   H115    1.084   .     S
Cu113  O136    1.913   .     S
Cu113  N128    2.019   .     S
Cu113  O132    1.935   .     S
Cu113  Cu114   2.687   .     S
Cu113  O134    1.952   .     S
Cu113  O129    1.956   .     S
Cu114  N127    2.019   .     S
Cu114  O131    1.952   .     S
Cu114  O133    1.913   .     S
Cu114  O137    1.935   .     S
Cu114  O135    1.956   .     S
H118   C11     1.083   1_655 S
H119   C235    1.088   .     S
H120   N36     1.029   1_655 S
H123   C371    1.088   1_545 S
H125   O138    0.992   .     S
H126   O130    0.991   .     S
N127   H32     1.029   1_655 S
N127   N36     1.285   1_655 S
C139   O175    1.291   .     A
C139   O177    1.285   .     A
C139   C141    1.428   .     S
C140   C142    1.476   .     S
C140   C152    1.421   .     A
C140   C148    1.402   .     A
C141   C281    1.328   .     S
C141   H307    1.088   .     S
C142   O179    1.296   .     A
C142   O178    1.304   .     A
C143   C144    1.428   .     S
C144   O181    1.291   .     A
C144   O180    1.285   .     A
C145   O182    1.295   .     A
C145   O183    1.300   .     A
C145   C147    1.466   .     S
C146   C158    1.402   .     A
C146   C568    1.411   1_554 S
C146   O230    1.383   .     S
C147   C158    1.397   .     A
C147   C157    1.409   .     A
C148   C149    1.389   .     A
C148   H162    1.083   .     S
C149   C565    1.393   .     S
C149   H256    1.083   1_455 S
C150   C152    1.416   .     A
C150   C565    1.416   .     S
C150   C567    1.428   .     S
C151   H163    1.079   .     S
C151   C564    1.416   1_554 S
C151   C563    1.393   1_554 S
C152   C156    1.409   .     A
C153   C157    1.412   .     A
C153   C564    1.428   1_554 S
C153   C568    1.424   1_554 S
C154   C155    1.398   .     A
C154   C567    1.424   .     S
C154   C560    1.411   .     S
C155   H167    1.083   .     S
C155   C156    1.386   .     A
C156   H168    1.081   .     S
C157   O176    1.384   .     S
C158   H161    1.084   .     S
Cu159  O182    1.913   .     S
Cu159  N174    2.019   .     S
Cu159  O178    1.935   .     S
Cu159  Cu160   2.687   .     S
Cu159  O180    1.952   .     S
Cu159  O175    1.956   .     S
Cu160  N173    2.019   .     S
Cu160  O177    1.952   .     S
Cu160  O179    1.913   .     S
Cu160  O183    1.935   .     S
Cu160  O181    1.956   .     S
H164   C195    1.083   .     S
H165   C281    1.088   .     S
H166   N220    1.029   .     S
H170   N265    1.029   1_455 S
H171   O184    0.992   .     S
H172   O176    0.991   .     S
N173   H216    1.029   .     S
N173   N220    1.285   .     S
N174   N265    1.285   1_455 S
N174   H258    1.029   1_455 S
O184   C238    1.383   1_455 S
C185   O221    1.291   .     A
C185   O223    1.285   .     A
C185   C187    1.428   .     S
C186   C188    1.476   .     S
C186   C198    1.421   .     A
C186   C194    1.402   .     A
C187   C327    1.328   .     S
C187   H353    1.088   .     S
C188   O225    1.296   .     A
C188   O224    1.304   .     A
C189   C190    1.428   .     S
C190   O227    1.291   .     A
C190   O226    1.285   .     A
C191   O228    1.295   .     A
C191   O229    1.300   .     A
C191   C193    1.466   .     S
C192   C204    1.402   .     A
C192   C614    1.411   1_554 S
C192   O276    1.383   .     S
C193   C204    1.397   .     A
C193   C203    1.409   .     A
C194   C195    1.389   .     A
C194   H208    1.083   .     S
C195   C611    1.393   .     S
C196   C198    1.416   .     A
C196   C611    1.416   .     S
C196   C613    1.428   .     S
C197   H209    1.079   .     S
C197   C610    1.416   1_554 S
C197   C609    1.393   1_554 S
C198   C202    1.409   .     A
C199   C203    1.412   .     A
C199   C610    1.428   1_554 S
C199   C614    1.424   1_554 S
C200   C201    1.398   .     A
C200   C613    1.424   .     S
C200   C606    1.411   .     S
C201   H213    1.083   .     S
C201   C202    1.386   .     A
C202   H214    1.081   .     S
C203   O222    1.384   .     S
C204   H207    1.084   .     S
Cu205  O228    1.913   .     S
Cu205  N220    2.019   .     S
Cu205  O224    1.935   .     S
Cu205  Cu206   2.687   .     S
Cu205  O226    1.952   .     S
Cu205  O221    1.956   .     S
Cu206  N219    2.019   .     S
Cu206  O223    1.952   .     S
Cu206  O225    1.913   .     S
Cu206  O229    1.935   .     S
Cu206  O227    1.956   .     S
H210   C241    1.083   .     S
H211   C327    1.088   .     S
H212   N266    1.029   .     S
H217   O230    0.992   .     S
H218   O222    0.991   .     S
N219   H262    1.029   .     S
N219   N266    1.285   .     S
C231   O267    1.291   .     A
C231   O269    1.285   .     A
C231   C233    1.428   .     S
C232   C234    1.476   .     S
C232   C244    1.421   .     A
C232   C240    1.402   .     A
C233   C373    1.328   .     S
C233   H399    1.088   .     S
C234   O271    1.296   .     A
C234   O270    1.304   .     A
C235   C236    1.428   .     S
C236   O273    1.291   .     A
C236   O272    1.285   .     A
C237   O274    1.295   .     A
C237   O275    1.300   .     A
C237   C239    1.466   .     S
C238   C250    1.402   .     A
C238   C660    1.411   1_554 S
C238   O184    1.383   1_655 S
C239   C250    1.397   .     A
C239   C249    1.409   .     A
C240   C241    1.389   .     A
C240   H254    1.083   .     S
C241   C657    1.393   .     S
C242   C244    1.416   .     A
C242   C657    1.416   .     S
C242   C659    1.428   .     S
C243   H255    1.079   .     S
C243   C656    1.416   1_554 S
C243   C655    1.393   1_554 S
C244   C248    1.409   .     A
C245   C249    1.412   .     A
C245   C656    1.428   1_554 S
C245   C660    1.424   1_554 S
C246   C247    1.398   .     A
C246   C659    1.424   .     S
C246   C652    1.411   .     S
C247   H259    1.083   .     S
C247   C248    1.386   .     A
C248   H260    1.081   .     S
C249   O268    1.384   .     S
C250   H253    1.084   .     S
Cu251  O274    1.913   .     S
Cu251  N266    2.019   .     S
Cu251  O270    1.935   .     S
Cu251  Cu252   2.687   .     S
Cu251  O272    1.952   .     S
Cu251  O267    1.956   .     S
Cu252  N265    2.019   .     S
Cu252  O269    1.952   .     S
Cu252  O271    1.913   .     S
Cu252  O275    1.935   .     S
Cu252  O273    1.956   .     S
H256   C149    1.083   1_655 S
H257   C373    1.088   .     S
H258   N174    1.029   1_655 S
H263   O276    0.992   .     S
H264   O268    0.991   .     S
N265   H170    1.029   1_655 S
N265   N174    1.285   1_655 S
C277   O313    1.291   .     A
C277   O315    1.285   .     A
C277   C279    1.428   .     S
C278   C280    1.476   .     S
C278   C290    1.421   .     A
C278   C286    1.402   .     A
C279   C5      1.328   1_565 S
C279   H31     1.088   1_565 S
C280   O317    1.296   .     A
C280   O316    1.304   .     A
C281   C282    1.428   .     S
C282   O319    1.291   .     A
C282   O318    1.285   .     A
C283   O320    1.295   .     A
C283   O321    1.300   .     A
C283   C285    1.466   .     S
C284   C296    1.402   .     A
C284   C706    1.411   1_554 S
C284   O368    1.383   .     S
C285   C296    1.397   .     A
C285   C295    1.409   .     A
C286   C287    1.389   .     A
C286   H300    1.083   .     S
C287   C703    1.393   .     S
C287   H394    1.083   1_455 S
C288   C290    1.416   .     A
C288   C703    1.416   .     S
C288   C705    1.428   .     S
C289   H301    1.079   .     S
C289   C702    1.416   1_554 S
C289   C701    1.393   1_554 S
C290   C294    1.409   .     A
C291   C295    1.412   .     A
C291   C702    1.428   1_554 S
C291   C706    1.424   1_554 S
C292   C293    1.398   .     A
C292   C705    1.424   .     S
C292   C698    1.411   .     S
C293   H305    1.083   .     S
C293   C294    1.386   .     A
C294   H306    1.081   .     S
C295   O314    1.384   .     S
C296   H299    1.084   .     S
Cu297  O320    1.913   .     S
Cu297  N312    2.019   .     S
Cu297  O316    1.935   .     S
Cu297  Cu298   2.687   .     S
Cu297  O318    1.952   .     S
Cu297  O313    1.956   .     S
Cu298  N311    2.019   .     S
Cu298  O315    1.952   .     S
Cu298  O317    1.913   .     S
Cu298  O321    1.935   .     S
Cu298  O319    1.956   .     S
H302   C333    1.083   .     S
H303   C5      1.088   1_565 S
H304   N358    1.029   .     S
H308   N403    1.029   1_455 S
H309   O322    0.992   .     S
H310   O314    0.991   .     S
N311   H354    1.029   .     S
N311   N358    1.285   .     S
N312   N403    1.285   1_455 S
N312   H396    1.029   1_455 S
O322   C376    1.383   1_455 S
C323   O359    1.291   .     A
C323   O361    1.285   .     A
C323   C325    1.428   .     S
C324   C326    1.476   .     S
C324   C336    1.421   .     A
C324   C332    1.402   .     A
C325   C51     1.328   1_565 S
C325   H77     1.088   1_565 S
C326   O363    1.296   .     A
C326   O362    1.304   .     A
C327   C328    1.428   .     S
C328   O365    1.291   .     A
C328   O364    1.285   .     A
C329   O366    1.295   .     A
C329   O367    1.300   .     A
C329   C331    1.466   .     S
C330   C342    1.402   .     A
C330   C752    1.411   1_554 S
C330   O414    1.383   .     S
C331   C342    1.397   .     A
C331   C341    1.409   .     A
C332   C333    1.389   .     A
C332   H346    1.083   .     S
C333   C749    1.393   .     S
C334   C336    1.416   .     A
C334   C749    1.416   .     S
C334   C751    1.428   .     S
C335   H347    1.079   .     S
C335   C748    1.416   1_554 S
C335   C747    1.393   1_554 S
C336   C340    1.409   .     A
C337   C341    1.412   .     A
C337   C748    1.428   1_554 S
C337   C752    1.424   1_554 S
C338   C339    1.398   .     A
C338   C751    1.424   .     S
C338   C744    1.411   .     S
C339   H351    1.083   .     S
C339   C340    1.386   .     A
C340   H352    1.081   .     S
C341   O360    1.384   .     S
C342   H345    1.084   .     S
Cu343  O366    1.913   .     S
Cu343  N358    2.019   .     S
Cu343  O362    1.935   .     S
Cu343  Cu344   2.687   .     S
Cu343  O364    1.952   .     S
Cu343  O359    1.956   .     S
Cu344  N357    2.019   .     S
Cu344  O361    1.952   .     S
Cu344  O363    1.913   .     S
Cu344  O367    1.935   .     S
Cu344  O365    1.956   .     S
H348   C379    1.083   .     S
H349   C51     1.088   1_565 S
H350   N404    1.029   .     S
H355   O368    0.992   .     S
H356   O360    0.991   .     S
N357   H400    1.029   .     S
N357   N404    1.285   .     S
C369   O405    1.291   .     A
C369   O407    1.285   .     A
C369   C371    1.428   .     S
C370   C372    1.476   .     S
C370   C382    1.421   .     A
C370   C378    1.402   .     A
C371   C97     1.328   1_565 S
C371   H123    1.088   1_565 S
C372   O409    1.296   .     A
C372   O408    1.304   .     A
C373   C374    1.428   .     S
C374   O411    1.291   .     A
C374   O410    1.285   .     A
C375   O412    1.295   .     A
C375   O413    1.300   .     A
C375   C377    1.466   .     S
C376   C388    1.402   .     A
C376   C798    1.411   1_554 S
C376   O322    1.383   1_655 S
C377   C388    1.397   .     A
C377   C387    1.409   .     A
C378   C379    1.389   .     A
C378   H392    1.083   .     S
C379   C795    1.393   .     S
C380   C382    1.416   .     A
C380   C795    1.416   .     S
C380   C797    1.428   .     S
C381   H393    1.079   .     S
C381   C794    1.416   1_554 S
C381   C793    1.393   1_554 S
C382   C386    1.409   .     A
C383   C387    1.412   .     A
C383   C794    1.428   1_554 S
C383   C798    1.424   1_554 S
C384   C385    1.398   .     A
C384   C797    1.424   .     S
C384   C790    1.411   .     S
C385   H397    1.083   .     S
C385   C386    1.386   .     A
C386   H398    1.081   .     S
C387   O406    1.384   .     S
C388   H391    1.084   .     S
Cu389  O412    1.913   .     S
Cu389  N404    2.019   .     S
Cu389  O408    1.935   .     S
Cu389  Cu390   2.687   .     S
Cu389  O410    1.952   .     S
Cu389  O405    1.956   .     S
Cu390  N403    2.019   .     S
Cu390  O407    1.952   .     S
Cu390  O409    1.913   .     S
Cu390  O413    1.935   .     S
Cu390  O411    1.956   .     S
H394   C287    1.083   1_655 S
H395   C97     1.088   1_565 S
H396   N312    1.029   1_655 S
H401   O414    0.992   .     S
H402   O406    0.991   .     S
N403   H308    1.029   1_655 S
N403   N312    1.285   1_655 S
C415   O451    1.291   .     A
C415   O453    1.285   .     A
C415   C417    1.428   .     S
C416   C418    1.476   .     S
C416   C428    1.421   .     A
C416   C424    1.402   .     A
C417   C557    1.328   .     S
C417   H583    1.088   .     S
C418   O455    1.296   .     A
C418   O454    1.304   .     A
C419   C420    1.428   .     S
C419   C693    1.328   1_545 S
C419   H717    1.088   1_545 S
C420   O457    1.291   .     A
C420   O456    1.285   .     A
C421   O458    1.295   .     A
C421   O459    1.300   .     A
C421   C423    1.466   .     S
C422   C434    1.402   .     A
C422   O506    1.383   .     S
C423   C434    1.397   .     A
C423   C433    1.409   .     A
C424   C425    1.389   .     A
C424   H438    1.083   .     S
C425   C13     1.393   1_556 S
C425   H532    1.083   1_455 S
C426   C428    1.416   .     A
C426   C13     1.416   1_556 S
C426   C15     1.428   1_556 S
C427   H439    1.079   .     S
C428   C432    1.409   .     A
C429   C433    1.412   .     A
C430   C431    1.398   .     A
C430   C15     1.424   1_556 S
C430   C8      1.411   1_556 S
C431   H443    1.083   .     S
C431   C432    1.386   .     A
C432   H444    1.081   .     S
C433   O452    1.384   .     S
C434   H437    1.084   .     S
Cu435  O458    1.913   .     S
Cu435  N450    2.019   .     S
Cu435  O454    1.935   .     S
Cu435  Cu436   2.687   .     S
Cu435  O456    1.952   .     S
Cu435  O451    1.956   .     S
Cu436  N449    2.019   .     S
Cu436  O453    1.952   .     S
Cu436  O455    1.913   .     S
Cu436  O459    1.935   .     S
Cu436  O457    1.956   .     S
H440   C471    1.083   .     S
H441   C557    1.088   .     S
H442   N496    1.029   .     S
H445   C693    1.088   1_545 S
H446   N541    1.029   1_455 S
H447   O460    0.992   .     S
H448   O452    0.991   .     S
N449   H492    1.029   .     S
N449   N496    1.285   .     S
N450   N541    1.285   1_455 S
N450   H534    1.029   1_455 S
O460   C514    1.383   1_455 S
C461   O497    1.291   .     A
C461   O499    1.285   .     A
C461   C463    1.428   .     S
C462   C464    1.476   .     S
C462   C474    1.421   .     A
C462   C470    1.402   .     A
C463   C603    1.328   .     S
C463   H629    1.088   .     S
C464   O501    1.296   .     A
C464   O500    1.304   .     A
C465   C466    1.428   .     S
C465   C739    1.328   1_545 S
C465   H763    1.088   1_545 S
C466   O503    1.291   .     A
C466   O502    1.285   .     A
C467   O504    1.295   .     A
C467   O505    1.300   .     A
C467   C469    1.466   .     S
C468   C480    1.402   .     A
C468   O552    1.383   .     S
C469   C480    1.397   .     A
C469   C479    1.409   .     A
C470   C471    1.389   .     A
C470   H484    1.083   .     S
C471   C59     1.393   1_556 S
C472   C474    1.416   .     A
C472   C59     1.416   1_556 S
C472   C61     1.428   1_556 S
C473   H485    1.079   .     S
C474   C478    1.409   .     A
C475   C479    1.412   .     A
C476   C477    1.398   .     A
C476   C61     1.424   1_556 S
C476   C54     1.411   1_556 S
C477   H489    1.083   .     S
C477   C478    1.386   .     A
C478   H490    1.081   .     S
C479   O498    1.384   .     S
C480   H483    1.084   .     S
Cu481  O504    1.913   .     S
Cu481  N496    2.019   .     S
Cu481  O500    1.935   .     S
Cu481  Cu482   2.687   .     S
Cu481  O502    1.952   .     S
Cu481  O497    1.956   .     S
Cu482  N495    2.019   .     S
Cu482  O499    1.952   .     S
Cu482  O501    1.913   .     S
Cu482  O505    1.935   .     S
Cu482  O503    1.956   .     S
H486   C517    1.083   .     S
H487   C603    1.088   .     S
H488   N542    1.029   .     S
H491   C739    1.088   1_545 S
H493   O506    0.992   .     S
H494   O498    0.991   .     S
N495   H538    1.029   .     S
N495   N542    1.285   .     S
C507   O543    1.291   .     A
C507   O545    1.285   .     A
C507   C509    1.428   .     S
C508   C510    1.476   .     S
C508   C520    1.421   .     A
C508   C516    1.402   .     A
C509   C649    1.328   .     S
C509   H675    1.088   .     S
C510   O547    1.296   .     A
C510   O546    1.304   .     A
C511   C512    1.428   .     S
C511   C785    1.328   1_545 S
C511   H809    1.088   1_545 S
C512   O549    1.291   .     A
C512   O548    1.285   .     A
C513   O550    1.295   .     A
C513   O551    1.300   .     A
C513   C515    1.466   .     S
C514   C526    1.402   .     A
C514   O460    1.383   1_655 S
C515   C526    1.397   .     A
C515   C525    1.409   .     A
C516   C517    1.389   .     A
C516   H530    1.083   .     S
C517   C105    1.393   1_556 S
C518   C520    1.416   .     A
C518   C105    1.416   1_556 S
C518   C107    1.428   1_556 S
C519   H531    1.079   .     S
C520   C524    1.409   .     A
C521   C525    1.412   .     A
C522   C523    1.398   .     A
C522   C107    1.424   1_556 S
C522   C100    1.411   1_556 S
C523   H535    1.083   .     S
C523   C524    1.386   .     A
C524   H536    1.081   .     S
C525   O544    1.384   .     S
C526   H529    1.084   .     S
Cu527  O550    1.913   .     S
Cu527  N542    2.019   .     S
Cu527  O546    1.935   .     S
Cu527  Cu528   2.687   .     S
Cu527  O548    1.952   .     S
Cu527  O543    1.956   .     S
Cu528  N541    2.019   .     S
Cu528  O545    1.952   .     S
Cu528  O547    1.913   .     S
Cu528  O551    1.935   .     S
Cu528  O549    1.956   .     S
H532   C425    1.083   1_655 S
H533   C649    1.088   .     S
H534   N450    1.029   1_655 S
H537   C785    1.088   1_545 S
H539   O552    0.992   .     S
H540   O544    0.991   .     S
N541   H446    1.029   1_655 S
N541   N450    1.285   1_655 S
C553   O589    1.291   .     A
C553   O591    1.285   .     A
C553   C555    1.428   .     S
C554   C556    1.476   .     S
C554   C566    1.421   .     A
C554   C562    1.402   .     A
C555   C695    1.328   .     S
C555   H721    1.088   .     S
C556   O593    1.296   .     A
C556   O592    1.304   .     A
C557   C558    1.428   .     S
C558   O595    1.291   .     A
C558   O594    1.285   .     A
C559   O596    1.295   .     A
C559   O597    1.300   .     A
C559   C561    1.466   .     S
C560   C572    1.402   .     A
C560   O644    1.383   .     S
C561   C572    1.397   .     A
C561   C571    1.409   .     A
C562   C563    1.389   .     A
C562   H576    1.083   .     S
C563   C151    1.393   1_556 S
C563   H670    1.083   1_455 S
C564   C566    1.416   .     A
C564   C151    1.416   1_556 S
C564   C153    1.428   1_556 S
C565   H577    1.079   .     S
C566   C570    1.409   .     A
C567   C571    1.412   .     A
C568   C569    1.398   .     A
C568   C153    1.424   1_556 S
C568   C146    1.411   1_556 S
C569   H581    1.083   .     S
C569   C570    1.386   .     A
C570   H582    1.081   .     S
C571   O590    1.384   .     S
C572   H575    1.084   .     S
Cu573  O596    1.913   .     S
Cu573  N588    2.019   .     S
Cu573  O592    1.935   .     S
Cu573  Cu574   2.687   .     S
Cu573  O594    1.952   .     S
Cu573  O589    1.956   .     S
Cu574  N587    2.019   .     S
Cu574  O591    1.952   .     S
Cu574  O593    1.913   .     S
Cu574  O597    1.935   .     S
Cu574  O595    1.956   .     S
H578   C609    1.083   .     S
H579   C695    1.088   .     S
H580   N634    1.029   .     S
H584   N679    1.029   1_455 S
H585   O598    0.992   .     S
H586   O590    0.991   .     S
N587   H630    1.029   .     S
N587   N634    1.285   .     S
N588   N679    1.285   1_455 S
N588   H672    1.029   1_455 S
O598   C652    1.383   1_455 S
C599   O635    1.291   .     A
C599   O637    1.285   .     A
C599   C601    1.428   .     S
C600   C602    1.476   .     S
C600   C612    1.421   .     A
C600   C608    1.402   .     A
C601   C741    1.328   .     S
C601   H767    1.088   .     S
C602   O639    1.296   .     A
C602   O638    1.304   .     A
C603   C604    1.428   .     S
C604   O641    1.291   .     A
C604   O640    1.285   .     A
C605   O642    1.295   .     A
C605   O643    1.300   .     A
C605   C607    1.466   .     S
C606   C618    1.402   .     A
C606   O690    1.383   .     S
C607   C618    1.397   .     A
C607   C617    1.409   .     A
C608   C609    1.389   .     A
C608   H622    1.083   .     S
C609   C197    1.393   1_556 S
C610   C612    1.416   .     A
C610   C197    1.416   1_556 S
C610   C199    1.428   1_556 S
C611   H623    1.079   .     S
C612   C616    1.409   .     A
C613   C617    1.412   .     A
C614   C615    1.398   .     A
C614   C199    1.424   1_556 S
C614   C192    1.411   1_556 S
C615   H627    1.083   .     S
C615   C616    1.386   .     A
C616   H628    1.081   .     S
C617   O636    1.384   .     S
C618   H621    1.084   .     S
Cu619  O642    1.913   .     S
Cu619  N634    2.019   .     S
Cu619  O638    1.935   .     S
Cu619  Cu620   2.687   .     S
Cu619  O640    1.952   .     S
Cu619  O635    1.956   .     S
Cu620  N633    2.019   .     S
Cu620  O637    1.952   .     S
Cu620  O639    1.913   .     S
Cu620  O643    1.935   .     S
Cu620  O641    1.956   .     S
H624   C655    1.083   .     S
H625   C741    1.088   .     S
H626   N680    1.029   .     S
H631   O644    0.992   .     S
H632   O636    0.991   .     S
N633   H676    1.029   .     S
N633   N680    1.285   .     S
C645   O681    1.291   .     A
C645   O683    1.285   .     A
C645   C647    1.428   .     S
C646   C648    1.476   .     S
C646   C658    1.421   .     A
C646   C654    1.402   .     A
C647   C787    1.328   .     S
C647   H813    1.088   .     S
C648   O685    1.296   .     A
C648   O684    1.304   .     A
C649   C650    1.428   .     S
C650   O687    1.291   .     A
C650   O686    1.285   .     A
C651   O688    1.295   .     A
C651   O689    1.300   .     A
C651   C653    1.466   .     S
C652   C664    1.402   .     A
C652   O598    1.383   1_655 S
C653   C664    1.397   .     A
C653   C663    1.409   .     A
C654   C655    1.389   .     A
C654   H668    1.083   .     S
C655   C243    1.393   1_556 S
C656   C658    1.416   .     A
C656   C243    1.416   1_556 S
C656   C245    1.428   1_556 S
C657   H669    1.079   .     S
C658   C662    1.409   .     A
C659   C663    1.412   .     A
C660   C661    1.398   .     A
C660   C245    1.424   1_556 S
C660   C238    1.411   1_556 S
C661   H673    1.083   .     S
C661   C662    1.386   .     A
C662   H674    1.081   .     S
C663   O682    1.384   .     S
C664   H667    1.084   .     S
Cu665  O688    1.913   .     S
Cu665  N680    2.019   .     S
Cu665  O684    1.935   .     S
Cu665  Cu666   2.687   .     S
Cu665  O686    1.952   .     S
Cu665  O681    1.956   .     S
Cu666  N679    2.019   .     S
Cu666  O683    1.952   .     S
Cu666  O685    1.913   .     S
Cu666  O689    1.935   .     S
Cu666  O687    1.956   .     S
H670   C563    1.083   1_655 S
H671   C787    1.088   .     S
H672   N588    1.029   1_655 S
H677   O690    0.992   .     S
H678   O682    0.991   .     S
N679   H584    1.029   1_655 S
N679   N588    1.285   1_655 S
C691   O727    1.291   .     A
C691   O729    1.285   .     A
C691   C693    1.428   .     S
C692   C694    1.476   .     S
C692   C704    1.421   .     A
C692   C700    1.402   .     A
C693   C419    1.328   1_565 S
C693   H445    1.088   1_565 S
C694   O731    1.296   .     A
C694   O730    1.304   .     A
C695   C696    1.428   .     S
C696   O733    1.291   .     A
C696   O732    1.285   .     A
C697   O734    1.295   .     A
C697   O735    1.300   .     A
C697   C699    1.466   .     S
C698   C710    1.402   .     A
C698   O782    1.383   .     S
C699   C710    1.397   .     A
C699   C709    1.409   .     A
C700   C701    1.389   .     A
C700   H714    1.083   .     S
C701   C289    1.393   1_556 S
C701   H808    1.083   1_455 S
C702   C704    1.416   .     A
C702   C289    1.416   1_556 S
C702   C291    1.428   1_556 S
C703   H715    1.079   .     S
C704   C708    1.409   .     A
C705   C709    1.412   .     A
C706   C707    1.398   .     A
C706   C291    1.424   1_556 S
C706   C284    1.411   1_556 S
C707   H719    1.083   .     S
C707   C708    1.386   .     A
C708   H720    1.081   .     S
C709   O728    1.384   .     S
C710   H713    1.084   .     S
Cu711  O734    1.913   .     S
Cu711  N726    2.019   .     S
Cu711  O730    1.935   .     S
Cu711  Cu712   2.687   .     S
Cu711  O732    1.952   .     S
Cu711  O727    1.956   .     S
Cu712  N725    2.019   .     S
Cu712  O729    1.952   .     S
Cu712  O731    1.913   .     S
Cu712  O735    1.935   .     S
Cu712  O733    1.956   .     S
H716   C747    1.083   .     S
H717   C419    1.088   1_565 S
H718   N772    1.029   .     S
H722   N817    1.029   1_455 S
H723   O736    0.992   .     S
H724   O728    0.991   .     S
N725   H768    1.029   .     S
N725   N772    1.285   .     S
N726   N817    1.285   1_455 S
N726   H810    1.029   1_455 S
O736   C790    1.383   1_455 S
C737   O773    1.291   .     A
C737   O775    1.285   .     A
C737   C739    1.428   .     S
C738   C740    1.476   .     S
C738   C750    1.421   .     A
C738   C746    1.402   .     A
C739   C465    1.328   1_565 S
C739   H491    1.088   1_565 S
C740   O777    1.296   .     A
C740   O776    1.304   .     A
C741   C742    1.428   .     S
C742   O779    1.291   .     A
C742   O778    1.285   .     A
C743   O780    1.295   .     A
C743   O781    1.300   .     A
C743   C745    1.466   .     S
C744   C756    1.402   .     A
C744   O828    1.383   .     S
C745   C756    1.397   .     A
C745   C755    1.409   .     A
C746   C747    1.389   .     A
C746   H760    1.083   .     S
C747   C335    1.393   1_556 S
C748   C750    1.416   .     A
C748   C335    1.416   1_556 S
C748   C337    1.428   1_556 S
C749   H761    1.079   .     S
C750   C754    1.409   .     A
C751   C755    1.412   .     A
C752   C753    1.398   .     A
C752   C337    1.424   1_556 S
C752   C330    1.411   1_556 S
C753   H765    1.083   .     S
C753   C754    1.386   .     A
C754   H766    1.081   .     S
C755   O774    1.384   .     S
C756   H759    1.084   .     S
Cu757  O780    1.913   .     S
Cu757  N772    2.019   .     S
Cu757  O776    1.935   .     S
Cu757  Cu758   2.687   .     S
Cu757  O778    1.952   .     S
Cu757  O773    1.956   .     S
Cu758  N771    2.019   .     S
Cu758  O775    1.952   .     S
Cu758  O777    1.913   .     S
Cu758  O781    1.935   .     S
Cu758  O779    1.956   .     S
H762   C793    1.083   .     S
H763   C465    1.088   1_565 S
H764   N818    1.029   .     S
H769   O782    0.992   .     S
H770   O774    0.991   .     S
N771   H814    1.029   .     S
N771   N818    1.285   .     S
C783   O819    1.291   .     A
C783   O821    1.285   .     A
C783   C785    1.428   .     S
C784   C786    1.476   .     S
C784   C796    1.421   .     A
C784   C792    1.402   .     A
C785   C511    1.328   1_565 S
C785   H537    1.088   1_565 S
C786   O823    1.296   .     A
C786   O822    1.304   .     A
C787   C788    1.428   .     S
C788   O825    1.291   .     A
C788   O824    1.285   .     A
C789   O826    1.295   .     A
C789   O827    1.300   .     A
C789   C791    1.466   .     S
C790   C802    1.402   .     A
C790   O736    1.383   1_655 S
C791   C802    1.397   .     A
C791   C801    1.409   .     A
C792   C793    1.389   .     A
C792   H806    1.083   .     S
C793   C381    1.393   1_556 S
C794   C796    1.416   .     A
C794   C381    1.416   1_556 S
C794   C383    1.428   1_556 S
C795   H807    1.079   .     S
C796   C800    1.409   .     A
C797   C801    1.412   .     A
C798   C799    1.398   .     A
C798   C383    1.424   1_556 S
C798   C376    1.411   1_556 S
C799   H811    1.083   .     S
C799   C800    1.386   .     A
C800   H812    1.081   .     S
C801   O820    1.384   .     S
C802   H805    1.084   .     S
Cu803  O826    1.913   .     S
Cu803  N818    2.019   .     S
Cu803  O822    1.935   .     S
Cu803  Cu804   2.687   .     S
Cu803  O824    1.952   .     S
Cu803  O819    1.956   .     S
Cu804  N817    2.019   .     S
Cu804  O821    1.952   .     S
Cu804  O823    1.913   .     S
Cu804  O827    1.935   .     S
Cu804  O825    1.956   .     S
H808   C701    1.083   1_655 S
H809   C511    1.088   1_565 S
H810   N726    1.029   1_655 S
H815   O828    0.992   .     S
H816   O820    0.991   .     S
N817   H722    1.029   1_655 S
N817   N726    1.285   1_655 S
