data_str_m2_o1_o1_pcu_sym.86
_audit_creation_date              2020-01-03
_audit_creation_method            'Materials Studio'
_symmetry_space_group_name_H-M    'P1'
_symmetry_Int_Tables_number       1
_symmetry_cell_setting            triclinic
loop_
_symmetry_equiv_pos_as_xyz
  x,y,z
_cell_length_a                    32.6922
_cell_length_b                    29.9841
_cell_length_c                    29.3394
_cell_angle_alpha                 89.6489
_cell_angle_beta                  90.0190
_cell_angle_gamma                 90.1252
loop_
_atom_site_label
_atom_site_type_symbol
_atom_site_fract_x
_atom_site_fract_y
_atom_site_fract_z
_atom_site_U_iso_or_equiv
_atom_site_adp_type
_atom_site_occupancy
O1     O     0.04509   0.20491   0.20625   0.00000  Uiso   1.00
O2     O     0.45492   0.29509   0.12709   0.00000  Uiso   1.00
O3     O     0.45492   0.29509   0.20625   0.00000  Uiso   1.00
O4     O     0.04509   0.20491   0.12709   0.00000  Uiso   1.00
O5     O     0.45492   0.20491   0.12709   0.00000  Uiso   1.00
O6     O     0.04509   0.29509   0.20625   0.00000  Uiso   1.00
O7     O     0.04509   0.29509   0.12709   0.00000  Uiso   1.00
O8     O     0.45492   0.20491   0.20625   0.00000  Uiso   1.00
O9     O     0.29509   0.45491   0.20625   0.00000  Uiso   1.00
O10    O     0.20492   0.04509   0.12709   0.00000  Uiso   1.00
O11    O     0.20492   0.04509   0.20625   0.00000  Uiso   1.00
O12    O     0.29509   0.45491   0.12709   0.00000  Uiso   1.00
O13    O     0.20492   0.45491   0.12709   0.00000  Uiso   1.00
O14    O     0.29509   0.04509   0.20625   0.00000  Uiso   1.00
O15    O     0.29509   0.04509   0.12709   0.00000  Uiso   1.00
O16    O     0.20492   0.45491   0.20625   0.00000  Uiso   1.00
C17    C     0.05853   0.18991   0.16689   0.00000  Uiso   1.00
C18    C     0.44053   0.30936   0.16663   0.00000  Uiso   1.00
C19    C     0.44115   0.18985   0.16665   0.00000  Uiso   1.00
C20    C     0.05775   0.31079   0.16647   0.00000  Uiso   1.00
C21    C     0.30845   0.43981   0.16673   0.00000  Uiso   1.00
C22    C     0.19048   0.05930   0.16659   0.00000  Uiso   1.00
C23    C     0.18981   0.44141   0.16672   0.00000  Uiso   1.00
C24    C     0.30857   0.05997   0.16662   0.00000  Uiso   1.00
N25    N     0.00000   0.25000   0.28402   0.00000  Uiso   1.00
N26    N     0.00000   0.25000   0.04931   0.00000  Uiso   1.00
N27    N     0.25000   0.00000   0.28402   0.00000  Uiso   1.00
N28    N     0.25000   0.00000   0.04931   0.00000  Uiso   1.00
Cu29   Cu    0.00000   0.25000   0.21355   0.00000  Uiso   1.00
Cu30   Cu    0.00000   0.25000   0.11978   0.00000  Uiso   1.00
Cu31   Cu    0.25000   0.00000   0.21355   0.00000  Uiso   1.00
Cu32   Cu    0.25000   0.00000   0.11978   0.00000  Uiso   1.00
C33    C     0.49931   0.21101   0.02443   0.00000  Uiso   1.00
C34    C     0.00300   0.28885   0.30895   0.00000  Uiso   1.00
C35    C     0.00588   0.28842   0.02401   0.00000  Uiso   1.00
C36    C     0.00195   0.21109   0.30935   0.00000  Uiso   1.00
C37    C     0.24624   0.46128   0.02449   0.00000  Uiso   1.00
C38    C     0.25399   0.03883   0.30881   0.00000  Uiso   1.00
C39    C     0.25659   0.03834   0.02390   0.00000  Uiso   1.00
C40    C     0.24820   0.46103   0.30940   0.00000  Uiso   1.00
C41    C     0.39801   0.13062   0.12672   0.00000  Uiso   1.00
C42    C     0.09421   0.37525   0.20155   0.00000  Uiso   1.00
C43    C     0.11769   0.34895   0.12826   0.00000  Uiso   1.00
C44    C     0.38565   0.14544   0.20641   0.00000  Uiso   1.00
C45    C     0.11261   0.14472   0.20793   0.00000  Uiso   1.00
C46    C     0.38625   0.35538   0.12590   0.00000  Uiso   1.00
C47    C     0.39284   0.36225   0.20785   0.00000  Uiso   1.00
C48    C     0.10115   0.13219   0.12783   0.00000  Uiso   1.00
C49    C     0.14463   0.38558   0.12634   0.00000  Uiso   1.00
C50    C     0.34927   0.12099   0.20325   0.00000  Uiso   1.00
C51    C     0.37103   0.09399   0.12955   0.00000  Uiso   1.00
C52    C     0.12921   0.40220   0.20487   0.00000  Uiso   1.00
C53    C     0.36391   0.39688   0.20677   0.00000  Uiso   1.00
C54    C     0.13667   0.10648   0.12584   0.00000  Uiso   1.00
C55    C     0.14146   0.10997   0.20835   0.00000  Uiso   1.00
C56    C     0.35046   0.38079   0.12761   0.00000  Uiso   1.00
C57    C     0.09052   0.34494   0.16558   0.00000  Uiso   1.00
C58    C     0.40844   0.15470   0.16661   0.00000  Uiso   1.00
C59    C     0.40659   0.34291   0.16669   0.00000  Uiso   1.00
C60    C     0.09119   0.15550   0.16760   0.00000  Uiso   1.00
C61    C     0.34329   0.09177   0.16652   0.00000  Uiso   1.00
C62    C     0.15449   0.40928   0.16635   0.00000  Uiso   1.00
C63    C     0.15634   0.09259   0.16672   0.00000  Uiso   1.00
C64    C     0.34105   0.40534   0.16700   0.00000  Uiso   1.00
O65    O     0.49804   0.16975   0.04487   0.00000  Uiso   1.00
H66    H     0.49896   0.17348   0.07784   0.00000  Uiso   1.00
O67    O     0.00487   0.33005   0.28850   0.00000  Uiso   1.00
H68    H     0.49851   0.32654   0.25623   0.00000  Uiso   1.00
O69    O     0.01657   0.32800   0.04408   0.00000  Uiso   1.00
H70    H     0.00603   0.32744   0.07527   0.00000  Uiso   1.00
O71    O     0.00909   0.17047   0.28955   0.00000  Uiso   1.00
H72    H     0.00385   0.17337   0.25692   0.00000  Uiso   1.00
O73    O     0.24172   0.42053   0.04519   0.00000  Uiso   1.00
H74    H     0.24910   0.42357   0.07730   0.00000  Uiso   1.00
O75    O     0.25745   0.07995   0.28817   0.00000  Uiso   1.00
H76    H     0.24884   0.07742   0.25636   0.00000  Uiso   1.00
O77    O     0.26712   0.07798   0.04389   0.00000  Uiso   1.00
H78    H     0.25655   0.07723   0.07500   0.00000  Uiso   1.00
O79    O     0.25201   0.41975   0.28977   0.00000  Uiso   1.00
H80    H     0.25243   0.42334   0.25669   0.00000  Uiso   1.00
O81    O     0.41380   0.14191   0.08461   0.00000  Uiso   1.00
C82    C     0.38998   0.17676   0.06517   0.00000  Uiso   1.00
H83    H     0.40690   0.18930   0.03491   0.00000  Uiso   1.00
H84    H     0.38696   0.20581   0.08842   0.00000  Uiso   1.00
C85    C     0.34696   0.16127   0.05067   0.00000  Uiso   1.00
H86    H     0.34752   0.12633   0.03896   0.00000  Uiso   1.00
H87    H     0.32598   0.16271   0.08042   0.00000  Uiso   1.00
C88    C     0.33006   0.19048   0.01249   0.00000  Uiso   1.00
H89    H     0.33027   0.22587   0.02291   0.00000  Uiso   1.00
H90    H     0.29840   0.18019   0.00409   0.00000  Uiso   1.00
H91    H     0.34915   0.18701   0.31497   0.00000  Uiso   1.00
O92    O     0.06447   0.37731   0.23490   0.00000  Uiso   1.00
C93    C     0.03594   0.41123   0.22354   0.00000  Uiso   1.00
H94    H     0.00472   0.39822   0.23027   0.00000  Uiso   1.00
H95    H     0.03605   0.42136   0.18682   0.00000  Uiso   1.00
C96    C     0.04327   0.45189   0.25358   0.00000  Uiso   1.00
H97    H     0.04800   0.44055   0.28924   0.00000  Uiso   1.00
H98    H     0.07102   0.46982   0.24153   0.00000  Uiso   1.00
C99    C     0.00725   0.48396   0.25279   0.00000  Uiso   1.00
H100   H     0.00053   0.49466   0.21752   0.00000  Uiso   1.00
H101   H     0.01453   0.01386   0.27338   0.00000  Uiso   1.00
H102   H     0.47991   0.46753   0.26746   0.00000  Uiso   1.00
O103   O     0.11610   0.32046   0.09115   0.00000  Uiso   1.00
C104   C     0.12798   0.27669   0.10399   0.00000  Uiso   1.00
H105   H     0.11732   0.25342   0.07714   0.00000  Uiso   1.00
H106   H     0.11358   0.26492   0.13601   0.00000  Uiso   1.00
C107   C     0.17419   0.27226   0.10868   0.00000  Uiso   1.00
H108   H     0.18770   0.26807   0.07448   0.00000  Uiso   1.00
H109   H     0.18763   0.30305   0.12339   0.00000  Uiso   1.00
C110   C     0.18498   0.23274   0.13964   0.00000  Uiso   1.00
H111   H     0.19109   0.24563   0.17414   0.00000  Uiso   1.00
H112   H     0.21225   0.21494   0.12699   0.00000  Uiso   1.00
H113   H     0.15998   0.20787   0.14237   0.00000  Uiso   1.00
O114   O     0.39365   0.16661   0.24694   0.00000  Uiso   1.00
C115   C     0.42351   0.14218   0.27109   0.00000  Uiso   1.00
H116   H     0.43430   0.16419   0.29863   0.00000  Uiso   1.00
H117   H     0.44967   0.13256   0.24906   0.00000  Uiso   1.00
C118   C     0.40673   0.09978   0.29267   0.00000  Uiso   1.00
H119   H     0.37694   0.10649   0.30889   0.00000  Uiso   1.00
H120   H     0.40200   0.07516   0.26519   0.00000  Uiso   1.00
C121   C     0.43691   0.08084   0.32748   0.00000  Uiso   1.00
H122   H     0.46390   0.06658   0.30987   0.00000  Uiso   1.00
H123   H     0.42169   0.05448   0.01445   0.00000  Uiso   1.00
H124   H     0.44766   0.10685   0.01788   0.00000  Uiso   1.00
O125   O     0.10439   0.16626   0.24832   0.00000  Uiso   1.00
C126   C     0.12682   0.20657   0.24962   0.00000  Uiso   1.00
H127   H     0.11453   0.22602   0.27867   0.00000  Uiso   1.00
H128   H     0.12209   0.22758   0.21863   0.00000  Uiso   1.00
C129   C     0.17262   0.19792   0.25674   0.00000  Uiso   1.00
H130   H     0.17667   0.17071   0.28170   0.00000  Uiso   1.00
H131   H     0.18744   0.18719   0.22466   0.00000  Uiso   1.00
C132   C     0.19377   0.23901   0.27463   0.00000  Uiso   1.00
H133   H     0.19442   0.26608   0.24874   0.00000  Uiso   1.00
H134   H     0.22518   0.23044   0.28554   0.00000  Uiso   1.00
H135   H     0.17690   0.25017   0.30487   0.00000  Uiso   1.00
O136   O     0.39682   0.33806   0.08417   0.00000  Uiso   1.00
C137   C     0.43072   0.36156   0.06659   0.00000  Uiso   1.00
H138   H     0.44441   0.33915   0.04131   0.00000  Uiso   1.00
H139   H     0.45363   0.37031   0.09328   0.00000  Uiso   1.00
C140   C     0.41920   0.40340   0.04043   0.00000  Uiso   1.00
H141   H     0.40163   0.39327   0.01014   0.00000  Uiso   1.00
H142   H     0.40019   0.42572   0.06158   0.00000  Uiso   1.00
C143   C     0.45807   0.42773   0.02526   0.00000  Uiso   1.00
H144   H     0.47722   0.43522   0.05531   0.00000  Uiso   1.00
H145   H     0.45133   0.46009   0.00894   0.00000  Uiso   1.00
H146   H     0.47541   0.40699   0.00073   0.00000  Uiso   1.00
O147   O     0.40757   0.34804   0.24966   0.00000  Uiso   1.00
C148   C     0.38242   0.31263   0.26576   0.00000  Uiso   1.00
H149   H     0.40268   0.28714   0.28158   0.00000  Uiso   1.00
H150   H     0.36593   0.29435   0.23813   0.00000  Uiso   1.00
C151   C     0.35271   0.32934   0.30243   0.00000  Uiso   1.00
H152   H     0.36492   0.31965   0.00281   0.00000  Uiso   1.00
H153   H     0.35038   0.36603   0.30210   0.00000  Uiso   1.00
C154   C     0.30952   0.31115   0.29653   0.00000  Uiso   1.00
H155   H     0.29662   0.32305   0.26364   0.00000  Uiso   1.00
H156   H     0.28965   0.32349   0.32432   0.00000  Uiso   1.00
H157   H     0.30971   0.27425   0.29760   0.00000  Uiso   1.00
O158   O     0.07393   0.12871   0.09197   0.00000  Uiso   1.00
C159   C     0.04286   0.09739   0.10379   0.00000  Uiso   1.00
H160   H     0.02356   0.09229   0.07311   0.00000  Uiso   1.00
H161   H     0.02249   0.11128   0.13056   0.00000  Uiso   1.00
C162   C     0.05935   0.05139   0.11931   0.00000  Uiso   1.00
H163   H     0.08179   0.03845   0.09448   0.00000  Uiso   1.00
H164   H     0.07435   0.05398   0.15318   0.00000  Uiso   1.00
C165   C     0.02514   0.01812   0.12450   0.00000  Uiso   1.00
H166   H     0.03756   0.48596   0.13712   0.00000  Uiso   1.00
H167   H     0.00993   0.01291   0.09112   0.00000  Uiso   1.00
H168   H     0.00303   0.03103   0.14972   0.00000  Uiso   1.00
O169   O     0.16243   0.39670   0.08529   0.00000  Uiso   1.00
C170   C     0.14092   0.43318   0.06569   0.00000  Uiso   1.00
H171   H     0.16223   0.45084   0.04233   0.00000  Uiso   1.00
H172   H     0.13162   0.45891   0.09104   0.00000  Uiso   1.00
C173   C     0.10450   0.41694   0.03749   0.00000  Uiso   1.00
H174   H     0.10627   0.43121   0.00258   0.00000  Uiso   1.00
H175   H     0.10511   0.38027   0.03489   0.00000  Uiso   1.00
C176   C     0.06381   0.42949   0.05831   0.00000  Uiso   1.00
H177   H     0.06188   0.41848   0.09444   0.00000  Uiso   1.00
H178   H     0.03975   0.41239   0.03864   0.00000  Uiso   1.00
H179   H     0.05925   0.46596   0.05560   0.00000  Uiso   1.00
O180   O     0.31927   0.12819   0.23561   0.00000  Uiso   1.00
C181   C     0.29226   0.16205   0.21966   0.00000  Uiso   1.00
H182   H     0.26793   0.16606   0.24573   0.00000  Uiso   1.00
H183   H     0.27668   0.15146   0.18770   0.00000  Uiso   1.00
C184   C     0.31348   0.20781   0.21242   0.00000  Uiso   1.00
H185   H     0.33202   0.21656   0.24269   0.00000  Uiso   1.00
H186   H     0.33361   0.20654   0.18199   0.00000  Uiso   1.00
C187   C     0.28328   0.24509   0.20375   0.00000  Uiso   1.00
H188   H     0.26090   0.23438   0.17810   0.00000  Uiso   1.00
H189   H     0.29955   0.27538   0.19166   0.00000  Uiso   1.00
H190   H     0.26738   0.25397   0.23528   0.00000  Uiso   1.00
O191   O     0.36885   0.06495   0.09285   0.00000  Uiso   1.00
C192   C     0.37857   0.02079   0.10676   0.00000  Uiso   1.00
H193   H     0.36398   0.49740   0.08241   0.00000  Uiso   1.00
H194   H     0.36626   0.01173   0.14077   0.00000  Uiso   1.00
C195   C     0.42462   0.01267   0.10648   0.00000  Uiso   1.00
H196   H     0.43459   0.00488   0.07145   0.00000  Uiso   1.00
H197   H     0.44080   0.04338   0.11733   0.00000  Uiso   1.00
C198   C     0.43598   0.47409   0.13846   0.00000  Uiso   1.00
H199   H     0.43902   0.48698   0.17354   0.00000  Uiso   1.00
H200   H     0.46536   0.45871   0.12867   0.00000  Uiso   1.00
H201   H     0.41258   0.44744   0.13788   0.00000  Uiso   1.00
O202   O     0.13714   0.42212   0.24602   0.00000  Uiso   1.00
C203   C     0.16550   0.39552   0.27027   0.00000  Uiso   1.00
H204   H     0.17594   0.41608   0.29926   0.00000  Uiso   1.00
H205   H     0.19251   0.38669   0.24924   0.00000  Uiso   1.00
C206   C     0.14749   0.35175   0.28852   0.00000  Uiso   1.00
H207   H     0.11567   0.35660   0.30007   0.00000  Uiso   1.00
H208   H     0.14642   0.32662   0.26088   0.00000  Uiso   1.00
C209   C     0.17402   0.33390   0.32729   0.00000  Uiso   1.00
H210   H     0.20348   0.32125   0.31384   0.00000  Uiso   1.00
H211   H     0.15716   0.30742   0.01253   0.00000  Uiso   1.00
H212   H     0.18182   0.36025   0.01834   0.00000  Uiso   1.00
O213   O     0.35826   0.42231   0.24524   0.00000  Uiso   1.00
C214   C     0.38602   0.45827   0.24297   0.00000  Uiso   1.00
H215   H     0.37717   0.48212   0.21555   0.00000  Uiso   1.00
H216   H     0.41769   0.44608   0.23674   0.00000  Uiso   1.00
C217   C     0.38683   0.48263   0.28811   0.00000  Uiso   1.00
H218   H     0.38885   0.45828   0.31576   0.00000  Uiso   1.00
H219   H     0.41408   0.00433   0.28880   0.00000  Uiso   1.00
C220   C     0.34843   0.00900   0.29709   0.00000  Uiso   1.00
H221   H     0.34263   0.03342   0.26952   0.00000  Uiso   1.00
H222   H     0.35105   0.02685   0.33000   0.00000  Uiso   1.00
H223   H     0.32311   0.48501   0.29972   0.00000  Uiso   1.00
O224   O     0.14661   0.08945   0.08374   0.00000  Uiso   1.00
C225   C     0.18113   0.11218   0.06663   0.00000  Uiso   1.00
H226   H     0.19313   0.09173   0.03843   0.00000  Uiso   1.00
H227   H     0.20490   0.11654   0.09334   0.00000  Uiso   1.00
C228   C     0.17221   0.15818   0.04704   0.00000  Uiso   1.00
H229   H     0.15197   0.15548   0.01699   0.00000  Uiso   1.00
H230   H     0.15620   0.17898   0.07221   0.00000  Uiso   1.00
C231   C     0.21305   0.17995   0.03434   0.00000  Uiso   1.00
H232   H     0.23559   0.17736   0.06254   0.00000  Uiso   1.00
H233   H     0.20879   0.21568   0.02757   0.00000  Uiso   1.00
H234   H     0.22634   0.16342   0.00404   0.00000  Uiso   1.00
O235   O     0.15854   0.09763   0.24969   0.00000  Uiso   1.00
C236   C     0.13765   0.06016   0.26789   0.00000  Uiso   1.00
H237   H     0.15975   0.04218   0.29015   0.00000  Uiso   1.00
H238   H     0.12786   0.03582   0.24134   0.00000  Uiso   1.00
C239   C     0.10081   0.07445   0.29658   0.00000  Uiso   1.00
H240   H     0.10826   0.10502   0.31600   0.00000  Uiso   1.00
H241   H     0.07449   0.08179   0.27376   0.00000  Uiso   1.00
C242   C     0.08865   0.03806   0.33034   0.00000  Uiso   1.00
H243   H     0.08387   0.00617   0.31254   0.00000  Uiso   1.00
H244   H     0.05982   0.04744   0.01437   0.00000  Uiso   1.00
H245   H     0.11321   0.03324   0.02266   0.00000  Uiso   1.00
O246   O     0.32536   0.38110   0.08967   0.00000  Uiso   1.00
C247   C     0.29516   0.34739   0.09496   0.00000  Uiso   1.00
H248   H     0.27318   0.35093   0.06652   0.00000  Uiso   1.00
H249   H     0.27742   0.35188   0.12707   0.00000  Uiso   1.00
C250   C     0.31241   0.29972   0.09227   0.00000  Uiso   1.00
H251   H     0.33297   0.29631   0.06284   0.00000  Uiso   1.00
H252   H     0.32992   0.29151   0.12355   0.00000  Uiso   1.00
C253   C     0.27817   0.26608   0.08724   0.00000  Uiso   1.00
H254   H     0.28978   0.23187   0.09338   0.00000  Uiso   1.00
H255   H     0.26446   0.26827   0.05267   0.00000  Uiso   1.00
H256   H     0.25478   0.27369   0.11290   0.00000  Uiso   1.00
O257   O     0.54509   0.20491   0.20625   0.00000  Uiso   1.00
O258   O     0.95492   0.29509   0.12709   0.00000  Uiso   1.00
O259   O     0.95492   0.29509   0.20625   0.00000  Uiso   1.00
O260   O     0.54509   0.20491   0.12709   0.00000  Uiso   1.00
O261   O     0.95492   0.20491   0.12709   0.00000  Uiso   1.00
O262   O     0.54509   0.29509   0.20625   0.00000  Uiso   1.00
O263   O     0.54509   0.29509   0.12709   0.00000  Uiso   1.00
O264   O     0.95492   0.20491   0.20625   0.00000  Uiso   1.00
O265   O     0.79509   0.45491   0.20625   0.00000  Uiso   1.00
O266   O     0.70492   0.04509   0.12709   0.00000  Uiso   1.00
O267   O     0.70492   0.04509   0.20625   0.00000  Uiso   1.00
O268   O     0.79509   0.45491   0.12709   0.00000  Uiso   1.00
O269   O     0.70492   0.45491   0.12709   0.00000  Uiso   1.00
O270   O     0.79509   0.04509   0.20625   0.00000  Uiso   1.00
O271   O     0.79509   0.04509   0.12709   0.00000  Uiso   1.00
O272   O     0.70492   0.45491   0.20625   0.00000  Uiso   1.00
C273   C     0.55853   0.18991   0.16689   0.00000  Uiso   1.00
C274   C     0.94053   0.30936   0.16663   0.00000  Uiso   1.00
C275   C     0.94115   0.18985   0.16665   0.00000  Uiso   1.00
C276   C     0.55775   0.31079   0.16647   0.00000  Uiso   1.00
C277   C     0.80845   0.43981   0.16673   0.00000  Uiso   1.00
C278   C     0.69048   0.05930   0.16659   0.00000  Uiso   1.00
C279   C     0.68981   0.44141   0.16672   0.00000  Uiso   1.00
C280   C     0.80857   0.05997   0.16662   0.00000  Uiso   1.00
N281   N     0.50000   0.25000   0.28402   0.00000  Uiso   1.00
N282   N     0.50000   0.25000   0.04931   0.00000  Uiso   1.00
N283   N     0.75000   0.00000   0.28402   0.00000  Uiso   1.00
N284   N     0.75000   0.00000   0.04931   0.00000  Uiso   1.00
Cu285  Cu    0.50000   0.25000   0.21355   0.00000  Uiso   1.00
Cu286  Cu    0.50000   0.25000   0.11978   0.00000  Uiso   1.00
Cu287  Cu    0.75000   0.00000   0.21355   0.00000  Uiso   1.00
Cu288  Cu    0.75000   0.00000   0.11978   0.00000  Uiso   1.00
C289   C     0.99931   0.21101   0.02443   0.00000  Uiso   1.00
C290   C     0.50300   0.28885   0.30895   0.00000  Uiso   1.00
C291   C     0.50588   0.28842   0.02401   0.00000  Uiso   1.00
C292   C     0.50195   0.21109   0.30935   0.00000  Uiso   1.00
C293   C     0.74624   0.46128   0.02449   0.00000  Uiso   1.00
C294   C     0.75399   0.03883   0.30881   0.00000  Uiso   1.00
C295   C     0.75659   0.03834   0.02390   0.00000  Uiso   1.00
C296   C     0.74820   0.46103   0.30940   0.00000  Uiso   1.00
C297   C     0.89801   0.13062   0.12672   0.00000  Uiso   1.00
C298   C     0.59421   0.37525   0.20155   0.00000  Uiso   1.00
C299   C     0.61769   0.34895   0.12826   0.00000  Uiso   1.00
C300   C     0.88565   0.14544   0.20641   0.00000  Uiso   1.00
C301   C     0.61261   0.14472   0.20793   0.00000  Uiso   1.00
C302   C     0.88625   0.35538   0.12590   0.00000  Uiso   1.00
C303   C     0.89284   0.36225   0.20785   0.00000  Uiso   1.00
C304   C     0.60115   0.13219   0.12783   0.00000  Uiso   1.00
C305   C     0.64463   0.38558   0.12634   0.00000  Uiso   1.00
C306   C     0.84927   0.12099   0.20325   0.00000  Uiso   1.00
C307   C     0.87103   0.09399   0.12955   0.00000  Uiso   1.00
C308   C     0.62921   0.40220   0.20487   0.00000  Uiso   1.00
C309   C     0.86391   0.39688   0.20677   0.00000  Uiso   1.00
C310   C     0.63667   0.10648   0.12584   0.00000  Uiso   1.00
C311   C     0.64146   0.10997   0.20835   0.00000  Uiso   1.00
C312   C     0.85046   0.38079   0.12761   0.00000  Uiso   1.00
C313   C     0.59052   0.34494   0.16558   0.00000  Uiso   1.00
C314   C     0.90844   0.15470   0.16661   0.00000  Uiso   1.00
C315   C     0.90659   0.34291   0.16669   0.00000  Uiso   1.00
C316   C     0.59119   0.15550   0.16760   0.00000  Uiso   1.00
C317   C     0.84329   0.09177   0.16652   0.00000  Uiso   1.00
C318   C     0.65449   0.40928   0.16635   0.00000  Uiso   1.00
C319   C     0.65634   0.09259   0.16672   0.00000  Uiso   1.00
C320   C     0.84105   0.40534   0.16700   0.00000  Uiso   1.00
O321   O     0.99804   0.16975   0.04487   0.00000  Uiso   1.00
H322   H     0.99896   0.17348   0.07784   0.00000  Uiso   1.00
O323   O     0.50487   0.33005   0.28850   0.00000  Uiso   1.00
H324   H     0.99851   0.32654   0.25623   0.00000  Uiso   1.00
O325   O     0.51657   0.32800   0.04408   0.00000  Uiso   1.00
H326   H     0.50603   0.32744   0.07527   0.00000  Uiso   1.00
O327   O     0.50909   0.17047   0.28955   0.00000  Uiso   1.00
H328   H     0.50385   0.17337   0.25692   0.00000  Uiso   1.00
O329   O     0.74172   0.42053   0.04519   0.00000  Uiso   1.00
H330   H     0.74910   0.42357   0.07730   0.00000  Uiso   1.00
O331   O     0.75745   0.07995   0.28817   0.00000  Uiso   1.00
H332   H     0.74884   0.07742   0.25636   0.00000  Uiso   1.00
O333   O     0.76712   0.07798   0.04389   0.00000  Uiso   1.00
H334   H     0.75655   0.07723   0.07500   0.00000  Uiso   1.00
O335   O     0.75201   0.41975   0.28977   0.00000  Uiso   1.00
H336   H     0.75243   0.42334   0.25669   0.00000  Uiso   1.00
O337   O     0.91380   0.14191   0.08461   0.00000  Uiso   1.00
C338   C     0.88998   0.17676   0.06517   0.00000  Uiso   1.00
H339   H     0.90690   0.18930   0.03491   0.00000  Uiso   1.00
H340   H     0.88696   0.20581   0.08842   0.00000  Uiso   1.00
C341   C     0.84696   0.16127   0.05067   0.00000  Uiso   1.00
H342   H     0.84752   0.12633   0.03896   0.00000  Uiso   1.00
H343   H     0.82598   0.16271   0.08042   0.00000  Uiso   1.00
C344   C     0.83006   0.19048   0.01249   0.00000  Uiso   1.00
H345   H     0.83027   0.22587   0.02291   0.00000  Uiso   1.00
H346   H     0.79840   0.18019   0.00409   0.00000  Uiso   1.00
H347   H     0.84915   0.18701   0.31497   0.00000  Uiso   1.00
O348   O     0.56447   0.37731   0.23490   0.00000  Uiso   1.00
C349   C     0.53594   0.41123   0.22354   0.00000  Uiso   1.00
H350   H     0.50472   0.39822   0.23027   0.00000  Uiso   1.00
H351   H     0.53605   0.42136   0.18682   0.00000  Uiso   1.00
C352   C     0.54327   0.45189   0.25358   0.00000  Uiso   1.00
H353   H     0.54800   0.44055   0.28924   0.00000  Uiso   1.00
H354   H     0.57102   0.46982   0.24153   0.00000  Uiso   1.00
C355   C     0.50725   0.48396   0.25279   0.00000  Uiso   1.00
H356   H     0.50053   0.49466   0.21752   0.00000  Uiso   1.00
H357   H     0.51453   0.01386   0.27338   0.00000  Uiso   1.00
H358   H     0.97991   0.46753   0.26746   0.00000  Uiso   1.00
O359   O     0.61610   0.32046   0.09115   0.00000  Uiso   1.00
C360   C     0.62798   0.27669   0.10399   0.00000  Uiso   1.00
H361   H     0.61732   0.25342   0.07714   0.00000  Uiso   1.00
H362   H     0.61358   0.26492   0.13601   0.00000  Uiso   1.00
C363   C     0.67419   0.27226   0.10868   0.00000  Uiso   1.00
H364   H     0.68770   0.26807   0.07448   0.00000  Uiso   1.00
H365   H     0.68763   0.30305   0.12339   0.00000  Uiso   1.00
C366   C     0.68498   0.23274   0.13964   0.00000  Uiso   1.00
H367   H     0.69109   0.24563   0.17414   0.00000  Uiso   1.00
H368   H     0.71225   0.21494   0.12699   0.00000  Uiso   1.00
H369   H     0.65998   0.20787   0.14237   0.00000  Uiso   1.00
O370   O     0.89365   0.16661   0.24694   0.00000  Uiso   1.00
C371   C     0.92351   0.14218   0.27109   0.00000  Uiso   1.00
H372   H     0.93430   0.16419   0.29863   0.00000  Uiso   1.00
H373   H     0.94967   0.13256   0.24906   0.00000  Uiso   1.00
C374   C     0.90673   0.09978   0.29267   0.00000  Uiso   1.00
H375   H     0.87694   0.10649   0.30889   0.00000  Uiso   1.00
H376   H     0.90200   0.07516   0.26519   0.00000  Uiso   1.00
C377   C     0.93691   0.08084   0.32748   0.00000  Uiso   1.00
H378   H     0.96390   0.06658   0.30987   0.00000  Uiso   1.00
H379   H     0.92169   0.05448   0.01445   0.00000  Uiso   1.00
H380   H     0.94766   0.10685   0.01788   0.00000  Uiso   1.00
O381   O     0.60439   0.16626   0.24832   0.00000  Uiso   1.00
C382   C     0.62682   0.20657   0.24962   0.00000  Uiso   1.00
H383   H     0.61453   0.22602   0.27867   0.00000  Uiso   1.00
H384   H     0.62209   0.22758   0.21863   0.00000  Uiso   1.00
C385   C     0.67262   0.19792   0.25674   0.00000  Uiso   1.00
H386   H     0.67667   0.17071   0.28170   0.00000  Uiso   1.00
H387   H     0.68744   0.18719   0.22466   0.00000  Uiso   1.00
C388   C     0.69377   0.23901   0.27463   0.00000  Uiso   1.00
H389   H     0.69442   0.26608   0.24874   0.00000  Uiso   1.00
H390   H     0.72518   0.23044   0.28554   0.00000  Uiso   1.00
H391   H     0.67690   0.25017   0.30487   0.00000  Uiso   1.00
O392   O     0.89682   0.33806   0.08417   0.00000  Uiso   1.00
C393   C     0.93072   0.36156   0.06659   0.00000  Uiso   1.00
H394   H     0.94441   0.33915   0.04131   0.00000  Uiso   1.00
H395   H     0.95363   0.37031   0.09328   0.00000  Uiso   1.00
C396   C     0.91920   0.40340   0.04043   0.00000  Uiso   1.00
H397   H     0.90163   0.39327   0.01014   0.00000  Uiso   1.00
H398   H     0.90019   0.42572   0.06158   0.00000  Uiso   1.00
C399   C     0.95807   0.42773   0.02526   0.00000  Uiso   1.00
H400   H     0.97722   0.43522   0.05531   0.00000  Uiso   1.00
H401   H     0.95133   0.46009   0.00894   0.00000  Uiso   1.00
H402   H     0.97541   0.40699   0.00073   0.00000  Uiso   1.00
O403   O     0.90757   0.34804   0.24966   0.00000  Uiso   1.00
C404   C     0.88242   0.31263   0.26576   0.00000  Uiso   1.00
H405   H     0.90268   0.28714   0.28158   0.00000  Uiso   1.00
H406   H     0.86593   0.29435   0.23813   0.00000  Uiso   1.00
C407   C     0.85271   0.32934   0.30243   0.00000  Uiso   1.00
H408   H     0.86492   0.31965   0.00281   0.00000  Uiso   1.00
H409   H     0.85038   0.36603   0.30210   0.00000  Uiso   1.00
C410   C     0.80952   0.31115   0.29653   0.00000  Uiso   1.00
H411   H     0.79662   0.32305   0.26364   0.00000  Uiso   1.00
H412   H     0.78965   0.32349   0.32432   0.00000  Uiso   1.00
H413   H     0.80971   0.27425   0.29760   0.00000  Uiso   1.00
O414   O     0.57393   0.12871   0.09197   0.00000  Uiso   1.00
C415   C     0.54286   0.09739   0.10379   0.00000  Uiso   1.00
H416   H     0.52356   0.09229   0.07311   0.00000  Uiso   1.00
H417   H     0.52249   0.11128   0.13056   0.00000  Uiso   1.00
C418   C     0.55935   0.05139   0.11931   0.00000  Uiso   1.00
H419   H     0.58179   0.03845   0.09448   0.00000  Uiso   1.00
H420   H     0.57435   0.05398   0.15318   0.00000  Uiso   1.00
C421   C     0.52514   0.01812   0.12450   0.00000  Uiso   1.00
H422   H     0.53756   0.48596   0.13712   0.00000  Uiso   1.00
H423   H     0.50993   0.01291   0.09112   0.00000  Uiso   1.00
H424   H     0.50303   0.03103   0.14972   0.00000  Uiso   1.00
O425   O     0.66243   0.39670   0.08529   0.00000  Uiso   1.00
C426   C     0.64092   0.43318   0.06569   0.00000  Uiso   1.00
H427   H     0.66223   0.45084   0.04233   0.00000  Uiso   1.00
H428   H     0.63162   0.45891   0.09104   0.00000  Uiso   1.00
C429   C     0.60450   0.41694   0.03749   0.00000  Uiso   1.00
H430   H     0.60627   0.43121   0.00258   0.00000  Uiso   1.00
H431   H     0.60511   0.38027   0.03489   0.00000  Uiso   1.00
C432   C     0.56381   0.42949   0.05831   0.00000  Uiso   1.00
H433   H     0.56188   0.41848   0.09444   0.00000  Uiso   1.00
H434   H     0.53975   0.41239   0.03864   0.00000  Uiso   1.00
H435   H     0.55925   0.46596   0.05560   0.00000  Uiso   1.00
O436   O     0.81927   0.12819   0.23561   0.00000  Uiso   1.00
C437   C     0.79226   0.16205   0.21966   0.00000  Uiso   1.00
H438   H     0.76793   0.16606   0.24573   0.00000  Uiso   1.00
H439   H     0.77668   0.15146   0.18770   0.00000  Uiso   1.00
C440   C     0.81348   0.20781   0.21242   0.00000  Uiso   1.00
H441   H     0.83202   0.21656   0.24269   0.00000  Uiso   1.00
H442   H     0.83361   0.20654   0.18199   0.00000  Uiso   1.00
C443   C     0.78328   0.24509   0.20375   0.00000  Uiso   1.00
H444   H     0.76090   0.23438   0.17810   0.00000  Uiso   1.00
H445   H     0.79955   0.27538   0.19166   0.00000  Uiso   1.00
H446   H     0.76738   0.25397   0.23528   0.00000  Uiso   1.00
O447   O     0.86885   0.06495   0.09285   0.00000  Uiso   1.00
C448   C     0.87857   0.02079   0.10676   0.00000  Uiso   1.00
H449   H     0.86398   0.49740   0.08241   0.00000  Uiso   1.00
H450   H     0.86626   0.01173   0.14077   0.00000  Uiso   1.00
C451   C     0.92462   0.01267   0.10648   0.00000  Uiso   1.00
H452   H     0.93459   0.00488   0.07145   0.00000  Uiso   1.00
H453   H     0.94080   0.04338   0.11733   0.00000  Uiso   1.00
C454   C     0.93598   0.47409   0.13846   0.00000  Uiso   1.00
H455   H     0.93902   0.48698   0.17354   0.00000  Uiso   1.00
H456   H     0.96536   0.45871   0.12867   0.00000  Uiso   1.00
H457   H     0.91258   0.44744   0.13788   0.00000  Uiso   1.00
O458   O     0.63714   0.42212   0.24602   0.00000  Uiso   1.00
C459   C     0.66550   0.39552   0.27027   0.00000  Uiso   1.00
H460   H     0.67594   0.41608   0.29926   0.00000  Uiso   1.00
H461   H     0.69251   0.38669   0.24924   0.00000  Uiso   1.00
C462   C     0.64749   0.35175   0.28852   0.00000  Uiso   1.00
H463   H     0.61567   0.35660   0.30007   0.00000  Uiso   1.00
H464   H     0.64642   0.32662   0.26088   0.00000  Uiso   1.00
C465   C     0.67402   0.33390   0.32729   0.00000  Uiso   1.00
H466   H     0.70348   0.32125   0.31384   0.00000  Uiso   1.00
H467   H     0.65716   0.30742   0.01253   0.00000  Uiso   1.00
H468   H     0.68182   0.36025   0.01834   0.00000  Uiso   1.00
O469   O     0.85826   0.42231   0.24524   0.00000  Uiso   1.00
C470   C     0.88602   0.45827   0.24297   0.00000  Uiso   1.00
H471   H     0.87717   0.48212   0.21555   0.00000  Uiso   1.00
H472   H     0.91769   0.44608   0.23674   0.00000  Uiso   1.00
C473   C     0.88683   0.48263   0.28811   0.00000  Uiso   1.00
H474   H     0.88885   0.45828   0.31576   0.00000  Uiso   1.00
H475   H     0.91408   0.00433   0.28880   0.00000  Uiso   1.00
C476   C     0.84843   0.00900   0.29709   0.00000  Uiso   1.00
H477   H     0.84263   0.03342   0.26952   0.00000  Uiso   1.00
H478   H     0.85105   0.02685   0.33000   0.00000  Uiso   1.00
H479   H     0.82311   0.48501   0.29972   0.00000  Uiso   1.00
O480   O     0.64661   0.08945   0.08374   0.00000  Uiso   1.00
C481   C     0.68113   0.11218   0.06663   0.00000  Uiso   1.00
H482   H     0.69313   0.09173   0.03843   0.00000  Uiso   1.00
H483   H     0.70490   0.11654   0.09334   0.00000  Uiso   1.00
C484   C     0.67221   0.15818   0.04704   0.00000  Uiso   1.00
H485   H     0.65197   0.15548   0.01699   0.00000  Uiso   1.00
H486   H     0.65620   0.17898   0.07221   0.00000  Uiso   1.00
C487   C     0.71305   0.17995   0.03434   0.00000  Uiso   1.00
H488   H     0.73559   0.17736   0.06254   0.00000  Uiso   1.00
H489   H     0.70879   0.21568   0.02757   0.00000  Uiso   1.00
H490   H     0.72634   0.16342   0.00404   0.00000  Uiso   1.00
O491   O     0.65854   0.09763   0.24969   0.00000  Uiso   1.00
C492   C     0.63765   0.06016   0.26789   0.00000  Uiso   1.00
H493   H     0.65975   0.04218   0.29015   0.00000  Uiso   1.00
H494   H     0.62786   0.03582   0.24134   0.00000  Uiso   1.00
C495   C     0.60081   0.07445   0.29658   0.00000  Uiso   1.00
H496   H     0.60826   0.10502   0.31600   0.00000  Uiso   1.00
H497   H     0.57449   0.08179   0.27376   0.00000  Uiso   1.00
C498   C     0.58865   0.03806   0.33034   0.00000  Uiso   1.00
H499   H     0.58387   0.00617   0.31254   0.00000  Uiso   1.00
H500   H     0.55982   0.04744   0.01437   0.00000  Uiso   1.00
H501   H     0.61321   0.03324   0.02266   0.00000  Uiso   1.00
O502   O     0.82536   0.38110   0.08967   0.00000  Uiso   1.00
C503   C     0.79516   0.34739   0.09496   0.00000  Uiso   1.00
H504   H     0.77318   0.35093   0.06652   0.00000  Uiso   1.00
H505   H     0.77742   0.35188   0.12707   0.00000  Uiso   1.00
C506   C     0.81241   0.29972   0.09227   0.00000  Uiso   1.00
H507   H     0.83297   0.29631   0.06284   0.00000  Uiso   1.00
H508   H     0.82992   0.29151   0.12355   0.00000  Uiso   1.00
C509   C     0.77817   0.26608   0.08724   0.00000  Uiso   1.00
H510   H     0.78978   0.23187   0.09338   0.00000  Uiso   1.00
H511   H     0.76446   0.26827   0.05267   0.00000  Uiso   1.00
H512   H     0.75478   0.27369   0.11290   0.00000  Uiso   1.00
O513   O     0.04509   0.70491   0.20625   0.00000  Uiso   1.00
O514   O     0.45492   0.79509   0.12709   0.00000  Uiso   1.00
O515   O     0.45492   0.79509   0.20625   0.00000  Uiso   1.00
O516   O     0.04509   0.70491   0.12709   0.00000  Uiso   1.00
O517   O     0.45492   0.70491   0.12709   0.00000  Uiso   1.00
O518   O     0.04509   0.79509   0.20625   0.00000  Uiso   1.00
O519   O     0.04509   0.79509   0.12709   0.00000  Uiso   1.00
O520   O     0.45492   0.70491   0.20625   0.00000  Uiso   1.00
O521   O     0.29509   0.95491   0.20625   0.00000  Uiso   1.00
O522   O     0.20492   0.54509   0.12709   0.00000  Uiso   1.00
O523   O     0.20492   0.54509   0.20625   0.00000  Uiso   1.00
O524   O     0.29509   0.95491   0.12709   0.00000  Uiso   1.00
O525   O     0.20492   0.95491   0.12709   0.00000  Uiso   1.00
O526   O     0.29509   0.54509   0.20625   0.00000  Uiso   1.00
O527   O     0.29509   0.54509   0.12709   0.00000  Uiso   1.00
O528   O     0.20492   0.95491   0.20625   0.00000  Uiso   1.00
C529   C     0.05853   0.68991   0.16689   0.00000  Uiso   1.00
C530   C     0.44053   0.80936   0.16663   0.00000  Uiso   1.00
C531   C     0.44115   0.68985   0.16665   0.00000  Uiso   1.00
C532   C     0.05775   0.81079   0.16647   0.00000  Uiso   1.00
C533   C     0.30845   0.93981   0.16673   0.00000  Uiso   1.00
C534   C     0.19048   0.55930   0.16659   0.00000  Uiso   1.00
C535   C     0.18981   0.94141   0.16672   0.00000  Uiso   1.00
C536   C     0.30857   0.55997   0.16662   0.00000  Uiso   1.00
N537   N     0.00000   0.75000   0.28402   0.00000  Uiso   1.00
N538   N     0.00000   0.75000   0.04931   0.00000  Uiso   1.00
N539   N     0.25000   0.50000   0.28402   0.00000  Uiso   1.00
N540   N     0.25000   0.50000   0.04931   0.00000  Uiso   1.00
Cu541  Cu    0.00000   0.75000   0.21355   0.00000  Uiso   1.00
Cu542  Cu    0.00000   0.75000   0.11978   0.00000  Uiso   1.00
Cu543  Cu    0.25000   0.50000   0.21355   0.00000  Uiso   1.00
Cu544  Cu    0.25000   0.50000   0.11978   0.00000  Uiso   1.00
C545   C     0.49931   0.71101   0.02443   0.00000  Uiso   1.00
C546   C     0.00300   0.78885   0.30895   0.00000  Uiso   1.00
C547   C     0.00588   0.78842   0.02401   0.00000  Uiso   1.00
C548   C     0.00195   0.71109   0.30935   0.00000  Uiso   1.00
C549   C     0.24624   0.96128   0.02449   0.00000  Uiso   1.00
C550   C     0.25399   0.53883   0.30881   0.00000  Uiso   1.00
C551   C     0.25659   0.53834   0.02390   0.00000  Uiso   1.00
C552   C     0.24820   0.96103   0.30940   0.00000  Uiso   1.00
C553   C     0.39801   0.63062   0.12672   0.00000  Uiso   1.00
C554   C     0.09421   0.87525   0.20155   0.00000  Uiso   1.00
C555   C     0.11769   0.84895   0.12826   0.00000  Uiso   1.00
C556   C     0.38565   0.64544   0.20641   0.00000  Uiso   1.00
C557   C     0.11261   0.64472   0.20793   0.00000  Uiso   1.00
C558   C     0.38625   0.85538   0.12590   0.00000  Uiso   1.00
C559   C     0.39284   0.86225   0.20785   0.00000  Uiso   1.00
C560   C     0.10115   0.63219   0.12783   0.00000  Uiso   1.00
C561   C     0.14463   0.88558   0.12634   0.00000  Uiso   1.00
C562   C     0.34927   0.62099   0.20325   0.00000  Uiso   1.00
C563   C     0.37103   0.59399   0.12955   0.00000  Uiso   1.00
C564   C     0.12921   0.90220   0.20487   0.00000  Uiso   1.00
C565   C     0.36391   0.89688   0.20677   0.00000  Uiso   1.00
C566   C     0.13667   0.60648   0.12584   0.00000  Uiso   1.00
C567   C     0.14146   0.60997   0.20835   0.00000  Uiso   1.00
C568   C     0.35046   0.88079   0.12761   0.00000  Uiso   1.00
C569   C     0.09052   0.84494   0.16558   0.00000  Uiso   1.00
C570   C     0.40844   0.65470   0.16661   0.00000  Uiso   1.00
C571   C     0.40659   0.84291   0.16669   0.00000  Uiso   1.00
C572   C     0.09119   0.65550   0.16760   0.00000  Uiso   1.00
C573   C     0.34329   0.59177   0.16652   0.00000  Uiso   1.00
C574   C     0.15449   0.90928   0.16635   0.00000  Uiso   1.00
C575   C     0.15634   0.59259   0.16672   0.00000  Uiso   1.00
C576   C     0.34105   0.90534   0.16700   0.00000  Uiso   1.00
O577   O     0.49804   0.66975   0.04487   0.00000  Uiso   1.00
H578   H     0.49896   0.67348   0.07784   0.00000  Uiso   1.00
O579   O     0.00487   0.83005   0.28850   0.00000  Uiso   1.00
H580   H     0.49851   0.82654   0.25623   0.00000  Uiso   1.00
O581   O     0.01657   0.82800   0.04408   0.00000  Uiso   1.00
H582   H     0.00603   0.82744   0.07527   0.00000  Uiso   1.00
O583   O     0.00909   0.67047   0.28955   0.00000  Uiso   1.00
H584   H     0.00385   0.67337   0.25692   0.00000  Uiso   1.00
O585   O     0.24172   0.92053   0.04519   0.00000  Uiso   1.00
H586   H     0.24910   0.92357   0.07730   0.00000  Uiso   1.00
O587   O     0.25745   0.57995   0.28817   0.00000  Uiso   1.00
H588   H     0.24884   0.57742   0.25636   0.00000  Uiso   1.00
O589   O     0.26712   0.57798   0.04389   0.00000  Uiso   1.00
H590   H     0.25655   0.57723   0.07500   0.00000  Uiso   1.00
O591   O     0.25201   0.91975   0.28977   0.00000  Uiso   1.00
H592   H     0.25243   0.92334   0.25669   0.00000  Uiso   1.00
O593   O     0.41380   0.64191   0.08461   0.00000  Uiso   1.00
C594   C     0.38998   0.67676   0.06517   0.00000  Uiso   1.00
H595   H     0.40690   0.68930   0.03491   0.00000  Uiso   1.00
H596   H     0.38696   0.70581   0.08842   0.00000  Uiso   1.00
C597   C     0.34696   0.66127   0.05067   0.00000  Uiso   1.00
H598   H     0.34752   0.62633   0.03896   0.00000  Uiso   1.00
H599   H     0.32598   0.66271   0.08042   0.00000  Uiso   1.00
C600   C     0.33006   0.69048   0.01249   0.00000  Uiso   1.00
H601   H     0.33027   0.72587   0.02291   0.00000  Uiso   1.00
H602   H     0.29840   0.68019   0.00409   0.00000  Uiso   1.00
H603   H     0.34915   0.68701   0.31497   0.00000  Uiso   1.00
O604   O     0.06447   0.87731   0.23490   0.00000  Uiso   1.00
C605   C     0.03594   0.91123   0.22354   0.00000  Uiso   1.00
H606   H     0.00472   0.89822   0.23027   0.00000  Uiso   1.00
H607   H     0.03605   0.92136   0.18682   0.00000  Uiso   1.00
C608   C     0.04327   0.95189   0.25358   0.00000  Uiso   1.00
H609   H     0.04800   0.94055   0.28924   0.00000  Uiso   1.00
H610   H     0.07102   0.96982   0.24153   0.00000  Uiso   1.00
C611   C     0.00725   0.98396   0.25279   0.00000  Uiso   1.00
H612   H     0.00053   0.99466   0.21752   0.00000  Uiso   1.00
H613   H     0.01453   0.51386   0.27338   0.00000  Uiso   1.00
H614   H     0.47991   0.96753   0.26746   0.00000  Uiso   1.00
O615   O     0.11610   0.82046   0.09115   0.00000  Uiso   1.00
C616   C     0.12798   0.77669   0.10399   0.00000  Uiso   1.00
H617   H     0.11732   0.75342   0.07714   0.00000  Uiso   1.00
H618   H     0.11358   0.76492   0.13601   0.00000  Uiso   1.00
C619   C     0.17419   0.77226   0.10868   0.00000  Uiso   1.00
H620   H     0.18770   0.76807   0.07448   0.00000  Uiso   1.00
H621   H     0.18763   0.80305   0.12339   0.00000  Uiso   1.00
C622   C     0.18498   0.73274   0.13964   0.00000  Uiso   1.00
H623   H     0.19109   0.74563   0.17414   0.00000  Uiso   1.00
H624   H     0.21225   0.71494   0.12699   0.00000  Uiso   1.00
H625   H     0.15998   0.70787   0.14237   0.00000  Uiso   1.00
O626   O     0.39365   0.66661   0.24694   0.00000  Uiso   1.00
C627   C     0.42351   0.64218   0.27109   0.00000  Uiso   1.00
H628   H     0.43430   0.66419   0.29863   0.00000  Uiso   1.00
H629   H     0.44967   0.63256   0.24906   0.00000  Uiso   1.00
C630   C     0.40673   0.59978   0.29267   0.00000  Uiso   1.00
H631   H     0.37694   0.60649   0.30889   0.00000  Uiso   1.00
H632   H     0.40200   0.57516   0.26519   0.00000  Uiso   1.00
C633   C     0.43691   0.58084   0.32748   0.00000  Uiso   1.00
H634   H     0.46390   0.56658   0.30987   0.00000  Uiso   1.00
H635   H     0.42169   0.55448   0.01445   0.00000  Uiso   1.00
H636   H     0.44766   0.60685   0.01788   0.00000  Uiso   1.00
O637   O     0.10439   0.66626   0.24832   0.00000  Uiso   1.00
C638   C     0.12682   0.70657   0.24962   0.00000  Uiso   1.00
H639   H     0.11453   0.72602   0.27867   0.00000  Uiso   1.00
H640   H     0.12209   0.72758   0.21863   0.00000  Uiso   1.00
C641   C     0.17262   0.69792   0.25674   0.00000  Uiso   1.00
H642   H     0.17667   0.67071   0.28170   0.00000  Uiso   1.00
H643   H     0.18744   0.68719   0.22466   0.00000  Uiso   1.00
C644   C     0.19377   0.73901   0.27463   0.00000  Uiso   1.00
H645   H     0.19442   0.76608   0.24874   0.00000  Uiso   1.00
H646   H     0.22518   0.73044   0.28554   0.00000  Uiso   1.00
H647   H     0.17690   0.75017   0.30487   0.00000  Uiso   1.00
O648   O     0.39682   0.83806   0.08417   0.00000  Uiso   1.00
C649   C     0.43072   0.86156   0.06659   0.00000  Uiso   1.00
H650   H     0.44441   0.83915   0.04131   0.00000  Uiso   1.00
H651   H     0.45363   0.87031   0.09328   0.00000  Uiso   1.00
C652   C     0.41920   0.90340   0.04043   0.00000  Uiso   1.00
H653   H     0.40163   0.89327   0.01014   0.00000  Uiso   1.00
H654   H     0.40019   0.92572   0.06158   0.00000  Uiso   1.00
C655   C     0.45807   0.92773   0.02526   0.00000  Uiso   1.00
H656   H     0.47722   0.93522   0.05531   0.00000  Uiso   1.00
H657   H     0.45133   0.96009   0.00894   0.00000  Uiso   1.00
H658   H     0.47541   0.90699   0.00073   0.00000  Uiso   1.00
O659   O     0.40757   0.84804   0.24966   0.00000  Uiso   1.00
C660   C     0.38242   0.81263   0.26576   0.00000  Uiso   1.00
H661   H     0.40268   0.78714   0.28158   0.00000  Uiso   1.00
H662   H     0.36593   0.79435   0.23813   0.00000  Uiso   1.00
C663   C     0.35271   0.82934   0.30243   0.00000  Uiso   1.00
H664   H     0.36492   0.81965   0.00281   0.00000  Uiso   1.00
H665   H     0.35038   0.86603   0.30210   0.00000  Uiso   1.00
C666   C     0.30952   0.81115   0.29653   0.00000  Uiso   1.00
H667   H     0.29662   0.82305   0.26364   0.00000  Uiso   1.00
H668   H     0.28965   0.82349   0.32432   0.00000  Uiso   1.00
H669   H     0.30971   0.77425   0.29760   0.00000  Uiso   1.00
O670   O     0.07393   0.62871   0.09197   0.00000  Uiso   1.00
C671   C     0.04286   0.59739   0.10379   0.00000  Uiso   1.00
H672   H     0.02356   0.59229   0.07311   0.00000  Uiso   1.00
H673   H     0.02249   0.61128   0.13056   0.00000  Uiso   1.00
C674   C     0.05935   0.55139   0.11931   0.00000  Uiso   1.00
H675   H     0.08179   0.53845   0.09448   0.00000  Uiso   1.00
H676   H     0.07435   0.55398   0.15318   0.00000  Uiso   1.00
C677   C     0.02514   0.51812   0.12450   0.00000  Uiso   1.00
H678   H     0.03756   0.98596   0.13712   0.00000  Uiso   1.00
H679   H     0.00993   0.51291   0.09112   0.00000  Uiso   1.00
H680   H     0.00303   0.53103   0.14972   0.00000  Uiso   1.00
O681   O     0.16243   0.89670   0.08529   0.00000  Uiso   1.00
C682   C     0.14092   0.93318   0.06569   0.00000  Uiso   1.00
H683   H     0.16223   0.95084   0.04233   0.00000  Uiso   1.00
H684   H     0.13162   0.95891   0.09104   0.00000  Uiso   1.00
C685   C     0.10450   0.91694   0.03749   0.00000  Uiso   1.00
H686   H     0.10627   0.93121   0.00258   0.00000  Uiso   1.00
H687   H     0.10511   0.88027   0.03489   0.00000  Uiso   1.00
C688   C     0.06381   0.92949   0.05831   0.00000  Uiso   1.00
H689   H     0.06188   0.91848   0.09444   0.00000  Uiso   1.00
H690   H     0.03975   0.91239   0.03864   0.00000  Uiso   1.00
H691   H     0.05925   0.96596   0.05560   0.00000  Uiso   1.00
O692   O     0.31927   0.62819   0.23561   0.00000  Uiso   1.00
C693   C     0.29226   0.66205   0.21966   0.00000  Uiso   1.00
H694   H     0.26793   0.66606   0.24573   0.00000  Uiso   1.00
H695   H     0.27668   0.65146   0.18770   0.00000  Uiso   1.00
C696   C     0.31348   0.70781   0.21242   0.00000  Uiso   1.00
H697   H     0.33202   0.71656   0.24269   0.00000  Uiso   1.00
H698   H     0.33361   0.70654   0.18199   0.00000  Uiso   1.00
C699   C     0.28328   0.74509   0.20375   0.00000  Uiso   1.00
H700   H     0.26090   0.73438   0.17810   0.00000  Uiso   1.00
H701   H     0.29955   0.77538   0.19166   0.00000  Uiso   1.00
H702   H     0.26738   0.75397   0.23528   0.00000  Uiso   1.00
O703   O     0.36885   0.56495   0.09285   0.00000  Uiso   1.00
C704   C     0.37857   0.52079   0.10676   0.00000  Uiso   1.00
H705   H     0.36398   0.99740   0.08241   0.00000  Uiso   1.00
H706   H     0.36626   0.51173   0.14077   0.00000  Uiso   1.00
C707   C     0.42462   0.51267   0.10648   0.00000  Uiso   1.00
H708   H     0.43459   0.50488   0.07145   0.00000  Uiso   1.00
H709   H     0.44080   0.54338   0.11733   0.00000  Uiso   1.00
C710   C     0.43598   0.97409   0.13846   0.00000  Uiso   1.00
H711   H     0.43902   0.98698   0.17354   0.00000  Uiso   1.00
H712   H     0.46536   0.95871   0.12867   0.00000  Uiso   1.00
H713   H     0.41258   0.94744   0.13788   0.00000  Uiso   1.00
O714   O     0.13714   0.92212   0.24602   0.00000  Uiso   1.00
C715   C     0.16550   0.89552   0.27027   0.00000  Uiso   1.00
H716   H     0.17594   0.91608   0.29926   0.00000  Uiso   1.00
H717   H     0.19251   0.88669   0.24924   0.00000  Uiso   1.00
C718   C     0.14749   0.85175   0.28852   0.00000  Uiso   1.00
H719   H     0.11567   0.85660   0.30007   0.00000  Uiso   1.00
H720   H     0.14642   0.82662   0.26088   0.00000  Uiso   1.00
C721   C     0.17402   0.83390   0.32729   0.00000  Uiso   1.00
H722   H     0.20348   0.82125   0.31384   0.00000  Uiso   1.00
H723   H     0.15716   0.80742   0.01253   0.00000  Uiso   1.00
H724   H     0.18182   0.86025   0.01834   0.00000  Uiso   1.00
O725   O     0.35826   0.92231   0.24524   0.00000  Uiso   1.00
C726   C     0.38602   0.95827   0.24297   0.00000  Uiso   1.00
H727   H     0.37717   0.98212   0.21555   0.00000  Uiso   1.00
H728   H     0.41769   0.94608   0.23674   0.00000  Uiso   1.00
C729   C     0.38683   0.98263   0.28811   0.00000  Uiso   1.00
H730   H     0.38885   0.95828   0.31576   0.00000  Uiso   1.00
H731   H     0.41408   0.50433   0.28880   0.00000  Uiso   1.00
C732   C     0.34843   0.50900   0.29709   0.00000  Uiso   1.00
H733   H     0.34263   0.53342   0.26952   0.00000  Uiso   1.00
H734   H     0.35105   0.52685   0.33000   0.00000  Uiso   1.00
H735   H     0.32311   0.98501   0.29972   0.00000  Uiso   1.00
O736   O     0.14661   0.58945   0.08374   0.00000  Uiso   1.00
C737   C     0.18113   0.61218   0.06663   0.00000  Uiso   1.00
H738   H     0.19313   0.59173   0.03843   0.00000  Uiso   1.00
H739   H     0.20490   0.61654   0.09334   0.00000  Uiso   1.00
C740   C     0.17221   0.65818   0.04704   0.00000  Uiso   1.00
H741   H     0.15197   0.65548   0.01699   0.00000  Uiso   1.00
H742   H     0.15620   0.67898   0.07221   0.00000  Uiso   1.00
C743   C     0.21305   0.67995   0.03434   0.00000  Uiso   1.00
H744   H     0.23559   0.67736   0.06254   0.00000  Uiso   1.00
H745   H     0.20879   0.71568   0.02757   0.00000  Uiso   1.00
H746   H     0.22634   0.66342   0.00404   0.00000  Uiso   1.00
O747   O     0.15854   0.59763   0.24969   0.00000  Uiso   1.00
C748   C     0.13765   0.56016   0.26789   0.00000  Uiso   1.00
H749   H     0.15975   0.54218   0.29015   0.00000  Uiso   1.00
H750   H     0.12786   0.53582   0.24134   0.00000  Uiso   1.00
C751   C     0.10081   0.57445   0.29658   0.00000  Uiso   1.00
H752   H     0.10826   0.60502   0.31600   0.00000  Uiso   1.00
H753   H     0.07449   0.58179   0.27376   0.00000  Uiso   1.00
C754   C     0.08865   0.53806   0.33034   0.00000  Uiso   1.00
H755   H     0.08387   0.50617   0.31254   0.00000  Uiso   1.00
H756   H     0.05982   0.54744   0.01437   0.00000  Uiso   1.00
H757   H     0.11321   0.53324   0.02266   0.00000  Uiso   1.00
O758   O     0.32536   0.88110   0.08967   0.00000  Uiso   1.00
C759   C     0.29516   0.84739   0.09496   0.00000  Uiso   1.00
H760   H     0.27318   0.85093   0.06652   0.00000  Uiso   1.00
H761   H     0.27742   0.85188   0.12707   0.00000  Uiso   1.00
C762   C     0.31241   0.79972   0.09227   0.00000  Uiso   1.00
H763   H     0.33297   0.79631   0.06284   0.00000  Uiso   1.00
H764   H     0.32992   0.79151   0.12355   0.00000  Uiso   1.00
C765   C     0.27817   0.76608   0.08724   0.00000  Uiso   1.00
H766   H     0.28978   0.73187   0.09338   0.00000  Uiso   1.00
H767   H     0.26446   0.76827   0.05267   0.00000  Uiso   1.00
H768   H     0.25478   0.77369   0.11290   0.00000  Uiso   1.00
O769   O     0.54509   0.70491   0.20625   0.00000  Uiso   1.00
O770   O     0.95492   0.79509   0.12709   0.00000  Uiso   1.00
O771   O     0.95492   0.79509   0.20625   0.00000  Uiso   1.00
O772   O     0.54509   0.70491   0.12709   0.00000  Uiso   1.00
O773   O     0.95492   0.70491   0.12709   0.00000  Uiso   1.00
O774   O     0.54509   0.79509   0.20625   0.00000  Uiso   1.00
O775   O     0.54509   0.79509   0.12709   0.00000  Uiso   1.00
O776   O     0.95492   0.70491   0.20625   0.00000  Uiso   1.00
O777   O     0.79509   0.95491   0.20625   0.00000  Uiso   1.00
O778   O     0.70492   0.54509   0.12709   0.00000  Uiso   1.00
O779   O     0.70492   0.54509   0.20625   0.00000  Uiso   1.00
O780   O     0.79509   0.95491   0.12709   0.00000  Uiso   1.00
O781   O     0.70492   0.95491   0.12709   0.00000  Uiso   1.00
O782   O     0.79509   0.54509   0.20625   0.00000  Uiso   1.00
O783   O     0.79509   0.54509   0.12709   0.00000  Uiso   1.00
O784   O     0.70492   0.95491   0.20625   0.00000  Uiso   1.00
C785   C     0.55853   0.68991   0.16689   0.00000  Uiso   1.00
C786   C     0.94053   0.80936   0.16663   0.00000  Uiso   1.00
C787   C     0.94115   0.68985   0.16665   0.00000  Uiso   1.00
C788   C     0.55775   0.81079   0.16647   0.00000  Uiso   1.00
C789   C     0.80845   0.93981   0.16673   0.00000  Uiso   1.00
C790   C     0.69048   0.55930   0.16659   0.00000  Uiso   1.00
C791   C     0.68981   0.94141   0.16672   0.00000  Uiso   1.00
C792   C     0.80857   0.55997   0.16662   0.00000  Uiso   1.00
N793   N     0.50000   0.75000   0.28402   0.00000  Uiso   1.00
N794   N     0.50000   0.75000   0.04931   0.00000  Uiso   1.00
N795   N     0.75000   0.50000   0.28402   0.00000  Uiso   1.00
N796   N     0.75000   0.50000   0.04931   0.00000  Uiso   1.00
Cu797  Cu    0.50000   0.75000   0.21355   0.00000  Uiso   1.00
Cu798  Cu    0.50000   0.75000   0.11978   0.00000  Uiso   1.00
Cu799  Cu    0.75000   0.50000   0.21355   0.00000  Uiso   1.00
Cu800  Cu    0.75000   0.50000   0.11978   0.00000  Uiso   1.00
C801   C     0.99931   0.71101   0.02443   0.00000  Uiso   1.00
C802   C     0.50300   0.78885   0.30895   0.00000  Uiso   1.00
C803   C     0.50588   0.78842   0.02401   0.00000  Uiso   1.00
C804   C     0.50195   0.71109   0.30935   0.00000  Uiso   1.00
C805   C     0.74624   0.96128   0.02449   0.00000  Uiso   1.00
C806   C     0.75399   0.53883   0.30881   0.00000  Uiso   1.00
C807   C     0.75659   0.53834   0.02390   0.00000  Uiso   1.00
C808   C     0.74820   0.96103   0.30940   0.00000  Uiso   1.00
C809   C     0.89801   0.63062   0.12672   0.00000  Uiso   1.00
C810   C     0.59421   0.87525   0.20155   0.00000  Uiso   1.00
C811   C     0.61769   0.84895   0.12826   0.00000  Uiso   1.00
C812   C     0.88565   0.64544   0.20641   0.00000  Uiso   1.00
C813   C     0.61261   0.64472   0.20793   0.00000  Uiso   1.00
C814   C     0.88625   0.85538   0.12590   0.00000  Uiso   1.00
C815   C     0.89284   0.86225   0.20785   0.00000  Uiso   1.00
C816   C     0.60115   0.63219   0.12783   0.00000  Uiso   1.00
C817   C     0.64463   0.88558   0.12634   0.00000  Uiso   1.00
C818   C     0.84927   0.62099   0.20325   0.00000  Uiso   1.00
C819   C     0.87103   0.59399   0.12955   0.00000  Uiso   1.00
C820   C     0.62921   0.90220   0.20487   0.00000  Uiso   1.00
C821   C     0.86391   0.89688   0.20677   0.00000  Uiso   1.00
C822   C     0.63667   0.60648   0.12584   0.00000  Uiso   1.00
C823   C     0.64146   0.60997   0.20835   0.00000  Uiso   1.00
C824   C     0.85046   0.88079   0.12761   0.00000  Uiso   1.00
C825   C     0.59052   0.84494   0.16558   0.00000  Uiso   1.00
C826   C     0.90844   0.65470   0.16661   0.00000  Uiso   1.00
C827   C     0.90659   0.84291   0.16669   0.00000  Uiso   1.00
C828   C     0.59119   0.65550   0.16760   0.00000  Uiso   1.00
C829   C     0.84329   0.59177   0.16652   0.00000  Uiso   1.00
C830   C     0.65449   0.90928   0.16635   0.00000  Uiso   1.00
C831   C     0.65634   0.59259   0.16672   0.00000  Uiso   1.00
C832   C     0.84105   0.90534   0.16700   0.00000  Uiso   1.00
O833   O     0.99804   0.66975   0.04487   0.00000  Uiso   1.00
H834   H     0.99896   0.67348   0.07784   0.00000  Uiso   1.00
O835   O     0.50487   0.83005   0.28850   0.00000  Uiso   1.00
H836   H     0.99851   0.82654   0.25623   0.00000  Uiso   1.00
O837   O     0.51657   0.82800   0.04408   0.00000  Uiso   1.00
H838   H     0.50603   0.82744   0.07527   0.00000  Uiso   1.00
O839   O     0.50909   0.67047   0.28955   0.00000  Uiso   1.00
H840   H     0.50385   0.67337   0.25692   0.00000  Uiso   1.00
O841   O     0.74172   0.92053   0.04519   0.00000  Uiso   1.00
H842   H     0.74910   0.92357   0.07730   0.00000  Uiso   1.00
O843   O     0.75745   0.57995   0.28817   0.00000  Uiso   1.00
H844   H     0.74884   0.57742   0.25636   0.00000  Uiso   1.00
O845   O     0.76712   0.57798   0.04389   0.00000  Uiso   1.00
H846   H     0.75655   0.57723   0.07500   0.00000  Uiso   1.00
O847   O     0.75201   0.91975   0.28977   0.00000  Uiso   1.00
H848   H     0.75243   0.92334   0.25669   0.00000  Uiso   1.00
O849   O     0.91380   0.64191   0.08461   0.00000  Uiso   1.00
C850   C     0.88998   0.67676   0.06517   0.00000  Uiso   1.00
H851   H     0.90690   0.68930   0.03491   0.00000  Uiso   1.00
H852   H     0.88696   0.70581   0.08842   0.00000  Uiso   1.00
C853   C     0.84696   0.66127   0.05067   0.00000  Uiso   1.00
H854   H     0.84752   0.62633   0.03896   0.00000  Uiso   1.00
H855   H     0.82598   0.66271   0.08042   0.00000  Uiso   1.00
C856   C     0.83006   0.69048   0.01249   0.00000  Uiso   1.00
H857   H     0.83027   0.72587   0.02291   0.00000  Uiso   1.00
H858   H     0.79840   0.68019   0.00409   0.00000  Uiso   1.00
H859   H     0.84915   0.68701   0.31497   0.00000  Uiso   1.00
O860   O     0.56447   0.87731   0.23490   0.00000  Uiso   1.00
C861   C     0.53594   0.91123   0.22354   0.00000  Uiso   1.00
H862   H     0.50472   0.89822   0.23027   0.00000  Uiso   1.00
H863   H     0.53605   0.92136   0.18682   0.00000  Uiso   1.00
C864   C     0.54327   0.95189   0.25358   0.00000  Uiso   1.00
H865   H     0.54800   0.94055   0.28924   0.00000  Uiso   1.00
H866   H     0.57102   0.96982   0.24153   0.00000  Uiso   1.00
C867   C     0.50725   0.98396   0.25279   0.00000  Uiso   1.00
H868   H     0.50053   0.99466   0.21752   0.00000  Uiso   1.00
H869   H     0.51453   0.51386   0.27338   0.00000  Uiso   1.00
H870   H     0.97991   0.96753   0.26746   0.00000  Uiso   1.00
O871   O     0.61610   0.82046   0.09115   0.00000  Uiso   1.00
C872   C     0.62798   0.77669   0.10399   0.00000  Uiso   1.00
H873   H     0.61732   0.75342   0.07714   0.00000  Uiso   1.00
H874   H     0.61358   0.76492   0.13601   0.00000  Uiso   1.00
C875   C     0.67419   0.77226   0.10868   0.00000  Uiso   1.00
H876   H     0.68770   0.76807   0.07448   0.00000  Uiso   1.00
H877   H     0.68763   0.80305   0.12339   0.00000  Uiso   1.00
C878   C     0.68498   0.73274   0.13964   0.00000  Uiso   1.00
H879   H     0.69109   0.74563   0.17414   0.00000  Uiso   1.00
H880   H     0.71225   0.71494   0.12699   0.00000  Uiso   1.00
H881   H     0.65998   0.70787   0.14237   0.00000  Uiso   1.00
O882   O     0.89365   0.66661   0.24694   0.00000  Uiso   1.00
C883   C     0.92351   0.64218   0.27109   0.00000  Uiso   1.00
H884   H     0.93430   0.66419   0.29863   0.00000  Uiso   1.00
H885   H     0.94967   0.63256   0.24906   0.00000  Uiso   1.00
C886   C     0.90673   0.59978   0.29267   0.00000  Uiso   1.00
H887   H     0.87694   0.60649   0.30889   0.00000  Uiso   1.00
H888   H     0.90200   0.57516   0.26519   0.00000  Uiso   1.00
C889   C     0.93691   0.58084   0.32748   0.00000  Uiso   1.00
H890   H     0.96390   0.56658   0.30987   0.00000  Uiso   1.00
H891   H     0.92169   0.55448   0.01445   0.00000  Uiso   1.00
H892   H     0.94766   0.60685   0.01788   0.00000  Uiso   1.00
O893   O     0.60439   0.66626   0.24832   0.00000  Uiso   1.00
C894   C     0.62682   0.70657   0.24962   0.00000  Uiso   1.00
H895   H     0.61453   0.72602   0.27867   0.00000  Uiso   1.00
H896   H     0.62209   0.72758   0.21863   0.00000  Uiso   1.00
C897   C     0.67262   0.69792   0.25674   0.00000  Uiso   1.00
H898   H     0.67667   0.67071   0.28170   0.00000  Uiso   1.00
H899   H     0.68744   0.68719   0.22466   0.00000  Uiso   1.00
C900   C     0.69377   0.73901   0.27463   0.00000  Uiso   1.00
H901   H     0.69442   0.76608   0.24874   0.00000  Uiso   1.00
H902   H     0.72518   0.73044   0.28554   0.00000  Uiso   1.00
H903   H     0.67690   0.75017   0.30487   0.00000  Uiso   1.00
O904   O     0.89682   0.83806   0.08417   0.00000  Uiso   1.00
C905   C     0.93072   0.86156   0.06659   0.00000  Uiso   1.00
H906   H     0.94441   0.83915   0.04131   0.00000  Uiso   1.00
H907   H     0.95363   0.87031   0.09328   0.00000  Uiso   1.00
C908   C     0.91920   0.90340   0.04043   0.00000  Uiso   1.00
H909   H     0.90163   0.89327   0.01014   0.00000  Uiso   1.00
H910   H     0.90019   0.92572   0.06158   0.00000  Uiso   1.00
C911   C     0.95807   0.92773   0.02526   0.00000  Uiso   1.00
H912   H     0.97722   0.93522   0.05531   0.00000  Uiso   1.00
H913   H     0.95133   0.96009   0.00894   0.00000  Uiso   1.00
H914   H     0.97541   0.90699   0.00073   0.00000  Uiso   1.00
O915   O     0.90757   0.84804   0.24966   0.00000  Uiso   1.00
C916   C     0.88242   0.81263   0.26576   0.00000  Uiso   1.00
H917   H     0.90268   0.78714   0.28158   0.00000  Uiso   1.00
H918   H     0.86593   0.79435   0.23813   0.00000  Uiso   1.00
C919   C     0.85271   0.82934   0.30243   0.00000  Uiso   1.00
H920   H     0.86492   0.81965   0.00281   0.00000  Uiso   1.00
H921   H     0.85038   0.86603   0.30210   0.00000  Uiso   1.00
C922   C     0.80952   0.81115   0.29653   0.00000  Uiso   1.00
H923   H     0.79662   0.82305   0.26364   0.00000  Uiso   1.00
H924   H     0.78965   0.82349   0.32432   0.00000  Uiso   1.00
H925   H     0.80971   0.77425   0.29760   0.00000  Uiso   1.00
O926   O     0.57393   0.62871   0.09197   0.00000  Uiso   1.00
C927   C     0.54286   0.59739   0.10379   0.00000  Uiso   1.00
H928   H     0.52356   0.59229   0.07311   0.00000  Uiso   1.00
H929   H     0.52249   0.61128   0.13056   0.00000  Uiso   1.00
C930   C     0.55935   0.55139   0.11931   0.00000  Uiso   1.00
H931   H     0.58179   0.53845   0.09448   0.00000  Uiso   1.00
H932   H     0.57435   0.55398   0.15318   0.00000  Uiso   1.00
C933   C     0.52514   0.51812   0.12450   0.00000  Uiso   1.00
H934   H     0.53756   0.98596   0.13712   0.00000  Uiso   1.00
H935   H     0.50993   0.51291   0.09112   0.00000  Uiso   1.00
H936   H     0.50303   0.53103   0.14972   0.00000  Uiso   1.00
O937   O     0.66243   0.89670   0.08529   0.00000  Uiso   1.00
C938   C     0.64092   0.93318   0.06569   0.00000  Uiso   1.00
H939   H     0.66223   0.95084   0.04233   0.00000  Uiso   1.00
H940   H     0.63162   0.95891   0.09104   0.00000  Uiso   1.00
C941   C     0.60450   0.91694   0.03749   0.00000  Uiso   1.00
H942   H     0.60627   0.93121   0.00258   0.00000  Uiso   1.00
H943   H     0.60511   0.88027   0.03489   0.00000  Uiso   1.00
C944   C     0.56381   0.92949   0.05831   0.00000  Uiso   1.00
H945   H     0.56188   0.91848   0.09444   0.00000  Uiso   1.00
H946   H     0.53975   0.91239   0.03864   0.00000  Uiso   1.00
H947   H     0.55925   0.96596   0.05560   0.00000  Uiso   1.00
O948   O     0.81927   0.62819   0.23561   0.00000  Uiso   1.00
C949   C     0.79226   0.66205   0.21966   0.00000  Uiso   1.00
H950   H     0.76793   0.66606   0.24573   0.00000  Uiso   1.00
H951   H     0.77668   0.65146   0.18770   0.00000  Uiso   1.00
C952   C     0.81348   0.70781   0.21242   0.00000  Uiso   1.00
H953   H     0.83202   0.71656   0.24269   0.00000  Uiso   1.00
H954   H     0.83361   0.70654   0.18199   0.00000  Uiso   1.00
C955   C     0.78328   0.74509   0.20375   0.00000  Uiso   1.00
H956   H     0.76090   0.73438   0.17810   0.00000  Uiso   1.00
H957   H     0.79955   0.77538   0.19166   0.00000  Uiso   1.00
H958   H     0.76738   0.75397   0.23528   0.00000  Uiso   1.00
O959   O     0.86885   0.56495   0.09285   0.00000  Uiso   1.00
C960   C     0.87857   0.52079   0.10676   0.00000  Uiso   1.00
H961   H     0.86398   0.99740   0.08241   0.00000  Uiso   1.00
H962   H     0.86626   0.51173   0.14077   0.00000  Uiso   1.00
C963   C     0.92462   0.51267   0.10648   0.00000  Uiso   1.00
H964   H     0.93459   0.50488   0.07145   0.00000  Uiso   1.00
H965   H     0.94080   0.54338   0.11733   0.00000  Uiso   1.00
C966   C     0.93598   0.97409   0.13846   0.00000  Uiso   1.00
H967   H     0.93902   0.98698   0.17354   0.00000  Uiso   1.00
H968   H     0.96536   0.95871   0.12867   0.00000  Uiso   1.00
H969   H     0.91258   0.94744   0.13788   0.00000  Uiso   1.00
O970   O     0.63714   0.92212   0.24602   0.00000  Uiso   1.00
C971   C     0.66550   0.89552   0.27027   0.00000  Uiso   1.00
H972   H     0.67594   0.91608   0.29926   0.00000  Uiso   1.00
H973   H     0.69251   0.88669   0.24924   0.00000  Uiso   1.00
C974   C     0.64749   0.85175   0.28852   0.00000  Uiso   1.00
H975   H     0.61567   0.85660   0.30007   0.00000  Uiso   1.00
H976   H     0.64642   0.82662   0.26088   0.00000  Uiso   1.00
C977   C     0.67402   0.83390   0.32729   0.00000  Uiso   1.00
H978   H     0.70348   0.82125   0.31384   0.00000  Uiso   1.00
H979   H     0.65716   0.80742   0.01253   0.00000  Uiso   1.00
H980   H     0.68182   0.86025   0.01834   0.00000  Uiso   1.00
O981   O     0.85826   0.92231   0.24524   0.00000  Uiso   1.00
C982   C     0.88602   0.95827   0.24297   0.00000  Uiso   1.00
H983   H     0.87717   0.98212   0.21555   0.00000  Uiso   1.00
H984   H     0.91769   0.94608   0.23674   0.00000  Uiso   1.00
C985   C     0.88683   0.98263   0.28811   0.00000  Uiso   1.00
H986   H     0.88885   0.95828   0.31576   0.00000  Uiso   1.00
H987   H     0.91408   0.50433   0.28880   0.00000  Uiso   1.00
C988   C     0.84843   0.50900   0.29709   0.00000  Uiso   1.00
H989   H     0.84263   0.53342   0.26952   0.00000  Uiso   1.00
H990   H     0.85105   0.52685   0.33000   0.00000  Uiso   1.00
H991   H     0.82311   0.98501   0.29972   0.00000  Uiso   1.00
O992   O     0.64661   0.58945   0.08374   0.00000  Uiso   1.00
C993   C     0.68113   0.61218   0.06663   0.00000  Uiso   1.00
H994   H     0.69313   0.59173   0.03843   0.00000  Uiso   1.00
H995   H     0.70490   0.61654   0.09334   0.00000  Uiso   1.00
C996   C     0.67221   0.65818   0.04704   0.00000  Uiso   1.00
H997   H     0.65197   0.65548   0.01699   0.00000  Uiso   1.00
H998   H     0.65620   0.67898   0.07221   0.00000  Uiso   1.00
C999   C     0.71305   0.67995   0.03434   0.00000  Uiso   1.00
H1000  H     0.73559   0.67736   0.06254   0.00000  Uiso   1.00
H1001  H     0.70879   0.71568   0.02757   0.00000  Uiso   1.00
H1002  H     0.72634   0.66342   0.00404   0.00000  Uiso   1.00
O1003  O     0.65854   0.59763   0.24969   0.00000  Uiso   1.00
C1004  C     0.63765   0.56016   0.26789   0.00000  Uiso   1.00
H1005  H     0.65975   0.54218   0.29015   0.00000  Uiso   1.00
H1006  H     0.62786   0.53582   0.24134   0.00000  Uiso   1.00
C1007  C     0.60081   0.57445   0.29658   0.00000  Uiso   1.00
H1008  H     0.60826   0.60502   0.31600   0.00000  Uiso   1.00
H1009  H     0.57449   0.58179   0.27376   0.00000  Uiso   1.00
C1010  C     0.58865   0.53806   0.33034   0.00000  Uiso   1.00
H1011  H     0.58387   0.50617   0.31254   0.00000  Uiso   1.00
H1012  H     0.55982   0.54744   0.01437   0.00000  Uiso   1.00
H1013  H     0.61321   0.53324   0.02266   0.00000  Uiso   1.00
O1014  O     0.82536   0.88110   0.08967   0.00000  Uiso   1.00
C1015  C     0.79516   0.84739   0.09496   0.00000  Uiso   1.00
H1016  H     0.77318   0.85093   0.06652   0.00000  Uiso   1.00
H1017  H     0.77742   0.85188   0.12707   0.00000  Uiso   1.00
C1018  C     0.81241   0.79972   0.09227   0.00000  Uiso   1.00
H1019  H     0.83297   0.79631   0.06284   0.00000  Uiso   1.00
H1020  H     0.82992   0.79151   0.12355   0.00000  Uiso   1.00
C1021  C     0.77817   0.76608   0.08724   0.00000  Uiso   1.00
H1022  H     0.78978   0.73187   0.09338   0.00000  Uiso   1.00
H1023  H     0.76446   0.76827   0.05267   0.00000  Uiso   1.00
H1024  H     0.75478   0.77369   0.11290   0.00000  Uiso   1.00
O1025  O     0.04509   0.20491   0.53958   0.00000  Uiso   1.00
O1026  O     0.45492   0.29509   0.46042   0.00000  Uiso   1.00
O1027  O     0.45492   0.29509   0.53958   0.00000  Uiso   1.00
O1028  O     0.04509   0.20491   0.46042   0.00000  Uiso   1.00
O1029  O     0.45492   0.20491   0.46042   0.00000  Uiso   1.00
O1030  O     0.04509   0.29509   0.53958   0.00000  Uiso   1.00
O1031  O     0.04509   0.29509   0.46042   0.00000  Uiso   1.00
O1032  O     0.45492   0.20491   0.53958   0.00000  Uiso   1.00
O1033  O     0.29509   0.45491   0.53958   0.00000  Uiso   1.00
O1034  O     0.20492   0.04509   0.46042   0.00000  Uiso   1.00
O1035  O     0.20492   0.04509   0.53958   0.00000  Uiso   1.00
O1036  O     0.29509   0.45491   0.46042   0.00000  Uiso   1.00
O1037  O     0.20492   0.45491   0.46042   0.00000  Uiso   1.00
O1038  O     0.29509   0.04509   0.53958   0.00000  Uiso   1.00
O1039  O     0.29509   0.04509   0.46042   0.00000  Uiso   1.00
O1040  O     0.20492   0.45491   0.53958   0.00000  Uiso   1.00
C1041  C     0.05853   0.18991   0.50022   0.00000  Uiso   1.00
C1042  C     0.44053   0.30936   0.49996   0.00000  Uiso   1.00
C1043  C     0.44115   0.18985   0.49999   0.00000  Uiso   1.00
C1044  C     0.05775   0.31079   0.49980   0.00000  Uiso   1.00
C1045  C     0.30845   0.43981   0.50007   0.00000  Uiso   1.00
C1046  C     0.19048   0.05930   0.49993   0.00000  Uiso   1.00
C1047  C     0.18981   0.44141   0.50006   0.00000  Uiso   1.00
C1048  C     0.30857   0.05997   0.49995   0.00000  Uiso   1.00
N1049  N     0.00000   0.25000   0.61736   0.00000  Uiso   1.00
N1050  N     0.00000   0.25000   0.38264   0.00000  Uiso   1.00
N1051  N     0.25000   0.00000   0.61736   0.00000  Uiso   1.00
N1052  N     0.25000   0.00000   0.38264   0.00000  Uiso   1.00
Cu1053 Cu    0.00000   0.25000   0.54689   0.00000  Uiso   1.00
Cu1054 Cu    0.00000   0.25000   0.45311   0.00000  Uiso   1.00
Cu1055 Cu    0.25000   0.00000   0.54689   0.00000  Uiso   1.00
Cu1056 Cu    0.25000   0.00000   0.45311   0.00000  Uiso   1.00
C1057  C     0.49931   0.21101   0.35776   0.00000  Uiso   1.00
C1058  C     0.00300   0.28885   0.64228   0.00000  Uiso   1.00
C1059  C     0.00588   0.28842   0.35735   0.00000  Uiso   1.00
C1060  C     0.00195   0.21109   0.64269   0.00000  Uiso   1.00
C1061  C     0.24624   0.46128   0.35782   0.00000  Uiso   1.00
C1062  C     0.25399   0.03883   0.64214   0.00000  Uiso   1.00
C1063  C     0.25659   0.03834   0.35723   0.00000  Uiso   1.00
C1064  C     0.24820   0.46103   0.64273   0.00000  Uiso   1.00
C1065  C     0.39801   0.13062   0.46005   0.00000  Uiso   1.00
C1066  C     0.09421   0.37525   0.53488   0.00000  Uiso   1.00
C1067  C     0.11769   0.34895   0.46159   0.00000  Uiso   1.00
C1068  C     0.38565   0.14544   0.53974   0.00000  Uiso   1.00
C1069  C     0.11261   0.14472   0.54126   0.00000  Uiso   1.00
C1070  C     0.38625   0.35538   0.45923   0.00000  Uiso   1.00
C1071  C     0.39284   0.36225   0.54119   0.00000  Uiso   1.00
C1072  C     0.10115   0.13219   0.46116   0.00000  Uiso   1.00
C1073  C     0.14463   0.38558   0.45967   0.00000  Uiso   1.00
C1074  C     0.34927   0.12099   0.53658   0.00000  Uiso   1.00
C1075  C     0.37103   0.09399   0.46288   0.00000  Uiso   1.00
C1076  C     0.12921   0.40220   0.53821   0.00000  Uiso   1.00
C1077  C     0.36391   0.39688   0.54011   0.00000  Uiso   1.00
C1078  C     0.13667   0.10648   0.45918   0.00000  Uiso   1.00
C1079  C     0.14146   0.10997   0.54168   0.00000  Uiso   1.00
C1080  C     0.35046   0.38079   0.46094   0.00000  Uiso   1.00
C1081  C     0.09052   0.34494   0.49892   0.00000  Uiso   1.00
C1082  C     0.40844   0.15470   0.49994   0.00000  Uiso   1.00
C1083  C     0.40659   0.34291   0.50002   0.00000  Uiso   1.00
C1084  C     0.09119   0.15550   0.50093   0.00000  Uiso   1.00
C1085  C     0.34329   0.09177   0.49985   0.00000  Uiso   1.00
C1086  C     0.15449   0.40928   0.49968   0.00000  Uiso   1.00
C1087  C     0.15634   0.09259   0.50006   0.00000  Uiso   1.00
C1088  C     0.34105   0.40534   0.50033   0.00000  Uiso   1.00
O1089  O     0.49804   0.16975   0.37820   0.00000  Uiso   1.00
H1090  H     0.49896   0.17348   0.41117   0.00000  Uiso   1.00
O1091  O     0.00487   0.33005   0.62184   0.00000  Uiso   1.00
H1092  H     0.49851   0.32654   0.58956   0.00000  Uiso   1.00
O1093  O     0.01657   0.32800   0.37741   0.00000  Uiso   1.00
H1094  H     0.00603   0.32744   0.40860   0.00000  Uiso   1.00
O1095  O     0.00909   0.17047   0.62288   0.00000  Uiso   1.00
H1096  H     0.00385   0.17337   0.59025   0.00000  Uiso   1.00
O1097  O     0.24172   0.42053   0.37853   0.00000  Uiso   1.00
H1098  H     0.24910   0.42357   0.41063   0.00000  Uiso   1.00
O1099  O     0.25745   0.07995   0.62150   0.00000  Uiso   1.00
H1100  H     0.24884   0.07742   0.58969   0.00000  Uiso   1.00
O1101  O     0.26712   0.07798   0.37722   0.00000  Uiso   1.00
H1102  H     0.25655   0.07723   0.40834   0.00000  Uiso   1.00
O1103  O     0.25201   0.41975   0.62311   0.00000  Uiso   1.00
H1104  H     0.25243   0.42334   0.59002   0.00000  Uiso   1.00
O1105  O     0.41380   0.14191   0.41795   0.00000  Uiso   1.00
C1106  C     0.38998   0.17676   0.39850   0.00000  Uiso   1.00
H1107  H     0.40690   0.18930   0.36825   0.00000  Uiso   1.00
H1108  H     0.38696   0.20581   0.42175   0.00000  Uiso   1.00
C1109  C     0.34696   0.16127   0.38401   0.00000  Uiso   1.00
H1110  H     0.34752   0.12633   0.37230   0.00000  Uiso   1.00
H1111  H     0.32598   0.16271   0.41375   0.00000  Uiso   1.00
C1112  C     0.33006   0.19048   0.34583   0.00000  Uiso   1.00
H1113  H     0.33027   0.22587   0.35624   0.00000  Uiso   1.00
H1114  H     0.29840   0.18019   0.33743   0.00000  Uiso   1.00
H1115  H     0.34915   0.18701   0.64830   0.00000  Uiso   1.00
O1116  O     0.06447   0.37731   0.56824   0.00000  Uiso   1.00
C1117  C     0.03594   0.41123   0.55687   0.00000  Uiso   1.00
H1118  H     0.00472   0.39822   0.56360   0.00000  Uiso   1.00
H1119  H     0.03605   0.42136   0.52015   0.00000  Uiso   1.00
C1120  C     0.04327   0.45189   0.58691   0.00000  Uiso   1.00
H1121  H     0.04800   0.44055   0.62257   0.00000  Uiso   1.00
H1122  H     0.07102   0.46982   0.57487   0.00000  Uiso   1.00
C1123  C     0.00725   0.48396   0.58613   0.00000  Uiso   1.00
H1124  H     0.00053   0.49466   0.55086   0.00000  Uiso   1.00
H1125  H     0.01453   0.01386   0.60671   0.00000  Uiso   1.00
H1126  H     0.47991   0.46753   0.60079   0.00000  Uiso   1.00
O1127  O     0.11610   0.32046   0.42449   0.00000  Uiso   1.00
C1128  C     0.12798   0.27669   0.43733   0.00000  Uiso   1.00
H1129  H     0.11732   0.25342   0.41047   0.00000  Uiso   1.00
H1130  H     0.11358   0.26492   0.46934   0.00000  Uiso   1.00
C1131  C     0.17419   0.27226   0.44201   0.00000  Uiso   1.00
H1132  H     0.18770   0.26807   0.40781   0.00000  Uiso   1.00
H1133  H     0.18763   0.30305   0.45672   0.00000  Uiso   1.00
C1134  C     0.18498   0.23274   0.47298   0.00000  Uiso   1.00
H1135  H     0.19109   0.24563   0.50747   0.00000  Uiso   1.00
H1136  H     0.21225   0.21494   0.46032   0.00000  Uiso   1.00
H1137  H     0.15998   0.20787   0.47571   0.00000  Uiso   1.00
O1138  O     0.39365   0.16661   0.58027   0.00000  Uiso   1.00
C1139  C     0.42351   0.14218   0.60443   0.00000  Uiso   1.00
H1140  H     0.43430   0.16419   0.63196   0.00000  Uiso   1.00
H1141  H     0.44967   0.13256   0.58239   0.00000  Uiso   1.00
C1142  C     0.40673   0.09978   0.62600   0.00000  Uiso   1.00
H1143  H     0.37694   0.10649   0.64223   0.00000  Uiso   1.00
H1144  H     0.40200   0.07516   0.59852   0.00000  Uiso   1.00
C1145  C     0.43691   0.08084   0.66081   0.00000  Uiso   1.00
H1146  H     0.46390   0.06658   0.64320   0.00000  Uiso   1.00
H1147  H     0.42169   0.05448   0.34778   0.00000  Uiso   1.00
H1148  H     0.44766   0.10685   0.35121   0.00000  Uiso   1.00
O1149  O     0.10439   0.16626   0.58165   0.00000  Uiso   1.00
C1150  C     0.12682   0.20657   0.58295   0.00000  Uiso   1.00
H1151  H     0.11453   0.22602   0.61200   0.00000  Uiso   1.00
H1152  H     0.12209   0.22758   0.55196   0.00000  Uiso   1.00
C1153  C     0.17262   0.19792   0.59008   0.00000  Uiso   1.00
H1154  H     0.17667   0.17071   0.61503   0.00000  Uiso   1.00
H1155  H     0.18744   0.18719   0.55799   0.00000  Uiso   1.00
C1156  C     0.19377   0.23901   0.60796   0.00000  Uiso   1.00
H1157  H     0.19442   0.26608   0.58208   0.00000  Uiso   1.00
H1158  H     0.22518   0.23044   0.61888   0.00000  Uiso   1.00
H1159  H     0.17690   0.25017   0.63820   0.00000  Uiso   1.00
O1160  O     0.39682   0.33806   0.41750   0.00000  Uiso   1.00
C1161  C     0.43072   0.36156   0.39993   0.00000  Uiso   1.00
H1162  H     0.44441   0.33915   0.37464   0.00000  Uiso   1.00
H1163  H     0.45363   0.37031   0.42661   0.00000  Uiso   1.00
C1164  C     0.41920   0.40340   0.37376   0.00000  Uiso   1.00
H1165  H     0.40163   0.39327   0.34347   0.00000  Uiso   1.00
H1166  H     0.40019   0.42572   0.39491   0.00000  Uiso   1.00
C1167  C     0.45807   0.42773   0.35859   0.00000  Uiso   1.00
H1168  H     0.47722   0.43522   0.38864   0.00000  Uiso   1.00
H1169  H     0.45133   0.46009   0.34228   0.00000  Uiso   1.00
H1170  H     0.47541   0.40699   0.33406   0.00000  Uiso   1.00
O1171  O     0.40757   0.34804   0.58299   0.00000  Uiso   1.00
C1172  C     0.38242   0.31263   0.59909   0.00000  Uiso   1.00
H1173  H     0.40268   0.28714   0.61492   0.00000  Uiso   1.00
H1174  H     0.36593   0.29435   0.57146   0.00000  Uiso   1.00
C1175  C     0.35271   0.32934   0.63576   0.00000  Uiso   1.00
H1176  H     0.36492   0.31965   0.33614   0.00000  Uiso   1.00
H1177  H     0.35038   0.36603   0.63543   0.00000  Uiso   1.00
C1178  C     0.30952   0.31115   0.62987   0.00000  Uiso   1.00
H1179  H     0.29662   0.32305   0.59697   0.00000  Uiso   1.00
H1180  H     0.28965   0.32349   0.65765   0.00000  Uiso   1.00
H1181  H     0.30971   0.27425   0.63094   0.00000  Uiso   1.00
O1182  O     0.07393   0.12871   0.42530   0.00000  Uiso   1.00
C1183  C     0.04286   0.09739   0.43712   0.00000  Uiso   1.00
H1184  H     0.02356   0.09229   0.40644   0.00000  Uiso   1.00
H1185  H     0.02249   0.11128   0.46389   0.00000  Uiso   1.00
C1186  C     0.05935   0.05139   0.45264   0.00000  Uiso   1.00
H1187  H     0.08179   0.03845   0.42781   0.00000  Uiso   1.00
H1188  H     0.07435   0.05398   0.48651   0.00000  Uiso   1.00
C1189  C     0.02514   0.01812   0.45783   0.00000  Uiso   1.00
H1190  H     0.03756   0.48596   0.47045   0.00000  Uiso   1.00
H1191  H     0.00993   0.01291   0.42445   0.00000  Uiso   1.00
H1192  H     0.00303   0.03103   0.48305   0.00000  Uiso   1.00
O1193  O     0.16243   0.39670   0.41862   0.00000  Uiso   1.00
C1194  C     0.14092   0.43318   0.39902   0.00000  Uiso   1.00
H1195  H     0.16223   0.45084   0.37567   0.00000  Uiso   1.00
H1196  H     0.13162   0.45891   0.42437   0.00000  Uiso   1.00
C1197  C     0.10450   0.41694   0.37083   0.00000  Uiso   1.00
H1198  H     0.10627   0.43121   0.33592   0.00000  Uiso   1.00
H1199  H     0.10511   0.38027   0.36823   0.00000  Uiso   1.00
C1200  C     0.06381   0.42949   0.39164   0.00000  Uiso   1.00
H1201  H     0.06188   0.41848   0.42778   0.00000  Uiso   1.00
H1202  H     0.03975   0.41239   0.37197   0.00000  Uiso   1.00
H1203  H     0.05925   0.46596   0.38893   0.00000  Uiso   1.00
O1204  O     0.31927   0.12819   0.56895   0.00000  Uiso   1.00
C1205  C     0.29226   0.16205   0.55300   0.00000  Uiso   1.00
H1206  H     0.26793   0.16606   0.57907   0.00000  Uiso   1.00
H1207  H     0.27668   0.15146   0.52104   0.00000  Uiso   1.00
C1208  C     0.31348   0.20781   0.54575   0.00000  Uiso   1.00
H1209  H     0.33202   0.21656   0.57602   0.00000  Uiso   1.00
H1210  H     0.33361   0.20654   0.51532   0.00000  Uiso   1.00
C1211  C     0.28328   0.24509   0.53708   0.00000  Uiso   1.00
H1212  H     0.26090   0.23438   0.51144   0.00000  Uiso   1.00
H1213  H     0.29955   0.27538   0.52499   0.00000  Uiso   1.00
H1214  H     0.26738   0.25397   0.56862   0.00000  Uiso   1.00
O1215  O     0.36885   0.06495   0.42618   0.00000  Uiso   1.00
C1216  C     0.37857   0.02079   0.44009   0.00000  Uiso   1.00
H1217  H     0.36398   0.49740   0.41574   0.00000  Uiso   1.00
H1218  H     0.36626   0.01173   0.47411   0.00000  Uiso   1.00
C1219  C     0.42462   0.01267   0.43981   0.00000  Uiso   1.00
H1220  H     0.43459   0.00488   0.40478   0.00000  Uiso   1.00
H1221  H     0.44080   0.04338   0.45066   0.00000  Uiso   1.00
C1222  C     0.43598   0.47409   0.47180   0.00000  Uiso   1.00
H1223  H     0.43902   0.48698   0.50687   0.00000  Uiso   1.00
H1224  H     0.46536   0.45871   0.46200   0.00000  Uiso   1.00
H1225  H     0.41258   0.44744   0.47121   0.00000  Uiso   1.00
O1226  O     0.13714   0.42212   0.57936   0.00000  Uiso   1.00
C1227  C     0.16550   0.39552   0.60360   0.00000  Uiso   1.00
H1228  H     0.17594   0.41608   0.63259   0.00000  Uiso   1.00
H1229  H     0.19251   0.38669   0.58257   0.00000  Uiso   1.00
C1230  C     0.14749   0.35175   0.62185   0.00000  Uiso   1.00
H1231  H     0.11567   0.35660   0.63340   0.00000  Uiso   1.00
H1232  H     0.14642   0.32662   0.59421   0.00000  Uiso   1.00
C1233  C     0.17402   0.33390   0.66062   0.00000  Uiso   1.00
H1234  H     0.20348   0.32125   0.64717   0.00000  Uiso   1.00
H1235  H     0.15716   0.30742   0.34586   0.00000  Uiso   1.00
H1236  H     0.18182   0.36025   0.35167   0.00000  Uiso   1.00
O1237  O     0.35826   0.42231   0.57858   0.00000  Uiso   1.00
C1238  C     0.38602   0.45827   0.57631   0.00000  Uiso   1.00
H1239  H     0.37717   0.48212   0.54888   0.00000  Uiso   1.00
H1240  H     0.41769   0.44608   0.57007   0.00000  Uiso   1.00
C1241  C     0.38683   0.48263   0.62144   0.00000  Uiso   1.00
H1242  H     0.38885   0.45828   0.64909   0.00000  Uiso   1.00
H1243  H     0.41408   0.00433   0.62214   0.00000  Uiso   1.00
C1244  C     0.34843   0.00900   0.63042   0.00000  Uiso   1.00
H1245  H     0.34263   0.03342   0.60285   0.00000  Uiso   1.00
H1246  H     0.35105   0.02685   0.66333   0.00000  Uiso   1.00
H1247  H     0.32311   0.48501   0.63305   0.00000  Uiso   1.00
O1248  O     0.14661   0.08945   0.41707   0.00000  Uiso   1.00
C1249  C     0.18113   0.11218   0.39996   0.00000  Uiso   1.00
H1250  H     0.19313   0.09173   0.37176   0.00000  Uiso   1.00
H1251  H     0.20490   0.11654   0.42667   0.00000  Uiso   1.00
C1252  C     0.17221   0.15818   0.38037   0.00000  Uiso   1.00
H1253  H     0.15197   0.15548   0.35032   0.00000  Uiso   1.00
H1254  H     0.15620   0.17898   0.40555   0.00000  Uiso   1.00
C1255  C     0.21305   0.17995   0.36768   0.00000  Uiso   1.00
H1256  H     0.23559   0.17736   0.39587   0.00000  Uiso   1.00
H1257  H     0.20879   0.21568   0.36090   0.00000  Uiso   1.00
H1258  H     0.22634   0.16342   0.33737   0.00000  Uiso   1.00
O1259  O     0.15854   0.09763   0.58303   0.00000  Uiso   1.00
C1260  C     0.13765   0.06016   0.60123   0.00000  Uiso   1.00
H1261  H     0.15975   0.04218   0.62348   0.00000  Uiso   1.00
H1262  H     0.12786   0.03582   0.57467   0.00000  Uiso   1.00
C1263  C     0.10081   0.07445   0.62992   0.00000  Uiso   1.00
H1264  H     0.10826   0.10502   0.64933   0.00000  Uiso   1.00
H1265  H     0.07449   0.08179   0.60709   0.00000  Uiso   1.00
C1266  C     0.08865   0.03806   0.66367   0.00000  Uiso   1.00
H1267  H     0.08387   0.00617   0.64587   0.00000  Uiso   1.00
H1268  H     0.05982   0.04744   0.34770   0.00000  Uiso   1.00
H1269  H     0.11321   0.03324   0.35599   0.00000  Uiso   1.00
O1270  O     0.32536   0.38110   0.42301   0.00000  Uiso   1.00
C1271  C     0.29516   0.34739   0.42829   0.00000  Uiso   1.00
H1272  H     0.27318   0.35093   0.39985   0.00000  Uiso   1.00
H1273  H     0.27742   0.35188   0.46041   0.00000  Uiso   1.00
C1274  C     0.31241   0.29972   0.42561   0.00000  Uiso   1.00
H1275  H     0.33297   0.29631   0.39617   0.00000  Uiso   1.00
H1276  H     0.32992   0.29151   0.45689   0.00000  Uiso   1.00
C1277  C     0.27817   0.26608   0.42057   0.00000  Uiso   1.00
H1278  H     0.28978   0.23187   0.42671   0.00000  Uiso   1.00
H1279  H     0.26446   0.26827   0.38600   0.00000  Uiso   1.00
H1280  H     0.25478   0.27369   0.44624   0.00000  Uiso   1.00
O1281  O     0.54509   0.20491   0.53958   0.00000  Uiso   1.00
O1282  O     0.95492   0.29509   0.46042   0.00000  Uiso   1.00
O1283  O     0.95492   0.29509   0.53958   0.00000  Uiso   1.00
O1284  O     0.54509   0.20491   0.46042   0.00000  Uiso   1.00
O1285  O     0.95492   0.20491   0.46042   0.00000  Uiso   1.00
O1286  O     0.54509   0.29509   0.53958   0.00000  Uiso   1.00
O1287  O     0.54509   0.29509   0.46042   0.00000  Uiso   1.00
O1288  O     0.95492   0.20491   0.53958   0.00000  Uiso   1.00
O1289  O     0.79509   0.45491   0.53958   0.00000  Uiso   1.00
O1290  O     0.70492   0.04509   0.46042   0.00000  Uiso   1.00
O1291  O     0.70492   0.04509   0.53958   0.00000  Uiso   1.00
O1292  O     0.79509   0.45491   0.46042   0.00000  Uiso   1.00
O1293  O     0.70492   0.45491   0.46042   0.00000  Uiso   1.00
O1294  O     0.79509   0.04509   0.53958   0.00000  Uiso   1.00
O1295  O     0.79509   0.04509   0.46042   0.00000  Uiso   1.00
O1296  O     0.70492   0.45491   0.53958   0.00000  Uiso   1.00
C1297  C     0.55853   0.18991   0.50022   0.00000  Uiso   1.00
C1298  C     0.94053   0.30936   0.49996   0.00000  Uiso   1.00
C1299  C     0.94115   0.18985   0.49999   0.00000  Uiso   1.00
C1300  C     0.55775   0.31079   0.49980   0.00000  Uiso   1.00
C1301  C     0.80845   0.43981   0.50007   0.00000  Uiso   1.00
C1302  C     0.69048   0.05930   0.49993   0.00000  Uiso   1.00
C1303  C     0.68981   0.44141   0.50006   0.00000  Uiso   1.00
C1304  C     0.80857   0.05997   0.49995   0.00000  Uiso   1.00
N1305  N     0.50000   0.25000   0.61736   0.00000  Uiso   1.00
N1306  N     0.50000   0.25000   0.38264   0.00000  Uiso   1.00
N1307  N     0.75000   0.00000   0.61736   0.00000  Uiso   1.00
N1308  N     0.75000   0.00000   0.38264   0.00000  Uiso   1.00
Cu1309 Cu    0.50000   0.25000   0.54689   0.00000  Uiso   1.00
Cu1310 Cu    0.50000   0.25000   0.45311   0.00000  Uiso   1.00
Cu1311 Cu    0.75000   0.00000   0.54689   0.00000  Uiso   1.00
Cu1312 Cu    0.75000   0.00000   0.45311   0.00000  Uiso   1.00
C1313  C     0.99931   0.21101   0.35776   0.00000  Uiso   1.00
C1314  C     0.50300   0.28885   0.64228   0.00000  Uiso   1.00
C1315  C     0.50588   0.28842   0.35735   0.00000  Uiso   1.00
C1316  C     0.50195   0.21109   0.64269   0.00000  Uiso   1.00
C1317  C     0.74624   0.46128   0.35782   0.00000  Uiso   1.00
C1318  C     0.75399   0.03883   0.64214   0.00000  Uiso   1.00
C1319  C     0.75659   0.03834   0.35723   0.00000  Uiso   1.00
C1320  C     0.74820   0.46103   0.64273   0.00000  Uiso   1.00
C1321  C     0.89801   0.13062   0.46005   0.00000  Uiso   1.00
C1322  C     0.59421   0.37525   0.53488   0.00000  Uiso   1.00
C1323  C     0.61769   0.34895   0.46159   0.00000  Uiso   1.00
C1324  C     0.88565   0.14544   0.53974   0.00000  Uiso   1.00
C1325  C     0.61261   0.14472   0.54126   0.00000  Uiso   1.00
C1326  C     0.88625   0.35538   0.45923   0.00000  Uiso   1.00
C1327  C     0.89284   0.36225   0.54119   0.00000  Uiso   1.00
C1328  C     0.60115   0.13219   0.46116   0.00000  Uiso   1.00
C1329  C     0.64463   0.38558   0.45967   0.00000  Uiso   1.00
C1330  C     0.84927   0.12099   0.53658   0.00000  Uiso   1.00
C1331  C     0.87103   0.09399   0.46288   0.00000  Uiso   1.00
C1332  C     0.62921   0.40220   0.53821   0.00000  Uiso   1.00
C1333  C     0.86391   0.39688   0.54011   0.00000  Uiso   1.00
C1334  C     0.63667   0.10648   0.45918   0.00000  Uiso   1.00
C1335  C     0.64146   0.10997   0.54168   0.00000  Uiso   1.00
C1336  C     0.85046   0.38079   0.46094   0.00000  Uiso   1.00
C1337  C     0.59052   0.34494   0.49892   0.00000  Uiso   1.00
C1338  C     0.90844   0.15470   0.49994   0.00000  Uiso   1.00
C1339  C     0.90659   0.34291   0.50002   0.00000  Uiso   1.00
C1340  C     0.59119   0.15550   0.50093   0.00000  Uiso   1.00
C1341  C     0.84329   0.09177   0.49985   0.00000  Uiso   1.00
C1342  C     0.65449   0.40928   0.49968   0.00000  Uiso   1.00
C1343  C     0.65634   0.09259   0.50006   0.00000  Uiso   1.00
C1344  C     0.84105   0.40534   0.50033   0.00000  Uiso   1.00
O1345  O     0.99804   0.16975   0.37820   0.00000  Uiso   1.00
H1346  H     0.99896   0.17348   0.41117   0.00000  Uiso   1.00
O1347  O     0.50487   0.33005   0.62184   0.00000  Uiso   1.00
H1348  H     0.99851   0.32654   0.58956   0.00000  Uiso   1.00
O1349  O     0.51657   0.32800   0.37741   0.00000  Uiso   1.00
H1350  H     0.50603   0.32744   0.40860   0.00000  Uiso   1.00
O1351  O     0.50909   0.17047   0.62288   0.00000  Uiso   1.00
H1352  H     0.50385   0.17337   0.59025   0.00000  Uiso   1.00
O1353  O     0.74172   0.42053   0.37853   0.00000  Uiso   1.00
H1354  H     0.74910   0.42357   0.41063   0.00000  Uiso   1.00
O1355  O     0.75745   0.07995   0.62150   0.00000  Uiso   1.00
H1356  H     0.74884   0.07742   0.58969   0.00000  Uiso   1.00
O1357  O     0.76712   0.07798   0.37722   0.00000  Uiso   1.00
H1358  H     0.75655   0.07723   0.40834   0.00000  Uiso   1.00
O1359  O     0.75201   0.41975   0.62311   0.00000  Uiso   1.00
H1360  H     0.75243   0.42334   0.59002   0.00000  Uiso   1.00
O1361  O     0.91380   0.14191   0.41795   0.00000  Uiso   1.00
C1362  C     0.88998   0.17676   0.39850   0.00000  Uiso   1.00
H1363  H     0.90690   0.18930   0.36825   0.00000  Uiso   1.00
H1364  H     0.88696   0.20581   0.42175   0.00000  Uiso   1.00
C1365  C     0.84696   0.16127   0.38401   0.00000  Uiso   1.00
H1366  H     0.84752   0.12633   0.37230   0.00000  Uiso   1.00
H1367  H     0.82598   0.16271   0.41375   0.00000  Uiso   1.00
C1368  C     0.83006   0.19048   0.34583   0.00000  Uiso   1.00
H1369  H     0.83027   0.22587   0.35624   0.00000  Uiso   1.00
H1370  H     0.79840   0.18019   0.33743   0.00000  Uiso   1.00
H1371  H     0.84915   0.18701   0.64830   0.00000  Uiso   1.00
O1372  O     0.56447   0.37731   0.56824   0.00000  Uiso   1.00
C1373  C     0.53594   0.41123   0.55687   0.00000  Uiso   1.00
H1374  H     0.50472   0.39822   0.56360   0.00000  Uiso   1.00
H1375  H     0.53605   0.42136   0.52015   0.00000  Uiso   1.00
C1376  C     0.54327   0.45189   0.58691   0.00000  Uiso   1.00
H1377  H     0.54800   0.44055   0.62257   0.00000  Uiso   1.00
H1378  H     0.57102   0.46982   0.57487   0.00000  Uiso   1.00
C1379  C     0.50725   0.48396   0.58613   0.00000  Uiso   1.00
H1380  H     0.50053   0.49466   0.55086   0.00000  Uiso   1.00
H1381  H     0.51453   0.01386   0.60671   0.00000  Uiso   1.00
H1382  H     0.97991   0.46753   0.60079   0.00000  Uiso   1.00
O1383  O     0.61610   0.32046   0.42449   0.00000  Uiso   1.00
C1384  C     0.62798   0.27669   0.43733   0.00000  Uiso   1.00
H1385  H     0.61732   0.25342   0.41047   0.00000  Uiso   1.00
H1386  H     0.61358   0.26492   0.46934   0.00000  Uiso   1.00
C1387  C     0.67419   0.27226   0.44201   0.00000  Uiso   1.00
H1388  H     0.68770   0.26807   0.40781   0.00000  Uiso   1.00
H1389  H     0.68763   0.30305   0.45672   0.00000  Uiso   1.00
C1390  C     0.68498   0.23274   0.47298   0.00000  Uiso   1.00
H1391  H     0.69109   0.24563   0.50747   0.00000  Uiso   1.00
H1392  H     0.71225   0.21494   0.46032   0.00000  Uiso   1.00
H1393  H     0.65998   0.20787   0.47571   0.00000  Uiso   1.00
O1394  O     0.89365   0.16661   0.58027   0.00000  Uiso   1.00
C1395  C     0.92351   0.14218   0.60443   0.00000  Uiso   1.00
H1396  H     0.93430   0.16419   0.63196   0.00000  Uiso   1.00
H1397  H     0.94967   0.13256   0.58239   0.00000  Uiso   1.00
C1398  C     0.90673   0.09978   0.62600   0.00000  Uiso   1.00
H1399  H     0.87694   0.10649   0.64223   0.00000  Uiso   1.00
H1400  H     0.90200   0.07516   0.59852   0.00000  Uiso   1.00
C1401  C     0.93691   0.08084   0.66081   0.00000  Uiso   1.00
H1402  H     0.96390   0.06658   0.64320   0.00000  Uiso   1.00
H1403  H     0.92169   0.05448   0.34778   0.00000  Uiso   1.00
H1404  H     0.94766   0.10685   0.35121   0.00000  Uiso   1.00
O1405  O     0.60439   0.16626   0.58165   0.00000  Uiso   1.00
C1406  C     0.62682   0.20657   0.58295   0.00000  Uiso   1.00
H1407  H     0.61453   0.22602   0.61200   0.00000  Uiso   1.00
H1408  H     0.62209   0.22758   0.55196   0.00000  Uiso   1.00
C1409  C     0.67262   0.19792   0.59008   0.00000  Uiso   1.00
H1410  H     0.67667   0.17071   0.61503   0.00000  Uiso   1.00
H1411  H     0.68744   0.18719   0.55799   0.00000  Uiso   1.00
C1412  C     0.69377   0.23901   0.60796   0.00000  Uiso   1.00
H1413  H     0.69442   0.26608   0.58208   0.00000  Uiso   1.00
H1414  H     0.72518   0.23044   0.61888   0.00000  Uiso   1.00
H1415  H     0.67690   0.25017   0.63820   0.00000  Uiso   1.00
O1416  O     0.89682   0.33806   0.41750   0.00000  Uiso   1.00
C1417  C     0.93072   0.36156   0.39993   0.00000  Uiso   1.00
H1418  H     0.94441   0.33915   0.37464   0.00000  Uiso   1.00
H1419  H     0.95363   0.37031   0.42661   0.00000  Uiso   1.00
C1420  C     0.91920   0.40340   0.37376   0.00000  Uiso   1.00
H1421  H     0.90163   0.39327   0.34347   0.00000  Uiso   1.00
H1422  H     0.90019   0.42572   0.39491   0.00000  Uiso   1.00
C1423  C     0.95807   0.42773   0.35859   0.00000  Uiso   1.00
H1424  H     0.97722   0.43522   0.38864   0.00000  Uiso   1.00
H1425  H     0.95133   0.46009   0.34228   0.00000  Uiso   1.00
H1426  H     0.97541   0.40699   0.33406   0.00000  Uiso   1.00
O1427  O     0.90757   0.34804   0.58299   0.00000  Uiso   1.00
C1428  C     0.88242   0.31263   0.59909   0.00000  Uiso   1.00
H1429  H     0.90268   0.28714   0.61492   0.00000  Uiso   1.00
H1430  H     0.86593   0.29435   0.57146   0.00000  Uiso   1.00
C1431  C     0.85271   0.32934   0.63576   0.00000  Uiso   1.00
H1432  H     0.86492   0.31965   0.33614   0.00000  Uiso   1.00
H1433  H     0.85038   0.36603   0.63543   0.00000  Uiso   1.00
C1434  C     0.80952   0.31115   0.62987   0.00000  Uiso   1.00
H1435  H     0.79662   0.32305   0.59697   0.00000  Uiso   1.00
H1436  H     0.78965   0.32349   0.65765   0.00000  Uiso   1.00
H1437  H     0.80971   0.27425   0.63094   0.00000  Uiso   1.00
O1438  O     0.57393   0.12871   0.42530   0.00000  Uiso   1.00
C1439  C     0.54286   0.09739   0.43712   0.00000  Uiso   1.00
H1440  H     0.52356   0.09229   0.40644   0.00000  Uiso   1.00
H1441  H     0.52249   0.11128   0.46389   0.00000  Uiso   1.00
C1442  C     0.55935   0.05139   0.45264   0.00000  Uiso   1.00
H1443  H     0.58179   0.03845   0.42781   0.00000  Uiso   1.00
H1444  H     0.57435   0.05398   0.48651   0.00000  Uiso   1.00
C1445  C     0.52514   0.01812   0.45783   0.00000  Uiso   1.00
H1446  H     0.53756   0.48596   0.47045   0.00000  Uiso   1.00
H1447  H     0.50993   0.01291   0.42445   0.00000  Uiso   1.00
H1448  H     0.50303   0.03103   0.48305   0.00000  Uiso   1.00
O1449  O     0.66243   0.39670   0.41862   0.00000  Uiso   1.00
C1450  C     0.64092   0.43318   0.39902   0.00000  Uiso   1.00
H1451  H     0.66223   0.45084   0.37567   0.00000  Uiso   1.00
H1452  H     0.63162   0.45891   0.42437   0.00000  Uiso   1.00
C1453  C     0.60450   0.41694   0.37083   0.00000  Uiso   1.00
H1454  H     0.60627   0.43121   0.33592   0.00000  Uiso   1.00
H1455  H     0.60511   0.38027   0.36823   0.00000  Uiso   1.00
C1456  C     0.56381   0.42949   0.39164   0.00000  Uiso   1.00
H1457  H     0.56188   0.41848   0.42778   0.00000  Uiso   1.00
H1458  H     0.53975   0.41239   0.37197   0.00000  Uiso   1.00
H1459  H     0.55925   0.46596   0.38893   0.00000  Uiso   1.00
O1460  O     0.81927   0.12819   0.56895   0.00000  Uiso   1.00
C1461  C     0.79226   0.16205   0.55300   0.00000  Uiso   1.00
H1462  H     0.76793   0.16606   0.57907   0.00000  Uiso   1.00
H1463  H     0.77668   0.15146   0.52104   0.00000  Uiso   1.00
C1464  C     0.81348   0.20781   0.54575   0.00000  Uiso   1.00
H1465  H     0.83202   0.21656   0.57602   0.00000  Uiso   1.00
H1466  H     0.83361   0.20654   0.51532   0.00000  Uiso   1.00
C1467  C     0.78328   0.24509   0.53708   0.00000  Uiso   1.00
H1468  H     0.76090   0.23438   0.51144   0.00000  Uiso   1.00
H1469  H     0.79955   0.27538   0.52499   0.00000  Uiso   1.00
H1470  H     0.76738   0.25397   0.56862   0.00000  Uiso   1.00
O1471  O     0.86885   0.06495   0.42618   0.00000  Uiso   1.00
C1472  C     0.87857   0.02079   0.44009   0.00000  Uiso   1.00
H1473  H     0.86398   0.49740   0.41574   0.00000  Uiso   1.00
H1474  H     0.86626   0.01173   0.47411   0.00000  Uiso   1.00
C1475  C     0.92462   0.01267   0.43981   0.00000  Uiso   1.00
H1476  H     0.93459   0.00488   0.40478   0.00000  Uiso   1.00
H1477  H     0.94080   0.04338   0.45066   0.00000  Uiso   1.00
C1478  C     0.93598   0.47409   0.47180   0.00000  Uiso   1.00
H1479  H     0.93902   0.48698   0.50687   0.00000  Uiso   1.00
H1480  H     0.96536   0.45871   0.46200   0.00000  Uiso   1.00
H1481  H     0.91258   0.44744   0.47121   0.00000  Uiso   1.00
O1482  O     0.63714   0.42212   0.57936   0.00000  Uiso   1.00
C1483  C     0.66550   0.39552   0.60360   0.00000  Uiso   1.00
H1484  H     0.67594   0.41608   0.63259   0.00000  Uiso   1.00
H1485  H     0.69251   0.38669   0.58257   0.00000  Uiso   1.00
C1486  C     0.64749   0.35175   0.62185   0.00000  Uiso   1.00
H1487  H     0.61567   0.35660   0.63340   0.00000  Uiso   1.00
H1488  H     0.64642   0.32662   0.59421   0.00000  Uiso   1.00
C1489  C     0.67402   0.33390   0.66062   0.00000  Uiso   1.00
H1490  H     0.70348   0.32125   0.64717   0.00000  Uiso   1.00
H1491  H     0.65716   0.30742   0.34586   0.00000  Uiso   1.00
H1492  H     0.68182   0.36025   0.35167   0.00000  Uiso   1.00
O1493  O     0.85826   0.42231   0.57858   0.00000  Uiso   1.00
C1494  C     0.88602   0.45827   0.57631   0.00000  Uiso   1.00
H1495  H     0.87717   0.48212   0.54888   0.00000  Uiso   1.00
H1496  H     0.91769   0.44608   0.57007   0.00000  Uiso   1.00
C1497  C     0.88683   0.48263   0.62144   0.00000  Uiso   1.00
H1498  H     0.88885   0.45828   0.64909   0.00000  Uiso   1.00
H1499  H     0.91408   0.00433   0.62214   0.00000  Uiso   1.00
C1500  C     0.84843   0.00900   0.63042   0.00000  Uiso   1.00
H1501  H     0.84263   0.03342   0.60285   0.00000  Uiso   1.00
H1502  H     0.85105   0.02685   0.66333   0.00000  Uiso   1.00
H1503  H     0.82311   0.48501   0.63305   0.00000  Uiso   1.00
O1504  O     0.64661   0.08945   0.41707   0.00000  Uiso   1.00
C1505  C     0.68113   0.11218   0.39996   0.00000  Uiso   1.00
H1506  H     0.69313   0.09173   0.37176   0.00000  Uiso   1.00
H1507  H     0.70490   0.11654   0.42667   0.00000  Uiso   1.00
C1508  C     0.67221   0.15818   0.38037   0.00000  Uiso   1.00
H1509  H     0.65197   0.15548   0.35032   0.00000  Uiso   1.00
H1510  H     0.65620   0.17898   0.40555   0.00000  Uiso   1.00
C1511  C     0.71305   0.17995   0.36768   0.00000  Uiso   1.00
H1512  H     0.73559   0.17736   0.39587   0.00000  Uiso   1.00
H1513  H     0.70879   0.21568   0.36090   0.00000  Uiso   1.00
H1514  H     0.72634   0.16342   0.33737   0.00000  Uiso   1.00
O1515  O     0.65854   0.09763   0.58303   0.00000  Uiso   1.00
C1516  C     0.63765   0.06016   0.60123   0.00000  Uiso   1.00
H1517  H     0.65975   0.04218   0.62348   0.00000  Uiso   1.00
H1518  H     0.62786   0.03582   0.57467   0.00000  Uiso   1.00
C1519  C     0.60081   0.07445   0.62992   0.00000  Uiso   1.00
H1520  H     0.60826   0.10502   0.64933   0.00000  Uiso   1.00
H1521  H     0.57449   0.08179   0.60709   0.00000  Uiso   1.00
C1522  C     0.58865   0.03806   0.66367   0.00000  Uiso   1.00
H1523  H     0.58387   0.00617   0.64587   0.00000  Uiso   1.00
H1524  H     0.55982   0.04744   0.34770   0.00000  Uiso   1.00
H1525  H     0.61321   0.03324   0.35599   0.00000  Uiso   1.00
O1526  O     0.82536   0.38110   0.42301   0.00000  Uiso   1.00
C1527  C     0.79516   0.34739   0.42829   0.00000  Uiso   1.00
H1528  H     0.77318   0.35093   0.39985   0.00000  Uiso   1.00
H1529  H     0.77742   0.35188   0.46041   0.00000  Uiso   1.00
C1530  C     0.81241   0.29972   0.42561   0.00000  Uiso   1.00
H1531  H     0.83297   0.29631   0.39617   0.00000  Uiso   1.00
H1532  H     0.82992   0.29151   0.45689   0.00000  Uiso   1.00
C1533  C     0.77817   0.26608   0.42057   0.00000  Uiso   1.00
H1534  H     0.78978   0.23187   0.42671   0.00000  Uiso   1.00
H1535  H     0.76446   0.26827   0.38600   0.00000  Uiso   1.00
H1536  H     0.75478   0.27369   0.44624   0.00000  Uiso   1.00
O1537  O     0.04509   0.70491   0.53958   0.00000  Uiso   1.00
O1538  O     0.45492   0.79509   0.46042   0.00000  Uiso   1.00
O1539  O     0.45492   0.79509   0.53958   0.00000  Uiso   1.00
O1540  O     0.04509   0.70491   0.46042   0.00000  Uiso   1.00
O1541  O     0.45492   0.70491   0.46042   0.00000  Uiso   1.00
O1542  O     0.04509   0.79509   0.53958   0.00000  Uiso   1.00
O1543  O     0.04509   0.79509   0.46042   0.00000  Uiso   1.00
O1544  O     0.45492   0.70491   0.53958   0.00000  Uiso   1.00
O1545  O     0.29509   0.95491   0.53958   0.00000  Uiso   1.00
O1546  O     0.20492   0.54509   0.46042   0.00000  Uiso   1.00
O1547  O     0.20492   0.54509   0.53958   0.00000  Uiso   1.00
O1548  O     0.29509   0.95491   0.46042   0.00000  Uiso   1.00
O1549  O     0.20492   0.95491   0.46042   0.00000  Uiso   1.00
O1550  O     0.29509   0.54509   0.53958   0.00000  Uiso   1.00
O1551  O     0.29509   0.54509   0.46042   0.00000  Uiso   1.00
O1552  O     0.20492   0.95491   0.53958   0.00000  Uiso   1.00
C1553  C     0.05853   0.68991   0.50022   0.00000  Uiso   1.00
C1554  C     0.44053   0.80936   0.49996   0.00000  Uiso   1.00
C1555  C     0.44115   0.68985   0.49999   0.00000  Uiso   1.00
C1556  C     0.05775   0.81079   0.49980   0.00000  Uiso   1.00
C1557  C     0.30845   0.93981   0.50007   0.00000  Uiso   1.00
C1558  C     0.19048   0.55930   0.49993   0.00000  Uiso   1.00
C1559  C     0.18981   0.94141   0.50006   0.00000  Uiso   1.00
C1560  C     0.30857   0.55997   0.49995   0.00000  Uiso   1.00
N1561  N     0.00000   0.75000   0.61736   0.00000  Uiso   1.00
N1562  N     0.00000   0.75000   0.38264   0.00000  Uiso   1.00
N1563  N     0.25000   0.50000   0.61736   0.00000  Uiso   1.00
N1564  N     0.25000   0.50000   0.38264   0.00000  Uiso   1.00
Cu1565 Cu    0.00000   0.75000   0.54689   0.00000  Uiso   1.00
Cu1566 Cu    0.00000   0.75000   0.45311   0.00000  Uiso   1.00
Cu1567 Cu    0.25000   0.50000   0.54689   0.00000  Uiso   1.00
Cu1568 Cu    0.25000   0.50000   0.45311   0.00000  Uiso   1.00
C1569  C     0.49931   0.71101   0.35776   0.00000  Uiso   1.00
C1570  C     0.00300   0.78885   0.64228   0.00000  Uiso   1.00
C1571  C     0.00588   0.78842   0.35735   0.00000  Uiso   1.00
C1572  C     0.00195   0.71109   0.64269   0.00000  Uiso   1.00
C1573  C     0.24624   0.96128   0.35782   0.00000  Uiso   1.00
C1574  C     0.25399   0.53883   0.64214   0.00000  Uiso   1.00
C1575  C     0.25659   0.53834   0.35723   0.00000  Uiso   1.00
C1576  C     0.24820   0.96103   0.64273   0.00000  Uiso   1.00
C1577  C     0.39801   0.63062   0.46005   0.00000  Uiso   1.00
C1578  C     0.09421   0.87525   0.53488   0.00000  Uiso   1.00
C1579  C     0.11769   0.84895   0.46159   0.00000  Uiso   1.00
C1580  C     0.38565   0.64544   0.53974   0.00000  Uiso   1.00
C1581  C     0.11261   0.64472   0.54126   0.00000  Uiso   1.00
C1582  C     0.38625   0.85538   0.45923   0.00000  Uiso   1.00
C1583  C     0.39284   0.86225   0.54119   0.00000  Uiso   1.00
C1584  C     0.10115   0.63219   0.46116   0.00000  Uiso   1.00
C1585  C     0.14463   0.88558   0.45967   0.00000  Uiso   1.00
C1586  C     0.34927   0.62099   0.53658   0.00000  Uiso   1.00
C1587  C     0.37103   0.59399   0.46288   0.00000  Uiso   1.00
C1588  C     0.12921   0.90220   0.53821   0.00000  Uiso   1.00
C1589  C     0.36391   0.89688   0.54011   0.00000  Uiso   1.00
C1590  C     0.13667   0.60648   0.45918   0.00000  Uiso   1.00
C1591  C     0.14146   0.60997   0.54168   0.00000  Uiso   1.00
C1592  C     0.35046   0.88079   0.46094   0.00000  Uiso   1.00
C1593  C     0.09052   0.84494   0.49892   0.00000  Uiso   1.00
C1594  C     0.40844   0.65470   0.49994   0.00000  Uiso   1.00
C1595  C     0.40659   0.84291   0.50002   0.00000  Uiso   1.00
C1596  C     0.09119   0.65550   0.50093   0.00000  Uiso   1.00
C1597  C     0.34329   0.59177   0.49985   0.00000  Uiso   1.00
C1598  C     0.15449   0.90928   0.49968   0.00000  Uiso   1.00
C1599  C     0.15634   0.59259   0.50006   0.00000  Uiso   1.00
C1600  C     0.34105   0.90534   0.50033   0.00000  Uiso   1.00
O1601  O     0.49804   0.66975   0.37820   0.00000  Uiso   1.00
H1602  H     0.49896   0.67348   0.41117   0.00000  Uiso   1.00
O1603  O     0.00487   0.83005   0.62184   0.00000  Uiso   1.00
H1604  H     0.49851   0.82654   0.58956   0.00000  Uiso   1.00
O1605  O     0.01657   0.82800   0.37741   0.00000  Uiso   1.00
H1606  H     0.00603   0.82744   0.40860   0.00000  Uiso   1.00
O1607  O     0.00909   0.67047   0.62288   0.00000  Uiso   1.00
H1608  H     0.00385   0.67337   0.59025   0.00000  Uiso   1.00
O1609  O     0.24172   0.92053   0.37853   0.00000  Uiso   1.00
H1610  H     0.24910   0.92357   0.41063   0.00000  Uiso   1.00
O1611  O     0.25745   0.57995   0.62150   0.00000  Uiso   1.00
H1612  H     0.24884   0.57742   0.58969   0.00000  Uiso   1.00
O1613  O     0.26712   0.57798   0.37722   0.00000  Uiso   1.00
H1614  H     0.25655   0.57723   0.40834   0.00000  Uiso   1.00
O1615  O     0.25201   0.91975   0.62311   0.00000  Uiso   1.00
H1616  H     0.25243   0.92334   0.59002   0.00000  Uiso   1.00
O1617  O     0.41380   0.64191   0.41795   0.00000  Uiso   1.00
C1618  C     0.38998   0.67676   0.39850   0.00000  Uiso   1.00
H1619  H     0.40690   0.68930   0.36825   0.00000  Uiso   1.00
H1620  H     0.38696   0.70581   0.42175   0.00000  Uiso   1.00
C1621  C     0.34696   0.66127   0.38401   0.00000  Uiso   1.00
H1622  H     0.34752   0.62633   0.37230   0.00000  Uiso   1.00
H1623  H     0.32598   0.66271   0.41375   0.00000  Uiso   1.00
C1624  C     0.33006   0.69048   0.34583   0.00000  Uiso   1.00
H1625  H     0.33027   0.72587   0.35624   0.00000  Uiso   1.00
H1626  H     0.29840   0.68019   0.33743   0.00000  Uiso   1.00
H1627  H     0.34915   0.68701   0.64830   0.00000  Uiso   1.00
O1628  O     0.06447   0.87731   0.56824   0.00000  Uiso   1.00
C1629  C     0.03594   0.91123   0.55687   0.00000  Uiso   1.00
H1630  H     0.00472   0.89822   0.56360   0.00000  Uiso   1.00
H1631  H     0.03605   0.92136   0.52015   0.00000  Uiso   1.00
C1632  C     0.04327   0.95189   0.58691   0.00000  Uiso   1.00
H1633  H     0.04800   0.94055   0.62257   0.00000  Uiso   1.00
H1634  H     0.07102   0.96982   0.57487   0.00000  Uiso   1.00
C1635  C     0.00725   0.98396   0.58613   0.00000  Uiso   1.00
H1636  H     0.00053   0.99466   0.55086   0.00000  Uiso   1.00
H1637  H     0.01453   0.51386   0.60671   0.00000  Uiso   1.00
H1638  H     0.47991   0.96753   0.60079   0.00000  Uiso   1.00
O1639  O     0.11610   0.82046   0.42449   0.00000  Uiso   1.00
C1640  C     0.12798   0.77669   0.43733   0.00000  Uiso   1.00
H1641  H     0.11732   0.75342   0.41047   0.00000  Uiso   1.00
H1642  H     0.11358   0.76492   0.46934   0.00000  Uiso   1.00
C1643  C     0.17419   0.77226   0.44201   0.00000  Uiso   1.00
H1644  H     0.18770   0.76807   0.40781   0.00000  Uiso   1.00
H1645  H     0.18763   0.80305   0.45672   0.00000  Uiso   1.00
C1646  C     0.18498   0.73274   0.47298   0.00000  Uiso   1.00
H1647  H     0.19109   0.74563   0.50747   0.00000  Uiso   1.00
H1648  H     0.21225   0.71494   0.46032   0.00000  Uiso   1.00
H1649  H     0.15998   0.70787   0.47571   0.00000  Uiso   1.00
O1650  O     0.39365   0.66661   0.58027   0.00000  Uiso   1.00
C1651  C     0.42351   0.64218   0.60443   0.00000  Uiso   1.00
H1652  H     0.43430   0.66419   0.63196   0.00000  Uiso   1.00
H1653  H     0.44967   0.63256   0.58239   0.00000  Uiso   1.00
C1654  C     0.40673   0.59978   0.62600   0.00000  Uiso   1.00
H1655  H     0.37694   0.60649   0.64223   0.00000  Uiso   1.00
H1656  H     0.40200   0.57516   0.59852   0.00000  Uiso   1.00
C1657  C     0.43691   0.58084   0.66081   0.00000  Uiso   1.00
H1658  H     0.46390   0.56658   0.64320   0.00000  Uiso   1.00
H1659  H     0.42169   0.55448   0.34778   0.00000  Uiso   1.00
H1660  H     0.44766   0.60685   0.35121   0.00000  Uiso   1.00
O1661  O     0.10439   0.66626   0.58165   0.00000  Uiso   1.00
C1662  C     0.12682   0.70657   0.58295   0.00000  Uiso   1.00
H1663  H     0.11453   0.72602   0.61200   0.00000  Uiso   1.00
H1664  H     0.12209   0.72758   0.55196   0.00000  Uiso   1.00
C1665  C     0.17262   0.69792   0.59008   0.00000  Uiso   1.00
H1666  H     0.17667   0.67071   0.61503   0.00000  Uiso   1.00
H1667  H     0.18744   0.68719   0.55799   0.00000  Uiso   1.00
C1668  C     0.19377   0.73901   0.60796   0.00000  Uiso   1.00
H1669  H     0.19442   0.76608   0.58208   0.00000  Uiso   1.00
H1670  H     0.22518   0.73044   0.61888   0.00000  Uiso   1.00
H1671  H     0.17690   0.75017   0.63820   0.00000  Uiso   1.00
O1672  O     0.39682   0.83806   0.41750   0.00000  Uiso   1.00
C1673  C     0.43072   0.86156   0.39993   0.00000  Uiso   1.00
H1674  H     0.44441   0.83915   0.37464   0.00000  Uiso   1.00
H1675  H     0.45363   0.87031   0.42661   0.00000  Uiso   1.00
C1676  C     0.41920   0.90340   0.37376   0.00000  Uiso   1.00
H1677  H     0.40163   0.89327   0.34347   0.00000  Uiso   1.00
H1678  H     0.40019   0.92572   0.39491   0.00000  Uiso   1.00
C1679  C     0.45807   0.92773   0.35859   0.00000  Uiso   1.00
H1680  H     0.47722   0.93522   0.38864   0.00000  Uiso   1.00
H1681  H     0.45133   0.96009   0.34228   0.00000  Uiso   1.00
H1682  H     0.47541   0.90699   0.33406   0.00000  Uiso   1.00
O1683  O     0.40757   0.84804   0.58299   0.00000  Uiso   1.00
C1684  C     0.38242   0.81263   0.59909   0.00000  Uiso   1.00
H1685  H     0.40268   0.78714   0.61492   0.00000  Uiso   1.00
H1686  H     0.36593   0.79435   0.57146   0.00000  Uiso   1.00
C1687  C     0.35271   0.82934   0.63576   0.00000  Uiso   1.00
H1688  H     0.36492   0.81965   0.33614   0.00000  Uiso   1.00
H1689  H     0.35038   0.86603   0.63543   0.00000  Uiso   1.00
C1690  C     0.30952   0.81115   0.62987   0.00000  Uiso   1.00
H1691  H     0.29662   0.82305   0.59697   0.00000  Uiso   1.00
H1692  H     0.28965   0.82349   0.65765   0.00000  Uiso   1.00
H1693  H     0.30971   0.77425   0.63094   0.00000  Uiso   1.00
O1694  O     0.07393   0.62871   0.42530   0.00000  Uiso   1.00
C1695  C     0.04286   0.59739   0.43712   0.00000  Uiso   1.00
H1696  H     0.02356   0.59229   0.40644   0.00000  Uiso   1.00
H1697  H     0.02249   0.61128   0.46389   0.00000  Uiso   1.00
C1698  C     0.05935   0.55139   0.45264   0.00000  Uiso   1.00
H1699  H     0.08179   0.53845   0.42781   0.00000  Uiso   1.00
H1700  H     0.07435   0.55398   0.48651   0.00000  Uiso   1.00
C1701  C     0.02514   0.51812   0.45783   0.00000  Uiso   1.00
H1702  H     0.03756   0.98596   0.47045   0.00000  Uiso   1.00
H1703  H     0.00993   0.51291   0.42445   0.00000  Uiso   1.00
H1704  H     0.00303   0.53103   0.48305   0.00000  Uiso   1.00
O1705  O     0.16243   0.89670   0.41862   0.00000  Uiso   1.00
C1706  C     0.14092   0.93318   0.39902   0.00000  Uiso   1.00
H1707  H     0.16223   0.95084   0.37567   0.00000  Uiso   1.00
H1708  H     0.13162   0.95891   0.42437   0.00000  Uiso   1.00
C1709  C     0.10450   0.91694   0.37083   0.00000  Uiso   1.00
H1710  H     0.10627   0.93121   0.33592   0.00000  Uiso   1.00
H1711  H     0.10511   0.88027   0.36823   0.00000  Uiso   1.00
C1712  C     0.06381   0.92949   0.39164   0.00000  Uiso   1.00
H1713  H     0.06188   0.91848   0.42778   0.00000  Uiso   1.00
H1714  H     0.03975   0.91239   0.37197   0.00000  Uiso   1.00
H1715  H     0.05925   0.96596   0.38893   0.00000  Uiso   1.00
O1716  O     0.31927   0.62819   0.56895   0.00000  Uiso   1.00
C1717  C     0.29226   0.66205   0.55300   0.00000  Uiso   1.00
H1718  H     0.26793   0.66606   0.57907   0.00000  Uiso   1.00
H1719  H     0.27668   0.65146   0.52104   0.00000  Uiso   1.00
C1720  C     0.31348   0.70781   0.54575   0.00000  Uiso   1.00
H1721  H     0.33202   0.71656   0.57602   0.00000  Uiso   1.00
H1722  H     0.33361   0.70654   0.51532   0.00000  Uiso   1.00
C1723  C     0.28328   0.74509   0.53708   0.00000  Uiso   1.00
H1724  H     0.26090   0.73438   0.51144   0.00000  Uiso   1.00
H1725  H     0.29955   0.77538   0.52499   0.00000  Uiso   1.00
H1726  H     0.26738   0.75397   0.56862   0.00000  Uiso   1.00
O1727  O     0.36885   0.56495   0.42618   0.00000  Uiso   1.00
C1728  C     0.37857   0.52079   0.44009   0.00000  Uiso   1.00
H1729  H     0.36398   0.99740   0.41574   0.00000  Uiso   1.00
H1730  H     0.36626   0.51173   0.47411   0.00000  Uiso   1.00
C1731  C     0.42462   0.51267   0.43981   0.00000  Uiso   1.00
H1732  H     0.43459   0.50488   0.40478   0.00000  Uiso   1.00
H1733  H     0.44080   0.54338   0.45066   0.00000  Uiso   1.00
C1734  C     0.43598   0.97409   0.47180   0.00000  Uiso   1.00
H1735  H     0.43902   0.98698   0.50687   0.00000  Uiso   1.00
H1736  H     0.46536   0.95871   0.46200   0.00000  Uiso   1.00
H1737  H     0.41258   0.94744   0.47121   0.00000  Uiso   1.00
O1738  O     0.13714   0.92212   0.57936   0.00000  Uiso   1.00
C1739  C     0.16550   0.89552   0.60360   0.00000  Uiso   1.00
H1740  H     0.17594   0.91608   0.63259   0.00000  Uiso   1.00
H1741  H     0.19251   0.88669   0.58257   0.00000  Uiso   1.00
C1742  C     0.14749   0.85175   0.62185   0.00000  Uiso   1.00
H1743  H     0.11567   0.85660   0.63340   0.00000  Uiso   1.00
H1744  H     0.14642   0.82662   0.59421   0.00000  Uiso   1.00
C1745  C     0.17402   0.83390   0.66062   0.00000  Uiso   1.00
H1746  H     0.20348   0.82125   0.64717   0.00000  Uiso   1.00
H1747  H     0.15716   0.80742   0.34586   0.00000  Uiso   1.00
H1748  H     0.18182   0.86025   0.35167   0.00000  Uiso   1.00
O1749  O     0.35826   0.92231   0.57858   0.00000  Uiso   1.00
C1750  C     0.38602   0.95827   0.57631   0.00000  Uiso   1.00
H1751  H     0.37717   0.98212   0.54888   0.00000  Uiso   1.00
H1752  H     0.41769   0.94608   0.57007   0.00000  Uiso   1.00
C1753  C     0.38683   0.98263   0.62144   0.00000  Uiso   1.00
H1754  H     0.38885   0.95828   0.64909   0.00000  Uiso   1.00
H1755  H     0.41408   0.50433   0.62214   0.00000  Uiso   1.00
C1756  C     0.34843   0.50900   0.63042   0.00000  Uiso   1.00
H1757  H     0.34263   0.53342   0.60285   0.00000  Uiso   1.00
H1758  H     0.35105   0.52685   0.66333   0.00000  Uiso   1.00
H1759  H     0.32311   0.98501   0.63305   0.00000  Uiso   1.00
O1760  O     0.14661   0.58945   0.41707   0.00000  Uiso   1.00
C1761  C     0.18113   0.61218   0.39996   0.00000  Uiso   1.00
H1762  H     0.19313   0.59173   0.37176   0.00000  Uiso   1.00
H1763  H     0.20490   0.61654   0.42667   0.00000  Uiso   1.00
C1764  C     0.17221   0.65818   0.38037   0.00000  Uiso   1.00
H1765  H     0.15197   0.65548   0.35032   0.00000  Uiso   1.00
H1766  H     0.15620   0.67898   0.40555   0.00000  Uiso   1.00
C1767  C     0.21305   0.67995   0.36768   0.00000  Uiso   1.00
H1768  H     0.23559   0.67736   0.39587   0.00000  Uiso   1.00
H1769  H     0.20879   0.71568   0.36090   0.00000  Uiso   1.00
H1770  H     0.22634   0.66342   0.33737   0.00000  Uiso   1.00
O1771  O     0.15854   0.59763   0.58303   0.00000  Uiso   1.00
C1772  C     0.13765   0.56016   0.60123   0.00000  Uiso   1.00
H1773  H     0.15975   0.54218   0.62348   0.00000  Uiso   1.00
H1774  H     0.12786   0.53582   0.57467   0.00000  Uiso   1.00
C1775  C     0.10081   0.57445   0.62992   0.00000  Uiso   1.00
H1776  H     0.10826   0.60502   0.64933   0.00000  Uiso   1.00
H1777  H     0.07449   0.58179   0.60709   0.00000  Uiso   1.00
C1778  C     0.08865   0.53806   0.66367   0.00000  Uiso   1.00
H1779  H     0.08387   0.50617   0.64587   0.00000  Uiso   1.00
H1780  H     0.05982   0.54744   0.34770   0.00000  Uiso   1.00
H1781  H     0.11321   0.53324   0.35599   0.00000  Uiso   1.00
O1782  O     0.32536   0.88110   0.42301   0.00000  Uiso   1.00
C1783  C     0.29516   0.84739   0.42829   0.00000  Uiso   1.00
H1784  H     0.27318   0.85093   0.39985   0.00000  Uiso   1.00
H1785  H     0.27742   0.85188   0.46041   0.00000  Uiso   1.00
C1786  C     0.31241   0.79972   0.42561   0.00000  Uiso   1.00
H1787  H     0.33297   0.79631   0.39617   0.00000  Uiso   1.00
H1788  H     0.32992   0.79151   0.45689   0.00000  Uiso   1.00
C1789  C     0.27817   0.76608   0.42057   0.00000  Uiso   1.00
H1790  H     0.28978   0.73187   0.42671   0.00000  Uiso   1.00
H1791  H     0.26446   0.76827   0.38600   0.00000  Uiso   1.00
H1792  H     0.25478   0.77369   0.44624   0.00000  Uiso   1.00
O1793  O     0.54509   0.70491   0.53958   0.00000  Uiso   1.00
O1794  O     0.95492   0.79509   0.46042   0.00000  Uiso   1.00
O1795  O     0.95492   0.79509   0.53958   0.00000  Uiso   1.00
O1796  O     0.54509   0.70491   0.46042   0.00000  Uiso   1.00
O1797  O     0.95492   0.70491   0.46042   0.00000  Uiso   1.00
O1798  O     0.54509   0.79509   0.53958   0.00000  Uiso   1.00
O1799  O     0.54509   0.79509   0.46042   0.00000  Uiso   1.00
O1800  O     0.95492   0.70491   0.53958   0.00000  Uiso   1.00
O1801  O     0.79509   0.95491   0.53958   0.00000  Uiso   1.00
O1802  O     0.70492   0.54509   0.46042   0.00000  Uiso   1.00
O1803  O     0.70492   0.54509   0.53958   0.00000  Uiso   1.00
O1804  O     0.79509   0.95491   0.46042   0.00000  Uiso   1.00
O1805  O     0.70492   0.95491   0.46042   0.00000  Uiso   1.00
O1806  O     0.79509   0.54509   0.53958   0.00000  Uiso   1.00
O1807  O     0.79509   0.54509   0.46042   0.00000  Uiso   1.00
O1808  O     0.70492   0.95491   0.53958   0.00000  Uiso   1.00
C1809  C     0.55853   0.68991   0.50022   0.00000  Uiso   1.00
C1810  C     0.94053   0.80936   0.49996   0.00000  Uiso   1.00
C1811  C     0.94115   0.68985   0.49999   0.00000  Uiso   1.00
C1812  C     0.55775   0.81079   0.49980   0.00000  Uiso   1.00
C1813  C     0.80845   0.93981   0.50007   0.00000  Uiso   1.00
C1814  C     0.69048   0.55930   0.49993   0.00000  Uiso   1.00
C1815  C     0.68981   0.94141   0.50006   0.00000  Uiso   1.00
C1816  C     0.80857   0.55997   0.49995   0.00000  Uiso   1.00
N1817  N     0.50000   0.75000   0.61736   0.00000  Uiso   1.00
N1818  N     0.50000   0.75000   0.38264   0.00000  Uiso   1.00
N1819  N     0.75000   0.50000   0.61736   0.00000  Uiso   1.00
N1820  N     0.75000   0.50000   0.38264   0.00000  Uiso   1.00
Cu1821 Cu    0.50000   0.75000   0.54689   0.00000  Uiso   1.00
Cu1822 Cu    0.50000   0.75000   0.45311   0.00000  Uiso   1.00
Cu1823 Cu    0.75000   0.50000   0.54689   0.00000  Uiso   1.00
Cu1824 Cu    0.75000   0.50000   0.45311   0.00000  Uiso   1.00
C1825  C     0.99931   0.71101   0.35776   0.00000  Uiso   1.00
C1826  C     0.50300   0.78885   0.64228   0.00000  Uiso   1.00
C1827  C     0.50588   0.78842   0.35735   0.00000  Uiso   1.00
C1828  C     0.50195   0.71109   0.64269   0.00000  Uiso   1.00
C1829  C     0.74624   0.96128   0.35782   0.00000  Uiso   1.00
C1830  C     0.75399   0.53883   0.64214   0.00000  Uiso   1.00
C1831  C     0.75659   0.53834   0.35723   0.00000  Uiso   1.00
C1832  C     0.74820   0.96103   0.64273   0.00000  Uiso   1.00
C1833  C     0.89801   0.63062   0.46005   0.00000  Uiso   1.00
C1834  C     0.59421   0.87525   0.53488   0.00000  Uiso   1.00
C1835  C     0.61769   0.84895   0.46159   0.00000  Uiso   1.00
C1836  C     0.88565   0.64544   0.53974   0.00000  Uiso   1.00
C1837  C     0.61261   0.64472   0.54126   0.00000  Uiso   1.00
C1838  C     0.88625   0.85538   0.45923   0.00000  Uiso   1.00
C1839  C     0.89284   0.86225   0.54119   0.00000  Uiso   1.00
C1840  C     0.60115   0.63219   0.46116   0.00000  Uiso   1.00
C1841  C     0.64463   0.88558   0.45967   0.00000  Uiso   1.00
C1842  C     0.84927   0.62099   0.53658   0.00000  Uiso   1.00
C1843  C     0.87103   0.59399   0.46288   0.00000  Uiso   1.00
C1844  C     0.62921   0.90220   0.53821   0.00000  Uiso   1.00
C1845  C     0.86391   0.89688   0.54011   0.00000  Uiso   1.00
C1846  C     0.63667   0.60648   0.45918   0.00000  Uiso   1.00
C1847  C     0.64146   0.60997   0.54168   0.00000  Uiso   1.00
C1848  C     0.85046   0.88079   0.46094   0.00000  Uiso   1.00
C1849  C     0.59052   0.84494   0.49892   0.00000  Uiso   1.00
C1850  C     0.90844   0.65470   0.49994   0.00000  Uiso   1.00
C1851  C     0.90659   0.84291   0.50002   0.00000  Uiso   1.00
C1852  C     0.59119   0.65550   0.50093   0.00000  Uiso   1.00
C1853  C     0.84329   0.59177   0.49985   0.00000  Uiso   1.00
C1854  C     0.65449   0.90928   0.49968   0.00000  Uiso   1.00
C1855  C     0.65634   0.59259   0.50006   0.00000  Uiso   1.00
C1856  C     0.84105   0.90534   0.50033   0.00000  Uiso   1.00
O1857  O     0.99804   0.66975   0.37820   0.00000  Uiso   1.00
H1858  H     0.99896   0.67348   0.41117   0.00000  Uiso   1.00
O1859  O     0.50487   0.83005   0.62184   0.00000  Uiso   1.00
H1860  H     0.99851   0.82654   0.58956   0.00000  Uiso   1.00
O1861  O     0.51657   0.82800   0.37741   0.00000  Uiso   1.00
H1862  H     0.50603   0.82744   0.40860   0.00000  Uiso   1.00
O1863  O     0.50909   0.67047   0.62288   0.00000  Uiso   1.00
H1864  H     0.50385   0.67337   0.59025   0.00000  Uiso   1.00
O1865  O     0.74172   0.92053   0.37853   0.00000  Uiso   1.00
H1866  H     0.74910   0.92357   0.41063   0.00000  Uiso   1.00
O1867  O     0.75745   0.57995   0.62150   0.00000  Uiso   1.00
H1868  H     0.74884   0.57742   0.58969   0.00000  Uiso   1.00
O1869  O     0.76712   0.57798   0.37722   0.00000  Uiso   1.00
H1870  H     0.75655   0.57723   0.40834   0.00000  Uiso   1.00
O1871  O     0.75201   0.91975   0.62311   0.00000  Uiso   1.00
H1872  H     0.75243   0.92334   0.59002   0.00000  Uiso   1.00
O1873  O     0.91380   0.64191   0.41795   0.00000  Uiso   1.00
C1874  C     0.88998   0.67676   0.39850   0.00000  Uiso   1.00
H1875  H     0.90690   0.68930   0.36825   0.00000  Uiso   1.00
H1876  H     0.88696   0.70581   0.42175   0.00000  Uiso   1.00
C1877  C     0.84696   0.66127   0.38401   0.00000  Uiso   1.00
H1878  H     0.84752   0.62633   0.37230   0.00000  Uiso   1.00
H1879  H     0.82598   0.66271   0.41375   0.00000  Uiso   1.00
C1880  C     0.83006   0.69048   0.34583   0.00000  Uiso   1.00
H1881  H     0.83027   0.72587   0.35624   0.00000  Uiso   1.00
H1882  H     0.79840   0.68019   0.33743   0.00000  Uiso   1.00
H1883  H     0.84915   0.68701   0.64830   0.00000  Uiso   1.00
O1884  O     0.56447   0.87731   0.56824   0.00000  Uiso   1.00
C1885  C     0.53594   0.91123   0.55687   0.00000  Uiso   1.00
H1886  H     0.50472   0.89822   0.56360   0.00000  Uiso   1.00
H1887  H     0.53605   0.92136   0.52015   0.00000  Uiso   1.00
C1888  C     0.54327   0.95189   0.58691   0.00000  Uiso   1.00
H1889  H     0.54800   0.94055   0.62257   0.00000  Uiso   1.00
H1890  H     0.57102   0.96982   0.57487   0.00000  Uiso   1.00
C1891  C     0.50725   0.98396   0.58613   0.00000  Uiso   1.00
H1892  H     0.50053   0.99466   0.55086   0.00000  Uiso   1.00
H1893  H     0.51453   0.51386   0.60671   0.00000  Uiso   1.00
H1894  H     0.97991   0.96753   0.60079   0.00000  Uiso   1.00
O1895  O     0.61610   0.82046   0.42449   0.00000  Uiso   1.00
C1896  C     0.62798   0.77669   0.43733   0.00000  Uiso   1.00
H1897  H     0.61732   0.75342   0.41047   0.00000  Uiso   1.00
H1898  H     0.61358   0.76492   0.46934   0.00000  Uiso   1.00
C1899  C     0.67419   0.77226   0.44201   0.00000  Uiso   1.00
H1900  H     0.68770   0.76807   0.40781   0.00000  Uiso   1.00
H1901  H     0.68763   0.80305   0.45672   0.00000  Uiso   1.00
C1902  C     0.68498   0.73274   0.47298   0.00000  Uiso   1.00
H1903  H     0.69109   0.74563   0.50747   0.00000  Uiso   1.00
H1904  H     0.71225   0.71494   0.46032   0.00000  Uiso   1.00
H1905  H     0.65998   0.70787   0.47571   0.00000  Uiso   1.00
O1906  O     0.89365   0.66661   0.58027   0.00000  Uiso   1.00
C1907  C     0.92351   0.64218   0.60443   0.00000  Uiso   1.00
H1908  H     0.93430   0.66419   0.63196   0.00000  Uiso   1.00
H1909  H     0.94967   0.63256   0.58239   0.00000  Uiso   1.00
C1910  C     0.90673   0.59978   0.62600   0.00000  Uiso   1.00
H1911  H     0.87694   0.60649   0.64223   0.00000  Uiso   1.00
H1912  H     0.90200   0.57516   0.59852   0.00000  Uiso   1.00
C1913  C     0.93691   0.58084   0.66081   0.00000  Uiso   1.00
H1914  H     0.96390   0.56658   0.64320   0.00000  Uiso   1.00
H1915  H     0.92169   0.55448   0.34778   0.00000  Uiso   1.00
H1916  H     0.94766   0.60685   0.35121   0.00000  Uiso   1.00
O1917  O     0.60439   0.66626   0.58165   0.00000  Uiso   1.00
C1918  C     0.62682   0.70657   0.58295   0.00000  Uiso   1.00
H1919  H     0.61453   0.72602   0.61200   0.00000  Uiso   1.00
H1920  H     0.62209   0.72758   0.55196   0.00000  Uiso   1.00
C1921  C     0.67262   0.69792   0.59008   0.00000  Uiso   1.00
H1922  H     0.67667   0.67071   0.61503   0.00000  Uiso   1.00
H1923  H     0.68744   0.68719   0.55799   0.00000  Uiso   1.00
C1924  C     0.69377   0.73901   0.60796   0.00000  Uiso   1.00
H1925  H     0.69442   0.76608   0.58208   0.00000  Uiso   1.00
H1926  H     0.72518   0.73044   0.61888   0.00000  Uiso   1.00
H1927  H     0.67690   0.75017   0.63820   0.00000  Uiso   1.00
O1928  O     0.89682   0.83806   0.41750   0.00000  Uiso   1.00
C1929  C     0.93072   0.86156   0.39993   0.00000  Uiso   1.00
H1930  H     0.94441   0.83915   0.37464   0.00000  Uiso   1.00
H1931  H     0.95363   0.87031   0.42661   0.00000  Uiso   1.00
C1932  C     0.91920   0.90340   0.37376   0.00000  Uiso   1.00
H1933  H     0.90163   0.89327   0.34347   0.00000  Uiso   1.00
H1934  H     0.90019   0.92572   0.39491   0.00000  Uiso   1.00
C1935  C     0.95807   0.92773   0.35859   0.00000  Uiso   1.00
H1936  H     0.97722   0.93522   0.38864   0.00000  Uiso   1.00
H1937  H     0.95133   0.96009   0.34228   0.00000  Uiso   1.00
H1938  H     0.97541   0.90699   0.33406   0.00000  Uiso   1.00
O1939  O     0.90757   0.84804   0.58299   0.00000  Uiso   1.00
C1940  C     0.88242   0.81263   0.59909   0.00000  Uiso   1.00
H1941  H     0.90268   0.78714   0.61492   0.00000  Uiso   1.00
H1942  H     0.86593   0.79435   0.57146   0.00000  Uiso   1.00
C1943  C     0.85271   0.82934   0.63576   0.00000  Uiso   1.00
H1944  H     0.86492   0.81965   0.33614   0.00000  Uiso   1.00
H1945  H     0.85038   0.86603   0.63543   0.00000  Uiso   1.00
C1946  C     0.80952   0.81115   0.62987   0.00000  Uiso   1.00
H1947  H     0.79662   0.82305   0.59697   0.00000  Uiso   1.00
H1948  H     0.78965   0.82349   0.65765   0.00000  Uiso   1.00
H1949  H     0.80971   0.77425   0.63094   0.00000  Uiso   1.00
O1950  O     0.57393   0.62871   0.42530   0.00000  Uiso   1.00
C1951  C     0.54286   0.59739   0.43712   0.00000  Uiso   1.00
H1952  H     0.52356   0.59229   0.40644   0.00000  Uiso   1.00
H1953  H     0.52249   0.61128   0.46389   0.00000  Uiso   1.00
C1954  C     0.55935   0.55139   0.45264   0.00000  Uiso   1.00
H1955  H     0.58179   0.53845   0.42781   0.00000  Uiso   1.00
H1956  H     0.57435   0.55398   0.48651   0.00000  Uiso   1.00
C1957  C     0.52514   0.51812   0.45783   0.00000  Uiso   1.00
H1958  H     0.53756   0.98596   0.47045   0.00000  Uiso   1.00
H1959  H     0.50993   0.51291   0.42445   0.00000  Uiso   1.00
H1960  H     0.50303   0.53103   0.48305   0.00000  Uiso   1.00
O1961  O     0.66243   0.89670   0.41862   0.00000  Uiso   1.00
C1962  C     0.64092   0.93318   0.39902   0.00000  Uiso   1.00
H1963  H     0.66223   0.95084   0.37567   0.00000  Uiso   1.00
H1964  H     0.63162   0.95891   0.42437   0.00000  Uiso   1.00
C1965  C     0.60450   0.91694   0.37083   0.00000  Uiso   1.00
H1966  H     0.60627   0.93121   0.33592   0.00000  Uiso   1.00
H1967  H     0.60511   0.88027   0.36823   0.00000  Uiso   1.00
C1968  C     0.56381   0.92949   0.39164   0.00000  Uiso   1.00
H1969  H     0.56188   0.91848   0.42778   0.00000  Uiso   1.00
H1970  H     0.53975   0.91239   0.37197   0.00000  Uiso   1.00
H1971  H     0.55925   0.96596   0.38893   0.00000  Uiso   1.00
O1972  O     0.81927   0.62819   0.56895   0.00000  Uiso   1.00
C1973  C     0.79226   0.66205   0.55300   0.00000  Uiso   1.00
H1974  H     0.76793   0.66606   0.57907   0.00000  Uiso   1.00
H1975  H     0.77668   0.65146   0.52104   0.00000  Uiso   1.00
C1976  C     0.81348   0.70781   0.54575   0.00000  Uiso   1.00
H1977  H     0.83202   0.71656   0.57602   0.00000  Uiso   1.00
H1978  H     0.83361   0.70654   0.51532   0.00000  Uiso   1.00
C1979  C     0.78328   0.74509   0.53708   0.00000  Uiso   1.00
H1980  H     0.76090   0.73438   0.51144   0.00000  Uiso   1.00
H1981  H     0.79955   0.77538   0.52499   0.00000  Uiso   1.00
H1982  H     0.76738   0.75397   0.56862   0.00000  Uiso   1.00
O1983  O     0.86885   0.56495   0.42618   0.00000  Uiso   1.00
C1984  C     0.87857   0.52079   0.44009   0.00000  Uiso   1.00
H1985  H     0.86398   0.99740   0.41574   0.00000  Uiso   1.00
H1986  H     0.86626   0.51173   0.47411   0.00000  Uiso   1.00
C1987  C     0.92462   0.51267   0.43981   0.00000  Uiso   1.00
H1988  H     0.93459   0.50488   0.40478   0.00000  Uiso   1.00
H1989  H     0.94080   0.54338   0.45066   0.00000  Uiso   1.00
C1990  C     0.93598   0.97409   0.47180   0.00000  Uiso   1.00
H1991  H     0.93902   0.98698   0.50687   0.00000  Uiso   1.00
H1992  H     0.96536   0.95871   0.46200   0.00000  Uiso   1.00
H1993  H     0.91258   0.94744   0.47121   0.00000  Uiso   1.00
O1994  O     0.63714   0.92212   0.57936   0.00000  Uiso   1.00
C1995  C     0.66550   0.89552   0.60360   0.00000  Uiso   1.00
H1996  H     0.67594   0.91608   0.63259   0.00000  Uiso   1.00
H1997  H     0.69251   0.88669   0.58257   0.00000  Uiso   1.00
C1998  C     0.64749   0.85175   0.62185   0.00000  Uiso   1.00
H1999  H     0.61567   0.85660   0.63340   0.00000  Uiso   1.00
H2000  H     0.64642   0.82662   0.59421   0.00000  Uiso   1.00
C2001  C     0.67402   0.83390   0.66062   0.00000  Uiso   1.00
H2002  H     0.70348   0.82125   0.64717   0.00000  Uiso   1.00
H2003  H     0.65716   0.80742   0.34586   0.00000  Uiso   1.00
H2004  H     0.68182   0.86025   0.35167   0.00000  Uiso   1.00
O2005  O     0.85826   0.92231   0.57858   0.00000  Uiso   1.00
C2006  C     0.88602   0.95827   0.57631   0.00000  Uiso   1.00
H2007  H     0.87717   0.98212   0.54888   0.00000  Uiso   1.00
H2008  H     0.91769   0.94608   0.57007   0.00000  Uiso   1.00
C2009  C     0.88683   0.98263   0.62144   0.00000  Uiso   1.00
H2010  H     0.88885   0.95828   0.64909   0.00000  Uiso   1.00
H2011  H     0.91408   0.50433   0.62214   0.00000  Uiso   1.00
C2012  C     0.84843   0.50900   0.63042   0.00000  Uiso   1.00
H2013  H     0.84263   0.53342   0.60285   0.00000  Uiso   1.00
H2014  H     0.85105   0.52685   0.66333   0.00000  Uiso   1.00
H2015  H     0.82311   0.98501   0.63305   0.00000  Uiso   1.00
O2016  O     0.64661   0.58945   0.41707   0.00000  Uiso   1.00
C2017  C     0.68113   0.61218   0.39996   0.00000  Uiso   1.00
H2018  H     0.69313   0.59173   0.37176   0.00000  Uiso   1.00
H2019  H     0.70490   0.61654   0.42667   0.00000  Uiso   1.00
C2020  C     0.67221   0.65818   0.38037   0.00000  Uiso   1.00
H2021  H     0.65197   0.65548   0.35032   0.00000  Uiso   1.00
H2022  H     0.65620   0.67898   0.40555   0.00000  Uiso   1.00
C2023  C     0.71305   0.67995   0.36768   0.00000  Uiso   1.00
H2024  H     0.73559   0.67736   0.39587   0.00000  Uiso   1.00
H2025  H     0.70879   0.71568   0.36090   0.00000  Uiso   1.00
H2026  H     0.72634   0.66342   0.33737   0.00000  Uiso   1.00
O2027  O     0.65854   0.59763   0.58303   0.00000  Uiso   1.00
C2028  C     0.63765   0.56016   0.60123   0.00000  Uiso   1.00
H2029  H     0.65975   0.54218   0.62348   0.00000  Uiso   1.00
H2030  H     0.62786   0.53582   0.57467   0.00000  Uiso   1.00
C2031  C     0.60081   0.57445   0.62992   0.00000  Uiso   1.00
H2032  H     0.60826   0.60502   0.64933   0.00000  Uiso   1.00
H2033  H     0.57449   0.58179   0.60709   0.00000  Uiso   1.00
C2034  C     0.58865   0.53806   0.66367   0.00000  Uiso   1.00
H2035  H     0.58387   0.50617   0.64587   0.00000  Uiso   1.00
H2036  H     0.55982   0.54744   0.34770   0.00000  Uiso   1.00
H2037  H     0.61321   0.53324   0.35599   0.00000  Uiso   1.00
O2038  O     0.82536   0.88110   0.42301   0.00000  Uiso   1.00
C2039  C     0.79516   0.84739   0.42829   0.00000  Uiso   1.00
H2040  H     0.77318   0.85093   0.39985   0.00000  Uiso   1.00
H2041  H     0.77742   0.85188   0.46041   0.00000  Uiso   1.00
C2042  C     0.81241   0.79972   0.42561   0.00000  Uiso   1.00
H2043  H     0.83297   0.79631   0.39617   0.00000  Uiso   1.00
H2044  H     0.82992   0.79151   0.45689   0.00000  Uiso   1.00
C2045  C     0.77817   0.76608   0.42057   0.00000  Uiso   1.00
H2046  H     0.78978   0.73187   0.42671   0.00000  Uiso   1.00
H2047  H     0.76446   0.76827   0.38600   0.00000  Uiso   1.00
H2048  H     0.75478   0.77369   0.44624   0.00000  Uiso   1.00
O2049  O     0.04509   0.20491   0.87291   0.00000  Uiso   1.00
O2050  O     0.45492   0.29509   0.79375   0.00000  Uiso   1.00
O2051  O     0.45492   0.29509   0.87291   0.00000  Uiso   1.00
O2052  O     0.04509   0.20491   0.79375   0.00000  Uiso   1.00
O2053  O     0.45492   0.20491   0.79375   0.00000  Uiso   1.00
O2054  O     0.04509   0.29509   0.87291   0.00000  Uiso   1.00
O2055  O     0.04509   0.29509   0.79375   0.00000  Uiso   1.00
O2056  O     0.45492   0.20491   0.87291   0.00000  Uiso   1.00
O2057  O     0.29509   0.45491   0.87291   0.00000  Uiso   1.00
O2058  O     0.20492   0.04509   0.79375   0.00000  Uiso   1.00
O2059  O     0.20492   0.04509   0.87291   0.00000  Uiso   1.00
O2060  O     0.29509   0.45491   0.79375   0.00000  Uiso   1.00
O2061  O     0.20492   0.45491   0.79375   0.00000  Uiso   1.00
O2062  O     0.29509   0.04509   0.87291   0.00000  Uiso   1.00
O2063  O     0.29509   0.04509   0.79375   0.00000  Uiso   1.00
O2064  O     0.20492   0.45491   0.87291   0.00000  Uiso   1.00
C2065  C     0.05853   0.18991   0.83356   0.00000  Uiso   1.00
C2066  C     0.44053   0.30936   0.83329   0.00000  Uiso   1.00
C2067  C     0.44115   0.18985   0.83332   0.00000  Uiso   1.00
C2068  C     0.05775   0.31079   0.83313   0.00000  Uiso   1.00
C2069  C     0.30845   0.43981   0.83340   0.00000  Uiso   1.00
C2070  C     0.19048   0.05930   0.83326   0.00000  Uiso   1.00
C2071  C     0.18981   0.44141   0.83339   0.00000  Uiso   1.00
C2072  C     0.30857   0.05997   0.83329   0.00000  Uiso   1.00
N2073  N     0.00000   0.25000   0.95069   0.00000  Uiso   1.00
N2074  N     0.00000   0.25000   0.71598   0.00000  Uiso   1.00
N2075  N     0.25000   0.00000   0.95069   0.00000  Uiso   1.00
N2076  N     0.25000   0.00000   0.71598   0.00000  Uiso   1.00
Cu2077 Cu    0.00000   0.25000   0.88022   0.00000  Uiso   1.00
Cu2078 Cu    0.00000   0.25000   0.78645   0.00000  Uiso   1.00
Cu2079 Cu    0.25000   0.00000   0.88022   0.00000  Uiso   1.00
Cu2080 Cu    0.25000   0.00000   0.78645   0.00000  Uiso   1.00
C2081  C     0.49931   0.21101   0.69110   0.00000  Uiso   1.00
C2082  C     0.00300   0.28885   0.97562   0.00000  Uiso   1.00
C2083  C     0.00588   0.28842   0.69068   0.00000  Uiso   1.00
C2084  C     0.00195   0.21109   0.97602   0.00000  Uiso   1.00
C2085  C     0.24624   0.46128   0.69115   0.00000  Uiso   1.00
C2086  C     0.25399   0.03883   0.97547   0.00000  Uiso   1.00
C2087  C     0.25659   0.03834   0.69057   0.00000  Uiso   1.00
C2088  C     0.24820   0.46103   0.97606   0.00000  Uiso   1.00
C2089  C     0.39801   0.13062   0.79339   0.00000  Uiso   1.00
C2090  C     0.09421   0.37525   0.86821   0.00000  Uiso   1.00
C2091  C     0.11769   0.34895   0.79492   0.00000  Uiso   1.00
C2092  C     0.38565   0.14544   0.87308   0.00000  Uiso   1.00
C2093  C     0.11261   0.14472   0.87459   0.00000  Uiso   1.00
C2094  C     0.38625   0.35538   0.79256   0.00000  Uiso   1.00
C2095  C     0.39284   0.36225   0.87452   0.00000  Uiso   1.00
C2096  C     0.10115   0.13219   0.79450   0.00000  Uiso   1.00
C2097  C     0.14463   0.38558   0.79300   0.00000  Uiso   1.00
C2098  C     0.34927   0.12099   0.86992   0.00000  Uiso   1.00
C2099  C     0.37103   0.09399   0.79621   0.00000  Uiso   1.00
C2100  C     0.12921   0.40220   0.87154   0.00000  Uiso   1.00
C2101  C     0.36391   0.39688   0.87344   0.00000  Uiso   1.00
C2102  C     0.13667   0.10648   0.79251   0.00000  Uiso   1.00
C2103  C     0.14146   0.10997   0.87502   0.00000  Uiso   1.00
C2104  C     0.35046   0.38079   0.79428   0.00000  Uiso   1.00
C2105  C     0.09052   0.34494   0.83225   0.00000  Uiso   1.00
C2106  C     0.40844   0.15470   0.83328   0.00000  Uiso   1.00
C2107  C     0.40659   0.34291   0.83335   0.00000  Uiso   1.00
C2108  C     0.09119   0.15550   0.83427   0.00000  Uiso   1.00
C2109  C     0.34329   0.09177   0.83318   0.00000  Uiso   1.00
C2110  C     0.15449   0.40928   0.83302   0.00000  Uiso   1.00
C2111  C     0.15634   0.09259   0.83339   0.00000  Uiso   1.00
C2112  C     0.34105   0.40534   0.83367   0.00000  Uiso   1.00
O2113  O     0.49804   0.16975   0.71154   0.00000  Uiso   1.00
H2114  H     0.49896   0.17348   0.74451   0.00000  Uiso   1.00
O2115  O     0.00487   0.33005   0.95517   0.00000  Uiso   1.00
H2116  H     0.49851   0.32654   0.92290   0.00000  Uiso   1.00
O2117  O     0.01657   0.32800   0.71074   0.00000  Uiso   1.00
H2118  H     0.00603   0.32744   0.74193   0.00000  Uiso   1.00
O2119  O     0.00909   0.17047   0.95621   0.00000  Uiso   1.00
H2120  H     0.00385   0.17337   0.92359   0.00000  Uiso   1.00
O2121  O     0.24172   0.42053   0.71186   0.00000  Uiso   1.00
H2122  H     0.24910   0.42357   0.74396   0.00000  Uiso   1.00
O2123  O     0.25745   0.07995   0.95483   0.00000  Uiso   1.00
H2124  H     0.24884   0.07742   0.92303   0.00000  Uiso   1.00
O2125  O     0.26712   0.07798   0.71056   0.00000  Uiso   1.00
H2126  H     0.25655   0.07723   0.74167   0.00000  Uiso   1.00
O2127  O     0.25201   0.41975   0.95644   0.00000  Uiso   1.00
H2128  H     0.25243   0.42334   0.92335   0.00000  Uiso   1.00
O2129  O     0.41380   0.14191   0.75128   0.00000  Uiso   1.00
C2130  C     0.38998   0.17676   0.73184   0.00000  Uiso   1.00
H2131  H     0.40690   0.18930   0.70158   0.00000  Uiso   1.00
H2132  H     0.38696   0.20581   0.75508   0.00000  Uiso   1.00
C2133  C     0.34696   0.16127   0.71734   0.00000  Uiso   1.00
H2134  H     0.34752   0.12633   0.70563   0.00000  Uiso   1.00
H2135  H     0.32598   0.16271   0.74709   0.00000  Uiso   1.00
C2136  C     0.33006   0.19048   0.67916   0.00000  Uiso   1.00
H2137  H     0.33027   0.22587   0.68958   0.00000  Uiso   1.00
H2138  H     0.29840   0.18019   0.67076   0.00000  Uiso   1.00
H2139  H     0.34915   0.18701   0.98163   0.00000  Uiso   1.00
O2140  O     0.06447   0.37731   0.90157   0.00000  Uiso   1.00
C2141  C     0.03594   0.41123   0.89020   0.00000  Uiso   1.00
H2142  H     0.00472   0.39822   0.89693   0.00000  Uiso   1.00
H2143  H     0.03605   0.42136   0.85348   0.00000  Uiso   1.00
C2144  C     0.04327   0.45189   0.92024   0.00000  Uiso   1.00
H2145  H     0.04800   0.44055   0.95590   0.00000  Uiso   1.00
H2146  H     0.07102   0.46982   0.90820   0.00000  Uiso   1.00
C2147  C     0.00725   0.48396   0.91946   0.00000  Uiso   1.00
H2148  H     0.00053   0.49466   0.88419   0.00000  Uiso   1.00
H2149  H     0.01453   0.01386   0.94005   0.00000  Uiso   1.00
H2150  H     0.47991   0.46753   0.93413   0.00000  Uiso   1.00
O2151  O     0.11610   0.32046   0.75782   0.00000  Uiso   1.00
C2152  C     0.12798   0.27669   0.77066   0.00000  Uiso   1.00
H2153  H     0.11732   0.25342   0.74381   0.00000  Uiso   1.00
H2154  H     0.11358   0.26492   0.80267   0.00000  Uiso   1.00
C2155  C     0.17419   0.27226   0.77534   0.00000  Uiso   1.00
H2156  H     0.18770   0.26807   0.74114   0.00000  Uiso   1.00
H2157  H     0.18763   0.30305   0.79005   0.00000  Uiso   1.00
C2158  C     0.18498   0.23274   0.80631   0.00000  Uiso   1.00
H2159  H     0.19109   0.24563   0.84081   0.00000  Uiso   1.00
H2160  H     0.21225   0.21494   0.79365   0.00000  Uiso   1.00
H2161  H     0.15998   0.20787   0.80904   0.00000  Uiso   1.00
O2162  O     0.39365   0.16661   0.91361   0.00000  Uiso   1.00
C2163  C     0.42351   0.14218   0.93776   0.00000  Uiso   1.00
H2164  H     0.43430   0.16419   0.96529   0.00000  Uiso   1.00
H2165  H     0.44967   0.13256   0.91572   0.00000  Uiso   1.00
C2166  C     0.40673   0.09978   0.95933   0.00000  Uiso   1.00
H2167  H     0.37694   0.10649   0.97556   0.00000  Uiso   1.00
H2168  H     0.40200   0.07516   0.93186   0.00000  Uiso   1.00
C2169  C     0.43691   0.08084   0.99414   0.00000  Uiso   1.00
H2170  H     0.46390   0.06658   0.97654   0.00000  Uiso   1.00
H2171  H     0.42169   0.05448   0.68112   0.00000  Uiso   1.00
H2172  H     0.44766   0.10685   0.68455   0.00000  Uiso   1.00
O2173  O     0.10439   0.16626   0.91499   0.00000  Uiso   1.00
C2174  C     0.12682   0.20657   0.91628   0.00000  Uiso   1.00
H2175  H     0.11453   0.22602   0.94533   0.00000  Uiso   1.00
H2176  H     0.12209   0.22758   0.88529   0.00000  Uiso   1.00
C2177  C     0.17262   0.19792   0.92341   0.00000  Uiso   1.00
H2178  H     0.17667   0.17071   0.94836   0.00000  Uiso   1.00
H2179  H     0.18744   0.18719   0.89133   0.00000  Uiso   1.00
C2180  C     0.19377   0.23901   0.94129   0.00000  Uiso   1.00
H2181  H     0.19442   0.26608   0.91541   0.00000  Uiso   1.00
H2182  H     0.22518   0.23044   0.95221   0.00000  Uiso   1.00
H2183  H     0.17690   0.25017   0.97154   0.00000  Uiso   1.00
O2184  O     0.39682   0.33806   0.75083   0.00000  Uiso   1.00
C2185  C     0.43072   0.36156   0.73326   0.00000  Uiso   1.00
H2186  H     0.44441   0.33915   0.70798   0.00000  Uiso   1.00
H2187  H     0.45363   0.37031   0.75994   0.00000  Uiso   1.00
C2188  C     0.41920   0.40340   0.70710   0.00000  Uiso   1.00
H2189  H     0.40163   0.39327   0.67680   0.00000  Uiso   1.00
H2190  H     0.40019   0.42572   0.72825   0.00000  Uiso   1.00
C2191  C     0.45807   0.42773   0.69192   0.00000  Uiso   1.00
H2192  H     0.47722   0.43522   0.72198   0.00000  Uiso   1.00
H2193  H     0.45133   0.46009   0.67561   0.00000  Uiso   1.00
H2194  H     0.47541   0.40699   0.66740   0.00000  Uiso   1.00
O2195  O     0.40757   0.34804   0.91632   0.00000  Uiso   1.00
C2196  C     0.38242   0.31263   0.93243   0.00000  Uiso   1.00
H2197  H     0.40268   0.28714   0.94825   0.00000  Uiso   1.00
H2198  H     0.36593   0.29435   0.90479   0.00000  Uiso   1.00
C2199  C     0.35271   0.32934   0.96909   0.00000  Uiso   1.00
H2200  H     0.36492   0.31965   0.66947   0.00000  Uiso   1.00
H2201  H     0.35038   0.36603   0.96876   0.00000  Uiso   1.00
C2202  C     0.30952   0.31115   0.96320   0.00000  Uiso   1.00
H2203  H     0.29662   0.32305   0.93031   0.00000  Uiso   1.00
H2204  H     0.28965   0.32349   0.99098   0.00000  Uiso   1.00
H2205  H     0.30971   0.27425   0.96427   0.00000  Uiso   1.00
O2206  O     0.07393   0.12871   0.75863   0.00000  Uiso   1.00
C2207  C     0.04286   0.09739   0.77045   0.00000  Uiso   1.00
H2208  H     0.02356   0.09229   0.73977   0.00000  Uiso   1.00
H2209  H     0.02249   0.11128   0.79723   0.00000  Uiso   1.00
C2210  C     0.05935   0.05139   0.78597   0.00000  Uiso   1.00
H2211  H     0.08179   0.03845   0.76114   0.00000  Uiso   1.00
H2212  H     0.07435   0.05398   0.81984   0.00000  Uiso   1.00
C2213  C     0.02514   0.01812   0.79117   0.00000  Uiso   1.00
H2214  H     0.03756   0.48596   0.80379   0.00000  Uiso   1.00
H2215  H     0.00993   0.01291   0.75779   0.00000  Uiso   1.00
H2216  H     0.00303   0.03103   0.81639   0.00000  Uiso   1.00
O2217  O     0.16243   0.39670   0.75195   0.00000  Uiso   1.00
C2218  C     0.14092   0.43318   0.73236   0.00000  Uiso   1.00
H2219  H     0.16223   0.45084   0.70900   0.00000  Uiso   1.00
H2220  H     0.13162   0.45891   0.75771   0.00000  Uiso   1.00
C2221  C     0.10450   0.41694   0.70416   0.00000  Uiso   1.00
H2222  H     0.10627   0.43121   0.66925   0.00000  Uiso   1.00
H2223  H     0.10511   0.38027   0.70156   0.00000  Uiso   1.00
C2224  C     0.06381   0.42949   0.72497   0.00000  Uiso   1.00
H2225  H     0.06188   0.41848   0.76111   0.00000  Uiso   1.00
H2226  H     0.03975   0.41239   0.70530   0.00000  Uiso   1.00
H2227  H     0.05925   0.46596   0.72227   0.00000  Uiso   1.00
O2228  O     0.31927   0.12819   0.90228   0.00000  Uiso   1.00
C2229  C     0.29226   0.16205   0.88633   0.00000  Uiso   1.00
H2230  H     0.26793   0.16606   0.91240   0.00000  Uiso   1.00
H2231  H     0.27668   0.15146   0.85437   0.00000  Uiso   1.00
C2232  C     0.31348   0.20781   0.87909   0.00000  Uiso   1.00
H2233  H     0.33202   0.21656   0.90936   0.00000  Uiso   1.00
H2234  H     0.33361   0.20654   0.84865   0.00000  Uiso   1.00
C2235  C     0.28328   0.24509   0.87042   0.00000  Uiso   1.00
H2236  H     0.26090   0.23438   0.84477   0.00000  Uiso   1.00
H2237  H     0.29955   0.27538   0.85833   0.00000  Uiso   1.00
H2238  H     0.26738   0.25397   0.90195   0.00000  Uiso   1.00
O2239  O     0.36885   0.06495   0.75952   0.00000  Uiso   1.00
C2240  C     0.37857   0.02079   0.77342   0.00000  Uiso   1.00
H2241  H     0.36398   0.49740   0.74908   0.00000  Uiso   1.00
H2242  H     0.36626   0.01173   0.80744   0.00000  Uiso   1.00
C2243  C     0.42462   0.01267   0.77315   0.00000  Uiso   1.00
H2244  H     0.43459   0.00488   0.73812   0.00000  Uiso   1.00
H2245  H     0.44080   0.04338   0.78399   0.00000  Uiso   1.00
C2246  C     0.43598   0.47409   0.80513   0.00000  Uiso   1.00
H2247  H     0.43902   0.48698   0.84021   0.00000  Uiso   1.00
H2248  H     0.46536   0.45871   0.79533   0.00000  Uiso   1.00
H2249  H     0.41258   0.44744   0.80455   0.00000  Uiso   1.00
O2250  O     0.13714   0.42212   0.91269   0.00000  Uiso   1.00
C2251  C     0.16550   0.39552   0.93693   0.00000  Uiso   1.00
H2252  H     0.17594   0.41608   0.96592   0.00000  Uiso   1.00
H2253  H     0.19251   0.38669   0.91590   0.00000  Uiso   1.00
C2254  C     0.14749   0.35175   0.95518   0.00000  Uiso   1.00
H2255  H     0.11567   0.35660   0.96673   0.00000  Uiso   1.00
H2256  H     0.14642   0.32662   0.92755   0.00000  Uiso   1.00
C2257  C     0.17402   0.33390   0.99395   0.00000  Uiso   1.00
H2258  H     0.20348   0.32125   0.98050   0.00000  Uiso   1.00
H2259  H     0.15716   0.30742   0.67920   0.00000  Uiso   1.00
H2260  H     0.18182   0.36025   0.68501   0.00000  Uiso   1.00
O2261  O     0.35826   0.42231   0.91191   0.00000  Uiso   1.00
C2262  C     0.38602   0.45827   0.90964   0.00000  Uiso   1.00
H2263  H     0.37717   0.48212   0.88222   0.00000  Uiso   1.00
H2264  H     0.41769   0.44608   0.90341   0.00000  Uiso   1.00
C2265  C     0.38683   0.48263   0.95477   0.00000  Uiso   1.00
H2266  H     0.38885   0.45828   0.98242   0.00000  Uiso   1.00
H2267  H     0.41408   0.00433   0.95547   0.00000  Uiso   1.00
C2268  C     0.34843   0.00900   0.96376   0.00000  Uiso   1.00
H2269  H     0.34263   0.03342   0.93618   0.00000  Uiso   1.00
H2270  H     0.35105   0.02685   0.99667   0.00000  Uiso   1.00
H2271  H     0.32311   0.48501   0.96639   0.00000  Uiso   1.00
O2272  O     0.14661   0.08945   0.75041   0.00000  Uiso   1.00
C2273  C     0.18113   0.11218   0.73330   0.00000  Uiso   1.00
H2274  H     0.19313   0.09173   0.70510   0.00000  Uiso   1.00
H2275  H     0.20490   0.11654   0.76000   0.00000  Uiso   1.00
C2276  C     0.17221   0.15818   0.71371   0.00000  Uiso   1.00
H2277  H     0.15197   0.15548   0.68365   0.00000  Uiso   1.00
H2278  H     0.15620   0.17898   0.73888   0.00000  Uiso   1.00
C2279  C     0.21305   0.17995   0.70101   0.00000  Uiso   1.00
H2280  H     0.23559   0.17736   0.72920   0.00000  Uiso   1.00
H2281  H     0.20879   0.21568   0.69424   0.00000  Uiso   1.00
H2282  H     0.22634   0.16342   0.67071   0.00000  Uiso   1.00
O2283  O     0.15854   0.09763   0.91636   0.00000  Uiso   1.00
C2284  C     0.13765   0.06016   0.93456   0.00000  Uiso   1.00
H2285  H     0.15975   0.04218   0.95682   0.00000  Uiso   1.00
H2286  H     0.12786   0.03582   0.90800   0.00000  Uiso   1.00
C2287  C     0.10081   0.07445   0.96325   0.00000  Uiso   1.00
H2288  H     0.10826   0.10502   0.98266   0.00000  Uiso   1.00
H2289  H     0.07449   0.08179   0.94042   0.00000  Uiso   1.00
C2290  C     0.08865   0.03806   0.99701   0.00000  Uiso   1.00
H2291  H     0.08387   0.00617   0.97921   0.00000  Uiso   1.00
H2292  H     0.05982   0.04744   0.68103   0.00000  Uiso   1.00
H2293  H     0.11321   0.03324   0.68933   0.00000  Uiso   1.00
O2294  O     0.32536   0.38110   0.75634   0.00000  Uiso   1.00
C2295  C     0.29516   0.34739   0.76163   0.00000  Uiso   1.00
H2296  H     0.27318   0.35093   0.73319   0.00000  Uiso   1.00
H2297  H     0.27742   0.35188   0.79374   0.00000  Uiso   1.00
C2298  C     0.31241   0.29972   0.75894   0.00000  Uiso   1.00
H2299  H     0.33297   0.29631   0.72950   0.00000  Uiso   1.00
H2300  H     0.32992   0.29151   0.79022   0.00000  Uiso   1.00
C2301  C     0.27817   0.26608   0.75391   0.00000  Uiso   1.00
H2302  H     0.28978   0.23187   0.76005   0.00000  Uiso   1.00
H2303  H     0.26446   0.26827   0.71934   0.00000  Uiso   1.00
H2304  H     0.25478   0.27369   0.77957   0.00000  Uiso   1.00
O2305  O     0.54509   0.20491   0.87291   0.00000  Uiso   1.00
O2306  O     0.95492   0.29509   0.79375   0.00000  Uiso   1.00
O2307  O     0.95492   0.29509   0.87291   0.00000  Uiso   1.00
O2308  O     0.54509   0.20491   0.79375   0.00000  Uiso   1.00
O2309  O     0.95492   0.20491   0.79375   0.00000  Uiso   1.00
O2310  O     0.54509   0.29509   0.87291   0.00000  Uiso   1.00
O2311  O     0.54509   0.29509   0.79375   0.00000  Uiso   1.00
O2312  O     0.95492   0.20491   0.87291   0.00000  Uiso   1.00
O2313  O     0.79509   0.45491   0.87291   0.00000  Uiso   1.00
O2314  O     0.70492   0.04509   0.79375   0.00000  Uiso   1.00
O2315  O     0.70492   0.04509   0.87291   0.00000  Uiso   1.00
O2316  O     0.79509   0.45491   0.79375   0.00000  Uiso   1.00
O2317  O     0.70492   0.45491   0.79375   0.00000  Uiso   1.00
O2318  O     0.79509   0.04509   0.87291   0.00000  Uiso   1.00
O2319  O     0.79509   0.04509   0.79375   0.00000  Uiso   1.00
O2320  O     0.70492   0.45491   0.87291   0.00000  Uiso   1.00
C2321  C     0.55853   0.18991   0.83356   0.00000  Uiso   1.00
C2322  C     0.94053   0.30936   0.83329   0.00000  Uiso   1.00
C2323  C     0.94115   0.18985   0.83332   0.00000  Uiso   1.00
C2324  C     0.55775   0.31079   0.83313   0.00000  Uiso   1.00
C2325  C     0.80845   0.43981   0.83340   0.00000  Uiso   1.00
C2326  C     0.69048   0.05930   0.83326   0.00000  Uiso   1.00
C2327  C     0.68981   0.44141   0.83339   0.00000  Uiso   1.00
C2328  C     0.80857   0.05997   0.83329   0.00000  Uiso   1.00
N2329  N     0.50000   0.25000   0.95069   0.00000  Uiso   1.00
N2330  N     0.50000   0.25000   0.71598   0.00000  Uiso   1.00
N2331  N     0.75000   0.00000   0.95069   0.00000  Uiso   1.00
N2332  N     0.75000   0.00000   0.71598   0.00000  Uiso   1.00
Cu2333 Cu    0.50000   0.25000   0.88022   0.00000  Uiso   1.00
Cu2334 Cu    0.50000   0.25000   0.78645   0.00000  Uiso   1.00
Cu2335 Cu    0.75000   0.00000   0.88022   0.00000  Uiso   1.00
Cu2336 Cu    0.75000   0.00000   0.78645   0.00000  Uiso   1.00
C2337  C     0.99931   0.21101   0.69110   0.00000  Uiso   1.00
C2338  C     0.50300   0.28885   0.97562   0.00000  Uiso   1.00
C2339  C     0.50588   0.28842   0.69068   0.00000  Uiso   1.00
C2340  C     0.50195   0.21109   0.97602   0.00000  Uiso   1.00
C2341  C     0.74624   0.46128   0.69115   0.00000  Uiso   1.00
C2342  C     0.75399   0.03883   0.97547   0.00000  Uiso   1.00
C2343  C     0.75659   0.03834   0.69057   0.00000  Uiso   1.00
C2344  C     0.74820   0.46103   0.97606   0.00000  Uiso   1.00
C2345  C     0.89801   0.13062   0.79339   0.00000  Uiso   1.00
C2346  C     0.59421   0.37525   0.86821   0.00000  Uiso   1.00
C2347  C     0.61769   0.34895   0.79492   0.00000  Uiso   1.00
C2348  C     0.88565   0.14544   0.87308   0.00000  Uiso   1.00
C2349  C     0.61261   0.14472   0.87459   0.00000  Uiso   1.00
C2350  C     0.88625   0.35538   0.79256   0.00000  Uiso   1.00
C2351  C     0.89284   0.36225   0.87452   0.00000  Uiso   1.00
C2352  C     0.60115   0.13219   0.79450   0.00000  Uiso   1.00
C2353  C     0.64463   0.38558   0.79300   0.00000  Uiso   1.00
C2354  C     0.84927   0.12099   0.86992   0.00000  Uiso   1.00
C2355  C     0.87103   0.09399   0.79621   0.00000  Uiso   1.00
C2356  C     0.62921   0.40220   0.87154   0.00000  Uiso   1.00
C2357  C     0.86391   0.39688   0.87344   0.00000  Uiso   1.00
C2358  C     0.63667   0.10648   0.79251   0.00000  Uiso   1.00
C2359  C     0.64146   0.10997   0.87502   0.00000  Uiso   1.00
C2360  C     0.85046   0.38079   0.79428   0.00000  Uiso   1.00
C2361  C     0.59052   0.34494   0.83225   0.00000  Uiso   1.00
C2362  C     0.90844   0.15470   0.83328   0.00000  Uiso   1.00
C2363  C     0.90659   0.34291   0.83335   0.00000  Uiso   1.00
C2364  C     0.59119   0.15550   0.83427   0.00000  Uiso   1.00
C2365  C     0.84329   0.09177   0.83318   0.00000  Uiso   1.00
C2366  C     0.65449   0.40928   0.83302   0.00000  Uiso   1.00
C2367  C     0.65634   0.09259   0.83339   0.00000  Uiso   1.00
C2368  C     0.84105   0.40534   0.83367   0.00000  Uiso   1.00
O2369  O     0.99804   0.16975   0.71154   0.00000  Uiso   1.00
H2370  H     0.99896   0.17348   0.74451   0.00000  Uiso   1.00
O2371  O     0.50487   0.33005   0.95517   0.00000  Uiso   1.00
H2372  H     0.99851   0.32654   0.92290   0.00000  Uiso   1.00
O2373  O     0.51657   0.32800   0.71074   0.00000  Uiso   1.00
H2374  H     0.50603   0.32744   0.74193   0.00000  Uiso   1.00
O2375  O     0.50909   0.17047   0.95621   0.00000  Uiso   1.00
H2376  H     0.50385   0.17337   0.92359   0.00000  Uiso   1.00
O2377  O     0.74172   0.42053   0.71186   0.00000  Uiso   1.00
H2378  H     0.74910   0.42357   0.74396   0.00000  Uiso   1.00
O2379  O     0.75745   0.07995   0.95483   0.00000  Uiso   1.00
H2380  H     0.74884   0.07742   0.92303   0.00000  Uiso   1.00
O2381  O     0.76712   0.07798   0.71056   0.00000  Uiso   1.00
H2382  H     0.75655   0.07723   0.74167   0.00000  Uiso   1.00
O2383  O     0.75201   0.41975   0.95644   0.00000  Uiso   1.00
H2384  H     0.75243   0.42334   0.92335   0.00000  Uiso   1.00
O2385  O     0.91380   0.14191   0.75128   0.00000  Uiso   1.00
C2386  C     0.88998   0.17676   0.73184   0.00000  Uiso   1.00
H2387  H     0.90690   0.18930   0.70158   0.00000  Uiso   1.00
H2388  H     0.88696   0.20581   0.75508   0.00000  Uiso   1.00
C2389  C     0.84696   0.16127   0.71734   0.00000  Uiso   1.00
H2390  H     0.84752   0.12633   0.70563   0.00000  Uiso   1.00
H2391  H     0.82598   0.16271   0.74709   0.00000  Uiso   1.00
C2392  C     0.83006   0.19048   0.67916   0.00000  Uiso   1.00
H2393  H     0.83027   0.22587   0.68958   0.00000  Uiso   1.00
H2394  H     0.79840   0.18019   0.67076   0.00000  Uiso   1.00
H2395  H     0.84915   0.18701   0.98163   0.00000  Uiso   1.00
O2396  O     0.56447   0.37731   0.90157   0.00000  Uiso   1.00
C2397  C     0.53594   0.41123   0.89020   0.00000  Uiso   1.00
H2398  H     0.50472   0.39822   0.89693   0.00000  Uiso   1.00
H2399  H     0.53605   0.42136   0.85348   0.00000  Uiso   1.00
C2400  C     0.54327   0.45189   0.92024   0.00000  Uiso   1.00
H2401  H     0.54800   0.44055   0.95590   0.00000  Uiso   1.00
H2402  H     0.57102   0.46982   0.90820   0.00000  Uiso   1.00
C2403  C     0.50725   0.48396   0.91946   0.00000  Uiso   1.00
H2404  H     0.50053   0.49466   0.88419   0.00000  Uiso   1.00
H2405  H     0.51453   0.01386   0.94005   0.00000  Uiso   1.00
H2406  H     0.97991   0.46753   0.93413   0.00000  Uiso   1.00
O2407  O     0.61610   0.32046   0.75782   0.00000  Uiso   1.00
C2408  C     0.62798   0.27669   0.77066   0.00000  Uiso   1.00
H2409  H     0.61732   0.25342   0.74381   0.00000  Uiso   1.00
H2410  H     0.61358   0.26492   0.80267   0.00000  Uiso   1.00
C2411  C     0.67419   0.27226   0.77534   0.00000  Uiso   1.00
H2412  H     0.68770   0.26807   0.74114   0.00000  Uiso   1.00
H2413  H     0.68763   0.30305   0.79005   0.00000  Uiso   1.00
C2414  C     0.68498   0.23274   0.80631   0.00000  Uiso   1.00
H2415  H     0.69109   0.24563   0.84081   0.00000  Uiso   1.00
H2416  H     0.71225   0.21494   0.79365   0.00000  Uiso   1.00
H2417  H     0.65998   0.20787   0.80904   0.00000  Uiso   1.00
O2418  O     0.89365   0.16661   0.91361   0.00000  Uiso   1.00
C2419  C     0.92351   0.14218   0.93776   0.00000  Uiso   1.00
H2420  H     0.93430   0.16419   0.96529   0.00000  Uiso   1.00
H2421  H     0.94967   0.13256   0.91572   0.00000  Uiso   1.00
C2422  C     0.90673   0.09978   0.95933   0.00000  Uiso   1.00
H2423  H     0.87694   0.10649   0.97556   0.00000  Uiso   1.00
H2424  H     0.90200   0.07516   0.93186   0.00000  Uiso   1.00
C2425  C     0.93691   0.08084   0.99414   0.00000  Uiso   1.00
H2426  H     0.96390   0.06658   0.97654   0.00000  Uiso   1.00
H2427  H     0.92169   0.05448   0.68112   0.00000  Uiso   1.00
H2428  H     0.94766   0.10685   0.68455   0.00000  Uiso   1.00
O2429  O     0.60439   0.16626   0.91499   0.00000  Uiso   1.00
C2430  C     0.62682   0.20657   0.91628   0.00000  Uiso   1.00
H2431  H     0.61453   0.22602   0.94533   0.00000  Uiso   1.00
H2432  H     0.62209   0.22758   0.88529   0.00000  Uiso   1.00
C2433  C     0.67262   0.19792   0.92341   0.00000  Uiso   1.00
H2434  H     0.67667   0.17071   0.94836   0.00000  Uiso   1.00
H2435  H     0.68744   0.18719   0.89133   0.00000  Uiso   1.00
C2436  C     0.69377   0.23901   0.94129   0.00000  Uiso   1.00
H2437  H     0.69442   0.26608   0.91541   0.00000  Uiso   1.00
H2438  H     0.72518   0.23044   0.95221   0.00000  Uiso   1.00
H2439  H     0.67690   0.25017   0.97154   0.00000  Uiso   1.00
O2440  O     0.89682   0.33806   0.75083   0.00000  Uiso   1.00
C2441  C     0.93072   0.36156   0.73326   0.00000  Uiso   1.00
H2442  H     0.94441   0.33915   0.70798   0.00000  Uiso   1.00
H2443  H     0.95363   0.37031   0.75994   0.00000  Uiso   1.00
C2444  C     0.91920   0.40340   0.70710   0.00000  Uiso   1.00
H2445  H     0.90163   0.39327   0.67680   0.00000  Uiso   1.00
H2446  H     0.90019   0.42572   0.72825   0.00000  Uiso   1.00
C2447  C     0.95807   0.42773   0.69192   0.00000  Uiso   1.00
H2448  H     0.97722   0.43522   0.72198   0.00000  Uiso   1.00
H2449  H     0.95133   0.46009   0.67561   0.00000  Uiso   1.00
H2450  H     0.97541   0.40699   0.66740   0.00000  Uiso   1.00
O2451  O     0.90757   0.34804   0.91632   0.00000  Uiso   1.00
C2452  C     0.88242   0.31263   0.93243   0.00000  Uiso   1.00
H2453  H     0.90268   0.28714   0.94825   0.00000  Uiso   1.00
H2454  H     0.86593   0.29435   0.90479   0.00000  Uiso   1.00
C2455  C     0.85271   0.32934   0.96909   0.00000  Uiso   1.00
H2456  H     0.86492   0.31965   0.66947   0.00000  Uiso   1.00
H2457  H     0.85038   0.36603   0.96876   0.00000  Uiso   1.00
C2458  C     0.80952   0.31115   0.96320   0.00000  Uiso   1.00
H2459  H     0.79662   0.32305   0.93031   0.00000  Uiso   1.00
H2460  H     0.78965   0.32349   0.99098   0.00000  Uiso   1.00
H2461  H     0.80971   0.27425   0.96427   0.00000  Uiso   1.00
O2462  O     0.57393   0.12871   0.75863   0.00000  Uiso   1.00
C2463  C     0.54286   0.09739   0.77045   0.00000  Uiso   1.00
H2464  H     0.52356   0.09229   0.73977   0.00000  Uiso   1.00
H2465  H     0.52249   0.11128   0.79723   0.00000  Uiso   1.00
C2466  C     0.55935   0.05139   0.78597   0.00000  Uiso   1.00
H2467  H     0.58179   0.03845   0.76114   0.00000  Uiso   1.00
H2468  H     0.57435   0.05398   0.81984   0.00000  Uiso   1.00
C2469  C     0.52514   0.01812   0.79117   0.00000  Uiso   1.00
H2470  H     0.53756   0.48596   0.80379   0.00000  Uiso   1.00
H2471  H     0.50993   0.01291   0.75779   0.00000  Uiso   1.00
H2472  H     0.50303   0.03103   0.81639   0.00000  Uiso   1.00
O2473  O     0.66243   0.39670   0.75195   0.00000  Uiso   1.00
C2474  C     0.64092   0.43318   0.73236   0.00000  Uiso   1.00
H2475  H     0.66223   0.45084   0.70900   0.00000  Uiso   1.00
H2476  H     0.63162   0.45891   0.75771   0.00000  Uiso   1.00
C2477  C     0.60450   0.41694   0.70416   0.00000  Uiso   1.00
H2478  H     0.60627   0.43121   0.66925   0.00000  Uiso   1.00
H2479  H     0.60511   0.38027   0.70156   0.00000  Uiso   1.00
C2480  C     0.56381   0.42949   0.72497   0.00000  Uiso   1.00
H2481  H     0.56188   0.41848   0.76111   0.00000  Uiso   1.00
H2482  H     0.53975   0.41239   0.70530   0.00000  Uiso   1.00
H2483  H     0.55925   0.46596   0.72227   0.00000  Uiso   1.00
O2484  O     0.81927   0.12819   0.90228   0.00000  Uiso   1.00
C2485  C     0.79226   0.16205   0.88633   0.00000  Uiso   1.00
H2486  H     0.76793   0.16606   0.91240   0.00000  Uiso   1.00
H2487  H     0.77668   0.15146   0.85437   0.00000  Uiso   1.00
C2488  C     0.81348   0.20781   0.87909   0.00000  Uiso   1.00
H2489  H     0.83202   0.21656   0.90936   0.00000  Uiso   1.00
H2490  H     0.83361   0.20654   0.84865   0.00000  Uiso   1.00
C2491  C     0.78328   0.24509   0.87042   0.00000  Uiso   1.00
H2492  H     0.76090   0.23438   0.84477   0.00000  Uiso   1.00
H2493  H     0.79955   0.27538   0.85833   0.00000  Uiso   1.00
H2494  H     0.76738   0.25397   0.90195   0.00000  Uiso   1.00
O2495  O     0.86885   0.06495   0.75952   0.00000  Uiso   1.00
C2496  C     0.87857   0.02079   0.77342   0.00000  Uiso   1.00
H2497  H     0.86398   0.49740   0.74908   0.00000  Uiso   1.00
H2498  H     0.86626   0.01173   0.80744   0.00000  Uiso   1.00
C2499  C     0.92462   0.01267   0.77315   0.00000  Uiso   1.00
H2500  H     0.93459   0.00488   0.73812   0.00000  Uiso   1.00
H2501  H     0.94080   0.04338   0.78399   0.00000  Uiso   1.00
C2502  C     0.93598   0.47409   0.80513   0.00000  Uiso   1.00
H2503  H     0.93902   0.48698   0.84021   0.00000  Uiso   1.00
H2504  H     0.96536   0.45871   0.79533   0.00000  Uiso   1.00
H2505  H     0.91258   0.44744   0.80455   0.00000  Uiso   1.00
O2506  O     0.63714   0.42212   0.91269   0.00000  Uiso   1.00
C2507  C     0.66550   0.39552   0.93693   0.00000  Uiso   1.00
H2508  H     0.67594   0.41608   0.96592   0.00000  Uiso   1.00
H2509  H     0.69251   0.38669   0.91590   0.00000  Uiso   1.00
C2510  C     0.64749   0.35175   0.95518   0.00000  Uiso   1.00
H2511  H     0.61567   0.35660   0.96673   0.00000  Uiso   1.00
H2512  H     0.64642   0.32662   0.92755   0.00000  Uiso   1.00
C2513  C     0.67402   0.33390   0.99395   0.00000  Uiso   1.00
H2514  H     0.70348   0.32125   0.98050   0.00000  Uiso   1.00
H2515  H     0.65716   0.30742   0.67920   0.00000  Uiso   1.00
H2516  H     0.68182   0.36025   0.68501   0.00000  Uiso   1.00
O2517  O     0.85826   0.42231   0.91191   0.00000  Uiso   1.00
C2518  C     0.88602   0.45827   0.90964   0.00000  Uiso   1.00
H2519  H     0.87717   0.48212   0.88222   0.00000  Uiso   1.00
H2520  H     0.91769   0.44608   0.90341   0.00000  Uiso   1.00
C2521  C     0.88683   0.48263   0.95477   0.00000  Uiso   1.00
H2522  H     0.88885   0.45828   0.98242   0.00000  Uiso   1.00
H2523  H     0.91408   0.00433   0.95547   0.00000  Uiso   1.00
C2524  C     0.84843   0.00900   0.96376   0.00000  Uiso   1.00
H2525  H     0.84263   0.03342   0.93618   0.00000  Uiso   1.00
H2526  H     0.85105   0.02685   0.99667   0.00000  Uiso   1.00
H2527  H     0.82311   0.48501   0.96639   0.00000  Uiso   1.00
O2528  O     0.64661   0.08945   0.75041   0.00000  Uiso   1.00
C2529  C     0.68113   0.11218   0.73330   0.00000  Uiso   1.00
H2530  H     0.69313   0.09173   0.70510   0.00000  Uiso   1.00
H2531  H     0.70490   0.11654   0.76000   0.00000  Uiso   1.00
C2532  C     0.67221   0.15818   0.71371   0.00000  Uiso   1.00
H2533  H     0.65197   0.15548   0.68365   0.00000  Uiso   1.00
H2534  H     0.65620   0.17898   0.73888   0.00000  Uiso   1.00
C2535  C     0.71305   0.17995   0.70101   0.00000  Uiso   1.00
H2536  H     0.73559   0.17736   0.72920   0.00000  Uiso   1.00
H2537  H     0.70879   0.21568   0.69424   0.00000  Uiso   1.00
H2538  H     0.72634   0.16342   0.67071   0.00000  Uiso   1.00
O2539  O     0.65854   0.09763   0.91636   0.00000  Uiso   1.00
C2540  C     0.63765   0.06016   0.93456   0.00000  Uiso   1.00
H2541  H     0.65975   0.04218   0.95682   0.00000  Uiso   1.00
H2542  H     0.62786   0.03582   0.90800   0.00000  Uiso   1.00
C2543  C     0.60081   0.07445   0.96325   0.00000  Uiso   1.00
H2544  H     0.60826   0.10502   0.98266   0.00000  Uiso   1.00
H2545  H     0.57449   0.08179   0.94042   0.00000  Uiso   1.00
C2546  C     0.58865   0.03806   0.99701   0.00000  Uiso   1.00
H2547  H     0.58387   0.00617   0.97921   0.00000  Uiso   1.00
H2548  H     0.55982   0.04744   0.68103   0.00000  Uiso   1.00
H2549  H     0.61321   0.03324   0.68933   0.00000  Uiso   1.00
O2550  O     0.82536   0.38110   0.75634   0.00000  Uiso   1.00
C2551  C     0.79516   0.34739   0.76163   0.00000  Uiso   1.00
H2552  H     0.77318   0.35093   0.73319   0.00000  Uiso   1.00
H2553  H     0.77742   0.35188   0.79374   0.00000  Uiso   1.00
C2554  C     0.81241   0.29972   0.75894   0.00000  Uiso   1.00
H2555  H     0.83297   0.29631   0.72950   0.00000  Uiso   1.00
H2556  H     0.82992   0.29151   0.79022   0.00000  Uiso   1.00
C2557  C     0.77817   0.26608   0.75391   0.00000  Uiso   1.00
H2558  H     0.78978   0.23187   0.76005   0.00000  Uiso   1.00
H2559  H     0.76446   0.26827   0.71934   0.00000  Uiso   1.00
H2560  H     0.75478   0.27369   0.77957   0.00000  Uiso   1.00
O2561  O     0.04509   0.70491   0.87291   0.00000  Uiso   1.00
O2562  O     0.45492   0.79509   0.79375   0.00000  Uiso   1.00
O2563  O     0.45492   0.79509   0.87291   0.00000  Uiso   1.00
O2564  O     0.04509   0.70491   0.79375   0.00000  Uiso   1.00
O2565  O     0.45492   0.70491   0.79375   0.00000  Uiso   1.00
O2566  O     0.04509   0.79509   0.87291   0.00000  Uiso   1.00
O2567  O     0.04509   0.79509   0.79375   0.00000  Uiso   1.00
O2568  O     0.45492   0.70491   0.87291   0.00000  Uiso   1.00
O2569  O     0.29509   0.95491   0.87291   0.00000  Uiso   1.00
O2570  O     0.20492   0.54509   0.79375   0.00000  Uiso   1.00
O2571  O     0.20492   0.54509   0.87291   0.00000  Uiso   1.00
O2572  O     0.29509   0.95491   0.79375   0.00000  Uiso   1.00
O2573  O     0.20492   0.95491   0.79375   0.00000  Uiso   1.00
O2574  O     0.29509   0.54509   0.87291   0.00000  Uiso   1.00
O2575  O     0.29509   0.54509   0.79375   0.00000  Uiso   1.00
O2576  O     0.20492   0.95491   0.87291   0.00000  Uiso   1.00
C2577  C     0.05853   0.68991   0.83356   0.00000  Uiso   1.00
C2578  C     0.44053   0.80936   0.83329   0.00000  Uiso   1.00
C2579  C     0.44115   0.68985   0.83332   0.00000  Uiso   1.00
C2580  C     0.05775   0.81079   0.83313   0.00000  Uiso   1.00
C2581  C     0.30845   0.93981   0.83340   0.00000  Uiso   1.00
C2582  C     0.19048   0.55930   0.83326   0.00000  Uiso   1.00
C2583  C     0.18981   0.94141   0.83339   0.00000  Uiso   1.00
C2584  C     0.30857   0.55997   0.83329   0.00000  Uiso   1.00
N2585  N     0.00000   0.75000   0.95069   0.00000  Uiso   1.00
N2586  N     0.00000   0.75000   0.71598   0.00000  Uiso   1.00
N2587  N     0.25000   0.50000   0.95069   0.00000  Uiso   1.00
N2588  N     0.25000   0.50000   0.71598   0.00000  Uiso   1.00
Cu2589 Cu    0.00000   0.75000   0.88022   0.00000  Uiso   1.00
Cu2590 Cu    0.00000   0.75000   0.78645   0.00000  Uiso   1.00
Cu2591 Cu    0.25000   0.50000   0.88022   0.00000  Uiso   1.00
Cu2592 Cu    0.25000   0.50000   0.78645   0.00000  Uiso   1.00
C2593  C     0.49931   0.71101   0.69110   0.00000  Uiso   1.00
C2594  C     0.00300   0.78885   0.97562   0.00000  Uiso   1.00
C2595  C     0.00588   0.78842   0.69068   0.00000  Uiso   1.00
C2596  C     0.00195   0.71109   0.97602   0.00000  Uiso   1.00
C2597  C     0.24624   0.96128   0.69115   0.00000  Uiso   1.00
C2598  C     0.25399   0.53883   0.97547   0.00000  Uiso   1.00
C2599  C     0.25659   0.53834   0.69057   0.00000  Uiso   1.00
C2600  C     0.24820   0.96103   0.97606   0.00000  Uiso   1.00
C2601  C     0.39801   0.63062   0.79339   0.00000  Uiso   1.00
C2602  C     0.09421   0.87525   0.86821   0.00000  Uiso   1.00
C2603  C     0.11769   0.84895   0.79492   0.00000  Uiso   1.00
C2604  C     0.38565   0.64544   0.87308   0.00000  Uiso   1.00
C2605  C     0.11261   0.64472   0.87459   0.00000  Uiso   1.00
C2606  C     0.38625   0.85538   0.79256   0.00000  Uiso   1.00
C2607  C     0.39284   0.86225   0.87452   0.00000  Uiso   1.00
C2608  C     0.10115   0.63219   0.79450   0.00000  Uiso   1.00
C2609  C     0.14463   0.88558   0.79300   0.00000  Uiso   1.00
C2610  C     0.34927   0.62099   0.86992   0.00000  Uiso   1.00
C2611  C     0.37103   0.59399   0.79621   0.00000  Uiso   1.00
C2612  C     0.12921   0.90220   0.87154   0.00000  Uiso   1.00
C2613  C     0.36391   0.89688   0.87344   0.00000  Uiso   1.00
C2614  C     0.13667   0.60648   0.79251   0.00000  Uiso   1.00
C2615  C     0.14146   0.60997   0.87502   0.00000  Uiso   1.00
C2616  C     0.35046   0.88079   0.79428   0.00000  Uiso   1.00
C2617  C     0.09052   0.84494   0.83225   0.00000  Uiso   1.00
C2618  C     0.40844   0.65470   0.83328   0.00000  Uiso   1.00
C2619  C     0.40659   0.84291   0.83335   0.00000  Uiso   1.00
C2620  C     0.09119   0.65550   0.83427   0.00000  Uiso   1.00
C2621  C     0.34329   0.59177   0.83318   0.00000  Uiso   1.00
C2622  C     0.15449   0.90928   0.83302   0.00000  Uiso   1.00
C2623  C     0.15634   0.59259   0.83339   0.00000  Uiso   1.00
C2624  C     0.34105   0.90534   0.83367   0.00000  Uiso   1.00
O2625  O     0.49804   0.66975   0.71154   0.00000  Uiso   1.00
H2626  H     0.49896   0.67348   0.74451   0.00000  Uiso   1.00
O2627  O     0.00487   0.83005   0.95517   0.00000  Uiso   1.00
H2628  H     0.49851   0.82654   0.92290   0.00000  Uiso   1.00
O2629  O     0.01657   0.82800   0.71074   0.00000  Uiso   1.00
H2630  H     0.00603   0.82744   0.74193   0.00000  Uiso   1.00
O2631  O     0.00909   0.67047   0.95621   0.00000  Uiso   1.00
H2632  H     0.00385   0.67337   0.92359   0.00000  Uiso   1.00
O2633  O     0.24172   0.92053   0.71186   0.00000  Uiso   1.00
H2634  H     0.24910   0.92357   0.74396   0.00000  Uiso   1.00
O2635  O     0.25745   0.57995   0.95483   0.00000  Uiso   1.00
H2636  H     0.24884   0.57742   0.92303   0.00000  Uiso   1.00
O2637  O     0.26712   0.57798   0.71056   0.00000  Uiso   1.00
H2638  H     0.25655   0.57723   0.74167   0.00000  Uiso   1.00
O2639  O     0.25201   0.91975   0.95644   0.00000  Uiso   1.00
H2640  H     0.25243   0.92334   0.92335   0.00000  Uiso   1.00
O2641  O     0.41380   0.64191   0.75128   0.00000  Uiso   1.00
C2642  C     0.38998   0.67676   0.73184   0.00000  Uiso   1.00
H2643  H     0.40690   0.68930   0.70158   0.00000  Uiso   1.00
H2644  H     0.38696   0.70581   0.75508   0.00000  Uiso   1.00
C2645  C     0.34696   0.66127   0.71734   0.00000  Uiso   1.00
H2646  H     0.34752   0.62633   0.70563   0.00000  Uiso   1.00
H2647  H     0.32598   0.66271   0.74709   0.00000  Uiso   1.00
C2648  C     0.33006   0.69048   0.67916   0.00000  Uiso   1.00
H2649  H     0.33027   0.72587   0.68958   0.00000  Uiso   1.00
H2650  H     0.29840   0.68019   0.67076   0.00000  Uiso   1.00
H2651  H     0.34915   0.68701   0.98163   0.00000  Uiso   1.00
O2652  O     0.06447   0.87731   0.90157   0.00000  Uiso   1.00
C2653  C     0.03594   0.91123   0.89020   0.00000  Uiso   1.00
H2654  H     0.00472   0.89822   0.89693   0.00000  Uiso   1.00
H2655  H     0.03605   0.92136   0.85348   0.00000  Uiso   1.00
C2656  C     0.04327   0.95189   0.92024   0.00000  Uiso   1.00
H2657  H     0.04800   0.94055   0.95590   0.00000  Uiso   1.00
H2658  H     0.07102   0.96982   0.90820   0.00000  Uiso   1.00
C2659  C     0.00725   0.98396   0.91946   0.00000  Uiso   1.00
H2660  H     0.00053   0.99466   0.88419   0.00000  Uiso   1.00
H2661  H     0.01453   0.51386   0.94005   0.00000  Uiso   1.00
H2662  H     0.47991   0.96753   0.93413   0.00000  Uiso   1.00
O2663  O     0.11610   0.82046   0.75782   0.00000  Uiso   1.00
C2664  C     0.12798   0.77669   0.77066   0.00000  Uiso   1.00
H2665  H     0.11732   0.75342   0.74381   0.00000  Uiso   1.00
H2666  H     0.11358   0.76492   0.80267   0.00000  Uiso   1.00
C2667  C     0.17419   0.77226   0.77534   0.00000  Uiso   1.00
H2668  H     0.18770   0.76807   0.74114   0.00000  Uiso   1.00
H2669  H     0.18763   0.80305   0.79005   0.00000  Uiso   1.00
C2670  C     0.18498   0.73274   0.80631   0.00000  Uiso   1.00
H2671  H     0.19109   0.74563   0.84081   0.00000  Uiso   1.00
H2672  H     0.21225   0.71494   0.79365   0.00000  Uiso   1.00
H2673  H     0.15998   0.70787   0.80904   0.00000  Uiso   1.00
O2674  O     0.39365   0.66661   0.91361   0.00000  Uiso   1.00
C2675  C     0.42351   0.64218   0.93776   0.00000  Uiso   1.00
H2676  H     0.43430   0.66419   0.96529   0.00000  Uiso   1.00
H2677  H     0.44967   0.63256   0.91572   0.00000  Uiso   1.00
C2678  C     0.40673   0.59978   0.95933   0.00000  Uiso   1.00
H2679  H     0.37694   0.60649   0.97556   0.00000  Uiso   1.00
H2680  H     0.40200   0.57516   0.93186   0.00000  Uiso   1.00
C2681  C     0.43691   0.58084   0.99414   0.00000  Uiso   1.00
H2682  H     0.46390   0.56658   0.97654   0.00000  Uiso   1.00
H2683  H     0.42169   0.55448   0.68112   0.00000  Uiso   1.00
H2684  H     0.44766   0.60685   0.68455   0.00000  Uiso   1.00
O2685  O     0.10439   0.66626   0.91499   0.00000  Uiso   1.00
C2686  C     0.12682   0.70657   0.91628   0.00000  Uiso   1.00
H2687  H     0.11453   0.72602   0.94533   0.00000  Uiso   1.00
H2688  H     0.12209   0.72758   0.88529   0.00000  Uiso   1.00
C2689  C     0.17262   0.69792   0.92341   0.00000  Uiso   1.00
H2690  H     0.17667   0.67071   0.94836   0.00000  Uiso   1.00
H2691  H     0.18744   0.68719   0.89133   0.00000  Uiso   1.00
C2692  C     0.19377   0.73901   0.94129   0.00000  Uiso   1.00
H2693  H     0.19442   0.76608   0.91541   0.00000  Uiso   1.00
H2694  H     0.22518   0.73044   0.95221   0.00000  Uiso   1.00
H2695  H     0.17690   0.75017   0.97154   0.00000  Uiso   1.00
O2696  O     0.39682   0.83806   0.75083   0.00000  Uiso   1.00
C2697  C     0.43072   0.86156   0.73326   0.00000  Uiso   1.00
H2698  H     0.44441   0.83915   0.70798   0.00000  Uiso   1.00
H2699  H     0.45363   0.87031   0.75994   0.00000  Uiso   1.00
C2700  C     0.41920   0.90340   0.70710   0.00000  Uiso   1.00
H2701  H     0.40163   0.89327   0.67680   0.00000  Uiso   1.00
H2702  H     0.40019   0.92572   0.72825   0.00000  Uiso   1.00
C2703  C     0.45807   0.92773   0.69192   0.00000  Uiso   1.00
H2704  H     0.47722   0.93522   0.72198   0.00000  Uiso   1.00
H2705  H     0.45133   0.96009   0.67561   0.00000  Uiso   1.00
H2706  H     0.47541   0.90699   0.66740   0.00000  Uiso   1.00
O2707  O     0.40757   0.84804   0.91632   0.00000  Uiso   1.00
C2708  C     0.38242   0.81263   0.93243   0.00000  Uiso   1.00
H2709  H     0.40268   0.78714   0.94825   0.00000  Uiso   1.00
H2710  H     0.36593   0.79435   0.90479   0.00000  Uiso   1.00
C2711  C     0.35271   0.82934   0.96909   0.00000  Uiso   1.00
H2712  H     0.36492   0.81965   0.66947   0.00000  Uiso   1.00
H2713  H     0.35038   0.86603   0.96876   0.00000  Uiso   1.00
C2714  C     0.30952   0.81115   0.96320   0.00000  Uiso   1.00
H2715  H     0.29662   0.82305   0.93031   0.00000  Uiso   1.00
H2716  H     0.28965   0.82349   0.99098   0.00000  Uiso   1.00
H2717  H     0.30971   0.77425   0.96427   0.00000  Uiso   1.00
O2718  O     0.07393   0.62871   0.75863   0.00000  Uiso   1.00
C2719  C     0.04286   0.59739   0.77045   0.00000  Uiso   1.00
H2720  H     0.02356   0.59229   0.73977   0.00000  Uiso   1.00
H2721  H     0.02249   0.61128   0.79723   0.00000  Uiso   1.00
C2722  C     0.05935   0.55139   0.78597   0.00000  Uiso   1.00
H2723  H     0.08179   0.53845   0.76114   0.00000  Uiso   1.00
H2724  H     0.07435   0.55398   0.81984   0.00000  Uiso   1.00
C2725  C     0.02514   0.51812   0.79117   0.00000  Uiso   1.00
H2726  H     0.03756   0.98596   0.80379   0.00000  Uiso   1.00
H2727  H     0.00993   0.51291   0.75779   0.00000  Uiso   1.00
H2728  H     0.00303   0.53103   0.81639   0.00000  Uiso   1.00
O2729  O     0.16243   0.89670   0.75195   0.00000  Uiso   1.00
C2730  C     0.14092   0.93318   0.73236   0.00000  Uiso   1.00
H2731  H     0.16223   0.95084   0.70900   0.00000  Uiso   1.00
H2732  H     0.13162   0.95891   0.75771   0.00000  Uiso   1.00
C2733  C     0.10450   0.91694   0.70416   0.00000  Uiso   1.00
H2734  H     0.10627   0.93121   0.66925   0.00000  Uiso   1.00
H2735  H     0.10511   0.88027   0.70156   0.00000  Uiso   1.00
C2736  C     0.06381   0.92949   0.72497   0.00000  Uiso   1.00
H2737  H     0.06188   0.91848   0.76111   0.00000  Uiso   1.00
H2738  H     0.03975   0.91239   0.70530   0.00000  Uiso   1.00
H2739  H     0.05925   0.96596   0.72227   0.00000  Uiso   1.00
O2740  O     0.31927   0.62819   0.90228   0.00000  Uiso   1.00
C2741  C     0.29226   0.66205   0.88633   0.00000  Uiso   1.00
H2742  H     0.26793   0.66606   0.91240   0.00000  Uiso   1.00
H2743  H     0.27668   0.65146   0.85437   0.00000  Uiso   1.00
C2744  C     0.31348   0.70781   0.87909   0.00000  Uiso   1.00
H2745  H     0.33202   0.71656   0.90936   0.00000  Uiso   1.00
H2746  H     0.33361   0.70654   0.84865   0.00000  Uiso   1.00
C2747  C     0.28328   0.74509   0.87042   0.00000  Uiso   1.00
H2748  H     0.26090   0.73438   0.84477   0.00000  Uiso   1.00
H2749  H     0.29955   0.77538   0.85833   0.00000  Uiso   1.00
H2750  H     0.26738   0.75397   0.90195   0.00000  Uiso   1.00
O2751  O     0.36885   0.56495   0.75952   0.00000  Uiso   1.00
C2752  C     0.37857   0.52079   0.77342   0.00000  Uiso   1.00
H2753  H     0.36398   0.99740   0.74908   0.00000  Uiso   1.00
H2754  H     0.36626   0.51173   0.80744   0.00000  Uiso   1.00
C2755  C     0.42462   0.51267   0.77315   0.00000  Uiso   1.00
H2756  H     0.43459   0.50488   0.73812   0.00000  Uiso   1.00
H2757  H     0.44080   0.54338   0.78399   0.00000  Uiso   1.00
C2758  C     0.43598   0.97409   0.80513   0.00000  Uiso   1.00
H2759  H     0.43902   0.98698   0.84021   0.00000  Uiso   1.00
H2760  H     0.46536   0.95871   0.79533   0.00000  Uiso   1.00
H2761  H     0.41258   0.94744   0.80455   0.00000  Uiso   1.00
O2762  O     0.13714   0.92212   0.91269   0.00000  Uiso   1.00
C2763  C     0.16550   0.89552   0.93693   0.00000  Uiso   1.00
H2764  H     0.17594   0.91608   0.96592   0.00000  Uiso   1.00
H2765  H     0.19251   0.88669   0.91590   0.00000  Uiso   1.00
C2766  C     0.14749   0.85175   0.95518   0.00000  Uiso   1.00
H2767  H     0.11567   0.85660   0.96673   0.00000  Uiso   1.00
H2768  H     0.14642   0.82662   0.92755   0.00000  Uiso   1.00
C2769  C     0.17402   0.83390   0.99395   0.00000  Uiso   1.00
H2770  H     0.20348   0.82125   0.98050   0.00000  Uiso   1.00
H2771  H     0.15716   0.80742   0.67920   0.00000  Uiso   1.00
H2772  H     0.18182   0.86025   0.68501   0.00000  Uiso   1.00
O2773  O     0.35826   0.92231   0.91191   0.00000  Uiso   1.00
C2774  C     0.38602   0.95827   0.90964   0.00000  Uiso   1.00
H2775  H     0.37717   0.98212   0.88222   0.00000  Uiso   1.00
H2776  H     0.41769   0.94608   0.90341   0.00000  Uiso   1.00
C2777  C     0.38683   0.98263   0.95477   0.00000  Uiso   1.00
H2778  H     0.38885   0.95828   0.98242   0.00000  Uiso   1.00
H2779  H     0.41408   0.50433   0.95547   0.00000  Uiso   1.00
C2780  C     0.34843   0.50900   0.96376   0.00000  Uiso   1.00
H2781  H     0.34263   0.53342   0.93618   0.00000  Uiso   1.00
H2782  H     0.35105   0.52685   0.99667   0.00000  Uiso   1.00
H2783  H     0.32311   0.98501   0.96639   0.00000  Uiso   1.00
O2784  O     0.14661   0.58945   0.75041   0.00000  Uiso   1.00
C2785  C     0.18113   0.61218   0.73330   0.00000  Uiso   1.00
H2786  H     0.19313   0.59173   0.70510   0.00000  Uiso   1.00
H2787  H     0.20490   0.61654   0.76000   0.00000  Uiso   1.00
C2788  C     0.17221   0.65818   0.71371   0.00000  Uiso   1.00
H2789  H     0.15197   0.65548   0.68365   0.00000  Uiso   1.00
H2790  H     0.15620   0.67898   0.73888   0.00000  Uiso   1.00
C2791  C     0.21305   0.67995   0.70101   0.00000  Uiso   1.00
H2792  H     0.23559   0.67736   0.72920   0.00000  Uiso   1.00
H2793  H     0.20879   0.71568   0.69424   0.00000  Uiso   1.00
H2794  H     0.22634   0.66342   0.67071   0.00000  Uiso   1.00
O2795  O     0.15854   0.59763   0.91636   0.00000  Uiso   1.00
C2796  C     0.13765   0.56016   0.93456   0.00000  Uiso   1.00
H2797  H     0.15975   0.54218   0.95682   0.00000  Uiso   1.00
H2798  H     0.12786   0.53582   0.90800   0.00000  Uiso   1.00
C2799  C     0.10081   0.57445   0.96325   0.00000  Uiso   1.00
H2800  H     0.10826   0.60502   0.98266   0.00000  Uiso   1.00
H2801  H     0.07449   0.58179   0.94042   0.00000  Uiso   1.00
C2802  C     0.08865   0.53806   0.99701   0.00000  Uiso   1.00
H2803  H     0.08387   0.50617   0.97921   0.00000  Uiso   1.00
H2804  H     0.05982   0.54744   0.68103   0.00000  Uiso   1.00
H2805  H     0.11321   0.53324   0.68933   0.00000  Uiso   1.00
O2806  O     0.32536   0.88110   0.75634   0.00000  Uiso   1.00
C2807  C     0.29516   0.84739   0.76163   0.00000  Uiso   1.00
H2808  H     0.27318   0.85093   0.73319   0.00000  Uiso   1.00
H2809  H     0.27742   0.85188   0.79374   0.00000  Uiso   1.00
C2810  C     0.31241   0.79972   0.75894   0.00000  Uiso   1.00
H2811  H     0.33297   0.79631   0.72950   0.00000  Uiso   1.00
H2812  H     0.32992   0.79151   0.79022   0.00000  Uiso   1.00
C2813  C     0.27817   0.76608   0.75391   0.00000  Uiso   1.00
H2814  H     0.28978   0.73187   0.76005   0.00000  Uiso   1.00
H2815  H     0.26446   0.76827   0.71934   0.00000  Uiso   1.00
H2816  H     0.25478   0.77369   0.77957   0.00000  Uiso   1.00
O2817  O     0.54509   0.70491   0.87291   0.00000  Uiso   1.00
O2818  O     0.95492   0.79509   0.79375   0.00000  Uiso   1.00
O2819  O     0.95492   0.79509   0.87291   0.00000  Uiso   1.00
O2820  O     0.54509   0.70491   0.79375   0.00000  Uiso   1.00
O2821  O     0.95492   0.70491   0.79375   0.00000  Uiso   1.00
O2822  O     0.54509   0.79509   0.87291   0.00000  Uiso   1.00
O2823  O     0.54509   0.79509   0.79375   0.00000  Uiso   1.00
O2824  O     0.95492   0.70491   0.87291   0.00000  Uiso   1.00
O2825  O     0.79509   0.95491   0.87291   0.00000  Uiso   1.00
O2826  O     0.70492   0.54509   0.79375   0.00000  Uiso   1.00
O2827  O     0.70492   0.54509   0.87291   0.00000  Uiso   1.00
O2828  O     0.79509   0.95491   0.79375   0.00000  Uiso   1.00
O2829  O     0.70492   0.95491   0.79375   0.00000  Uiso   1.00
O2830  O     0.79509   0.54509   0.87291   0.00000  Uiso   1.00
O2831  O     0.79509   0.54509   0.79375   0.00000  Uiso   1.00
O2832  O     0.70492   0.95491   0.87291   0.00000  Uiso   1.00
C2833  C     0.55853   0.68991   0.83356   0.00000  Uiso   1.00
C2834  C     0.94053   0.80936   0.83329   0.00000  Uiso   1.00
C2835  C     0.94115   0.68985   0.83332   0.00000  Uiso   1.00
C2836  C     0.55775   0.81079   0.83313   0.00000  Uiso   1.00
C2837  C     0.80845   0.93981   0.83340   0.00000  Uiso   1.00
C2838  C     0.69048   0.55930   0.83326   0.00000  Uiso   1.00
C2839  C     0.68981   0.94141   0.83339   0.00000  Uiso   1.00
C2840  C     0.80857   0.55997   0.83329   0.00000  Uiso   1.00
N2841  N     0.50000   0.75000   0.95069   0.00000  Uiso   1.00
N2842  N     0.50000   0.75000   0.71598   0.00000  Uiso   1.00
N2843  N     0.75000   0.50000   0.95069   0.00000  Uiso   1.00
N2844  N     0.75000   0.50000   0.71598   0.00000  Uiso   1.00
Cu2845 Cu    0.50000   0.75000   0.88022   0.00000  Uiso   1.00
Cu2846 Cu    0.50000   0.75000   0.78645   0.00000  Uiso   1.00
Cu2847 Cu    0.75000   0.50000   0.88022   0.00000  Uiso   1.00
Cu2848 Cu    0.75000   0.50000   0.78645   0.00000  Uiso   1.00
C2849  C     0.99931   0.71101   0.69110   0.00000  Uiso   1.00
C2850  C     0.50300   0.78885   0.97562   0.00000  Uiso   1.00
C2851  C     0.50588   0.78842   0.69068   0.00000  Uiso   1.00
C2852  C     0.50195   0.71109   0.97602   0.00000  Uiso   1.00
C2853  C     0.74624   0.96128   0.69115   0.00000  Uiso   1.00
C2854  C     0.75399   0.53883   0.97547   0.00000  Uiso   1.00
C2855  C     0.75659   0.53834   0.69057   0.00000  Uiso   1.00
C2856  C     0.74820   0.96103   0.97606   0.00000  Uiso   1.00
C2857  C     0.89801   0.63062   0.79339   0.00000  Uiso   1.00
C2858  C     0.59421   0.87525   0.86821   0.00000  Uiso   1.00
C2859  C     0.61769   0.84895   0.79492   0.00000  Uiso   1.00
C2860  C     0.88565   0.64544   0.87308   0.00000  Uiso   1.00
C2861  C     0.61261   0.64472   0.87459   0.00000  Uiso   1.00
C2862  C     0.88625   0.85538   0.79256   0.00000  Uiso   1.00
C2863  C     0.89284   0.86225   0.87452   0.00000  Uiso   1.00
C2864  C     0.60115   0.63219   0.79450   0.00000  Uiso   1.00
C2865  C     0.64463   0.88558   0.79300   0.00000  Uiso   1.00
C2866  C     0.84927   0.62099   0.86992   0.00000  Uiso   1.00
C2867  C     0.87103   0.59399   0.79621   0.00000  Uiso   1.00
C2868  C     0.62921   0.90220   0.87154   0.00000  Uiso   1.00
C2869  C     0.86391   0.89688   0.87344   0.00000  Uiso   1.00
C2870  C     0.63667   0.60648   0.79251   0.00000  Uiso   1.00
C2871  C     0.64146   0.60997   0.87502   0.00000  Uiso   1.00
C2872  C     0.85046   0.88079   0.79428   0.00000  Uiso   1.00
C2873  C     0.59052   0.84494   0.83225   0.00000  Uiso   1.00
C2874  C     0.90844   0.65470   0.83328   0.00000  Uiso   1.00
C2875  C     0.90659   0.84291   0.83335   0.00000  Uiso   1.00
C2876  C     0.59119   0.65550   0.83427   0.00000  Uiso   1.00
C2877  C     0.84329   0.59177   0.83318   0.00000  Uiso   1.00
C2878  C     0.65449   0.90928   0.83302   0.00000  Uiso   1.00
C2879  C     0.65634   0.59259   0.83339   0.00000  Uiso   1.00
C2880  C     0.84105   0.90534   0.83367   0.00000  Uiso   1.00
O2881  O     0.99804   0.66975   0.71154   0.00000  Uiso   1.00
H2882  H     0.99896   0.67348   0.74451   0.00000  Uiso   1.00
O2883  O     0.50487   0.83005   0.95517   0.00000  Uiso   1.00
H2884  H     0.99851   0.82654   0.92290   0.00000  Uiso   1.00
O2885  O     0.51657   0.82800   0.71074   0.00000  Uiso   1.00
H2886  H     0.50603   0.82744   0.74193   0.00000  Uiso   1.00
O2887  O     0.50909   0.67047   0.95621   0.00000  Uiso   1.00
H2888  H     0.50385   0.67337   0.92359   0.00000  Uiso   1.00
O2889  O     0.74172   0.92053   0.71186   0.00000  Uiso   1.00
H2890  H     0.74910   0.92357   0.74396   0.00000  Uiso   1.00
O2891  O     0.75745   0.57995   0.95483   0.00000  Uiso   1.00
H2892  H     0.74884   0.57742   0.92303   0.00000  Uiso   1.00
O2893  O     0.76712   0.57798   0.71056   0.00000  Uiso   1.00
H2894  H     0.75655   0.57723   0.74167   0.00000  Uiso   1.00
O2895  O     0.75201   0.91975   0.95644   0.00000  Uiso   1.00
H2896  H     0.75243   0.92334   0.92335   0.00000  Uiso   1.00
O2897  O     0.91380   0.64191   0.75128   0.00000  Uiso   1.00
C2898  C     0.88998   0.67676   0.73184   0.00000  Uiso   1.00
H2899  H     0.90690   0.68930   0.70158   0.00000  Uiso   1.00
H2900  H     0.88696   0.70581   0.75508   0.00000  Uiso   1.00
C2901  C     0.84696   0.66127   0.71734   0.00000  Uiso   1.00
H2902  H     0.84752   0.62633   0.70563   0.00000  Uiso   1.00
H2903  H     0.82598   0.66271   0.74709   0.00000  Uiso   1.00
C2904  C     0.83006   0.69048   0.67916   0.00000  Uiso   1.00
H2905  H     0.83027   0.72587   0.68958   0.00000  Uiso   1.00
H2906  H     0.79840   0.68019   0.67076   0.00000  Uiso   1.00
H2907  H     0.84915   0.68701   0.98163   0.00000  Uiso   1.00
O2908  O     0.56447   0.87731   0.90157   0.00000  Uiso   1.00
C2909  C     0.53594   0.91123   0.89020   0.00000  Uiso   1.00
H2910  H     0.50472   0.89822   0.89693   0.00000  Uiso   1.00
H2911  H     0.53605   0.92136   0.85348   0.00000  Uiso   1.00
C2912  C     0.54327   0.95189   0.92024   0.00000  Uiso   1.00
H2913  H     0.54800   0.94055   0.95590   0.00000  Uiso   1.00
H2914  H     0.57102   0.96982   0.90820   0.00000  Uiso   1.00
C2915  C     0.50725   0.98396   0.91946   0.00000  Uiso   1.00
H2916  H     0.50053   0.99466   0.88419   0.00000  Uiso   1.00
H2917  H     0.51453   0.51386   0.94005   0.00000  Uiso   1.00
H2918  H     0.97991   0.96753   0.93413   0.00000  Uiso   1.00
O2919  O     0.61610   0.82046   0.75782   0.00000  Uiso   1.00
C2920  C     0.62798   0.77669   0.77066   0.00000  Uiso   1.00
H2921  H     0.61732   0.75342   0.74381   0.00000  Uiso   1.00
H2922  H     0.61358   0.76492   0.80267   0.00000  Uiso   1.00
C2923  C     0.67419   0.77226   0.77534   0.00000  Uiso   1.00
H2924  H     0.68770   0.76807   0.74114   0.00000  Uiso   1.00
H2925  H     0.68763   0.80305   0.79005   0.00000  Uiso   1.00
C2926  C     0.68498   0.73274   0.80631   0.00000  Uiso   1.00
H2927  H     0.69109   0.74563   0.84081   0.00000  Uiso   1.00
H2928  H     0.71225   0.71494   0.79365   0.00000  Uiso   1.00
H2929  H     0.65998   0.70787   0.80904   0.00000  Uiso   1.00
O2930  O     0.89365   0.66661   0.91361   0.00000  Uiso   1.00
C2931  C     0.92351   0.64218   0.93776   0.00000  Uiso   1.00
H2932  H     0.93430   0.66419   0.96529   0.00000  Uiso   1.00
H2933  H     0.94967   0.63256   0.91572   0.00000  Uiso   1.00
C2934  C     0.90673   0.59978   0.95933   0.00000  Uiso   1.00
H2935  H     0.87694   0.60649   0.97556   0.00000  Uiso   1.00
H2936  H     0.90200   0.57516   0.93186   0.00000  Uiso   1.00
C2937  C     0.93691   0.58084   0.99414   0.00000  Uiso   1.00
H2938  H     0.96390   0.56658   0.97654   0.00000  Uiso   1.00
H2939  H     0.92169   0.55448   0.68112   0.00000  Uiso   1.00
H2940  H     0.94766   0.60685   0.68455   0.00000  Uiso   1.00
O2941  O     0.60439   0.66626   0.91499   0.00000  Uiso   1.00
C2942  C     0.62682   0.70657   0.91628   0.00000  Uiso   1.00
H2943  H     0.61453   0.72602   0.94533   0.00000  Uiso   1.00
H2944  H     0.62209   0.72758   0.88529   0.00000  Uiso   1.00
C2945  C     0.67262   0.69792   0.92341   0.00000  Uiso   1.00
H2946  H     0.67667   0.67071   0.94836   0.00000  Uiso   1.00
H2947  H     0.68744   0.68719   0.89133   0.00000  Uiso   1.00
C2948  C     0.69377   0.73901   0.94129   0.00000  Uiso   1.00
H2949  H     0.69442   0.76608   0.91541   0.00000  Uiso   1.00
H2950  H     0.72518   0.73044   0.95221   0.00000  Uiso   1.00
H2951  H     0.67690   0.75017   0.97154   0.00000  Uiso   1.00
O2952  O     0.89682   0.83806   0.75083   0.00000  Uiso   1.00
C2953  C     0.93072   0.86156   0.73326   0.00000  Uiso   1.00
H2954  H     0.94441   0.83915   0.70798   0.00000  Uiso   1.00
H2955  H     0.95363   0.87031   0.75994   0.00000  Uiso   1.00
C2956  C     0.91920   0.90340   0.70710   0.00000  Uiso   1.00
H2957  H     0.90163   0.89327   0.67680   0.00000  Uiso   1.00
H2958  H     0.90019   0.92572   0.72825   0.00000  Uiso   1.00
C2959  C     0.95807   0.92773   0.69192   0.00000  Uiso   1.00
H2960  H     0.97722   0.93522   0.72198   0.00000  Uiso   1.00
H2961  H     0.95133   0.96009   0.67561   0.00000  Uiso   1.00
H2962  H     0.97541   0.90699   0.66740   0.00000  Uiso   1.00
O2963  O     0.90757   0.84804   0.91632   0.00000  Uiso   1.00
C2964  C     0.88242   0.81263   0.93243   0.00000  Uiso   1.00
H2965  H     0.90268   0.78714   0.94825   0.00000  Uiso   1.00
H2966  H     0.86593   0.79435   0.90479   0.00000  Uiso   1.00
C2967  C     0.85271   0.82934   0.96909   0.00000  Uiso   1.00
H2968  H     0.86492   0.81965   0.66947   0.00000  Uiso   1.00
H2969  H     0.85038   0.86603   0.96876   0.00000  Uiso   1.00
C2970  C     0.80952   0.81115   0.96320   0.00000  Uiso   1.00
H2971  H     0.79662   0.82305   0.93031   0.00000  Uiso   1.00
H2972  H     0.78965   0.82349   0.99098   0.00000  Uiso   1.00
H2973  H     0.80971   0.77425   0.96427   0.00000  Uiso   1.00
O2974  O     0.57393   0.62871   0.75863   0.00000  Uiso   1.00
C2975  C     0.54286   0.59739   0.77045   0.00000  Uiso   1.00
H2976  H     0.52356   0.59229   0.73977   0.00000  Uiso   1.00
H2977  H     0.52249   0.61128   0.79723   0.00000  Uiso   1.00
C2978  C     0.55935   0.55139   0.78597   0.00000  Uiso   1.00
H2979  H     0.58179   0.53845   0.76114   0.00000  Uiso   1.00
H2980  H     0.57435   0.55398   0.81984   0.00000  Uiso   1.00
C2981  C     0.52514   0.51812   0.79117   0.00000  Uiso   1.00
H2982  H     0.53756   0.98596   0.80379   0.00000  Uiso   1.00
H2983  H     0.50993   0.51291   0.75779   0.00000  Uiso   1.00
H2984  H     0.50303   0.53103   0.81639   0.00000  Uiso   1.00
O2985  O     0.66243   0.89670   0.75195   0.00000  Uiso   1.00
C2986  C     0.64092   0.93318   0.73236   0.00000  Uiso   1.00
H2987  H     0.66223   0.95084   0.70900   0.00000  Uiso   1.00
H2988  H     0.63162   0.95891   0.75771   0.00000  Uiso   1.00
C2989  C     0.60450   0.91694   0.70416   0.00000  Uiso   1.00
H2990  H     0.60627   0.93121   0.66925   0.00000  Uiso   1.00
H2991  H     0.60511   0.88027   0.70156   0.00000  Uiso   1.00
C2992  C     0.56381   0.92949   0.72497   0.00000  Uiso   1.00
H2993  H     0.56188   0.91848   0.76111   0.00000  Uiso   1.00
H2994  H     0.53975   0.91239   0.70530   0.00000  Uiso   1.00
H2995  H     0.55925   0.96596   0.72227   0.00000  Uiso   1.00
O2996  O     0.81927   0.62819   0.90228   0.00000  Uiso   1.00
C2997  C     0.79226   0.66205   0.88633   0.00000  Uiso   1.00
H2998  H     0.76793   0.66606   0.91240   0.00000  Uiso   1.00
H2999  H     0.77668   0.65146   0.85437   0.00000  Uiso   1.00
C3000  C     0.81348   0.70781   0.87909   0.00000  Uiso   1.00
H3001  H     0.83202   0.71656   0.90936   0.00000  Uiso   1.00
H3002  H     0.83361   0.70654   0.84865   0.00000  Uiso   1.00
C3003  C     0.78328   0.74509   0.87042   0.00000  Uiso   1.00
H3004  H     0.76090   0.73438   0.84477   0.00000  Uiso   1.00
H3005  H     0.79955   0.77538   0.85833   0.00000  Uiso   1.00
H3006  H     0.76738   0.75397   0.90195   0.00000  Uiso   1.00
O3007  O     0.86885   0.56495   0.75952   0.00000  Uiso   1.00
C3008  C     0.87857   0.52079   0.77342   0.00000  Uiso   1.00
H3009  H     0.86398   0.99740   0.74908   0.00000  Uiso   1.00
H3010  H     0.86626   0.51173   0.80744   0.00000  Uiso   1.00
C3011  C     0.92462   0.51267   0.77315   0.00000  Uiso   1.00
H3012  H     0.93459   0.50488   0.73812   0.00000  Uiso   1.00
H3013  H     0.94080   0.54338   0.78399   0.00000  Uiso   1.00
C3014  C     0.93598   0.97409   0.80513   0.00000  Uiso   1.00
H3015  H     0.93902   0.98698   0.84021   0.00000  Uiso   1.00
H3016  H     0.96536   0.95871   0.79533   0.00000  Uiso   1.00
H3017  H     0.91258   0.94744   0.80455   0.00000  Uiso   1.00
O3018  O     0.63714   0.92212   0.91269   0.00000  Uiso   1.00
C3019  C     0.66550   0.89552   0.93693   0.00000  Uiso   1.00
H3020  H     0.67594   0.91608   0.96592   0.00000  Uiso   1.00
H3021  H     0.69251   0.88669   0.91590   0.00000  Uiso   1.00
C3022  C     0.64749   0.85175   0.95518   0.00000  Uiso   1.00
H3023  H     0.61567   0.85660   0.96673   0.00000  Uiso   1.00
H3024  H     0.64642   0.82662   0.92755   0.00000  Uiso   1.00
C3025  C     0.67402   0.83390   0.99395   0.00000  Uiso   1.00
H3026  H     0.70348   0.82125   0.98050   0.00000  Uiso   1.00
H3027  H     0.65716   0.80742   0.67920   0.00000  Uiso   1.00
H3028  H     0.68182   0.86025   0.68501   0.00000  Uiso   1.00
O3029  O     0.85826   0.92231   0.91191   0.00000  Uiso   1.00
C3030  C     0.88602   0.95827   0.90964   0.00000  Uiso   1.00
H3031  H     0.87717   0.98212   0.88222   0.00000  Uiso   1.00
H3032  H     0.91769   0.94608   0.90341   0.00000  Uiso   1.00
C3033  C     0.88683   0.98263   0.95477   0.00000  Uiso   1.00
H3034  H     0.88885   0.95828   0.98242   0.00000  Uiso   1.00
H3035  H     0.91408   0.50433   0.95547   0.00000  Uiso   1.00
C3036  C     0.84843   0.50900   0.96376   0.00000  Uiso   1.00
H3037  H     0.84263   0.53342   0.93618   0.00000  Uiso   1.00
H3038  H     0.85105   0.52685   0.99667   0.00000  Uiso   1.00
H3039  H     0.82311   0.98501   0.96639   0.00000  Uiso   1.00
O3040  O     0.64661   0.58945   0.75041   0.00000  Uiso   1.00
C3041  C     0.68113   0.61218   0.73330   0.00000  Uiso   1.00
H3042  H     0.69313   0.59173   0.70510   0.00000  Uiso   1.00
H3043  H     0.70490   0.61654   0.76000   0.00000  Uiso   1.00
C3044  C     0.67221   0.65818   0.71371   0.00000  Uiso   1.00
H3045  H     0.65197   0.65548   0.68365   0.00000  Uiso   1.00
H3046  H     0.65620   0.67898   0.73888   0.00000  Uiso   1.00
C3047  C     0.71305   0.67995   0.70101   0.00000  Uiso   1.00
H3048  H     0.73559   0.67736   0.72920   0.00000  Uiso   1.00
H3049  H     0.70879   0.71568   0.69424   0.00000  Uiso   1.00
H3050  H     0.72634   0.66342   0.67071   0.00000  Uiso   1.00
O3051  O     0.65854   0.59763   0.91636   0.00000  Uiso   1.00
C3052  C     0.63765   0.56016   0.93456   0.00000  Uiso   1.00
H3053  H     0.65975   0.54218   0.95682   0.00000  Uiso   1.00
H3054  H     0.62786   0.53582   0.90800   0.00000  Uiso   1.00
C3055  C     0.60081   0.57445   0.96325   0.00000  Uiso   1.00
H3056  H     0.60826   0.60502   0.98266   0.00000  Uiso   1.00
H3057  H     0.57449   0.58179   0.94042   0.00000  Uiso   1.00
C3058  C     0.58865   0.53806   0.99701   0.00000  Uiso   1.00
H3059  H     0.58387   0.50617   0.97921   0.00000  Uiso   1.00
H3060  H     0.55982   0.54744   0.68103   0.00000  Uiso   1.00
H3061  H     0.61321   0.53324   0.68933   0.00000  Uiso   1.00
O3062  O     0.82536   0.88110   0.75634   0.00000  Uiso   1.00
C3063  C     0.79516   0.84739   0.76163   0.00000  Uiso   1.00
H3064  H     0.77318   0.85093   0.73319   0.00000  Uiso   1.00
H3065  H     0.77742   0.85188   0.79374   0.00000  Uiso   1.00
C3066  C     0.81241   0.79972   0.75894   0.00000  Uiso   1.00
H3067  H     0.83297   0.79631   0.72950   0.00000  Uiso   1.00
H3068  H     0.82992   0.79151   0.79022   0.00000  Uiso   1.00
C3069  C     0.77817   0.76608   0.75391   0.00000  Uiso   1.00
H3070  H     0.78978   0.73187   0.76005   0.00000  Uiso   1.00
H3071  H     0.76446   0.76827   0.71934   0.00000  Uiso   1.00
H3072  H     0.75478   0.77369   0.77957   0.00000  Uiso   1.00
loop_
_geom_bond_atom_site_label_1
_geom_bond_atom_site_label_2
_geom_bond_distance
_geom_bond_site_symmetry_2
_ccdc_geom_bond_type
O1     Cu29    2.015   .     S
O1     C17     1.318   .     A
O2     C18     1.326   .     A
O2     Cu286   2.015   .     S
O3     C18     1.323   .     A
O3     Cu285   2.013   .     S
O4     C17     1.324   .     A
O4     Cu30    2.013   .     S
O5     C19     1.322   .     A
O5     Cu286   2.009   .     S
O6     C20     1.322   .     A
O6     Cu29    2.009   .     S
O7     Cu30    2.010   .     S
O7     C20     1.317   .     A
O8     C19     1.327   .     A
O8     Cu285   2.010   .     S
O9     C21     1.322   .     A
O9     Cu543   2.015   .     S
O10    C22     1.325   .     A
O10    Cu32    2.015   .     S
O11    Cu31    2.013   .     S
O11    C22     1.324   .     A
O12    C21     1.320   .     A
O12    Cu544   2.013   .     S
O13    C23     1.324   .     A
O13    Cu544   2.009   .     S
O14    Cu31    2.009   .     S
O14    C24     1.318   .     A
O15    Cu32    2.010   .     S
O15    C24     1.321   .     A
O16    C23     1.325   .     A
O16    Cu543   2.010   .     S
C17    C60     1.486   .     S
C18    C59     1.499   .     S
C19    C58     1.500   .     S
C20    C57     1.480   .     S
C21    C64     1.486   .     S
C22    C63     1.499   .     S
C23    C62     1.502   .     S
C24    C61     1.481   .     S
N25    C34     1.383   .     A
N25    Cu29    2.068   .     S
N25    C36     1.381   .     A
N26    C289    1.382   1_455 A
N26    Cu30    2.068   .     S
N26    C35     1.380   .     S
N27    C38     1.382   .     A
N27    Cu31    2.068   .     S
N27    C552    1.383   1_545 S
N28    Cu32    2.068   .     S
N28    C39     1.383   .     A
N28    C549    1.379   1_545 S
Cu29   Cu30    2.751   .     S
Cu29   O264    2.010   1_455 S
Cu29   O259    2.013   1_455 S
Cu30   O261    2.009   1_455 S
Cu30   O258    2.015   1_455 S
Cu31   Cu32    2.751   .     S
Cu31   O528    2.010   1_545 S
Cu31   O521    2.015   1_545 S
Cu32   O525    2.009   1_545 S
Cu32   O524    2.013   1_545 S
C33    O65     1.372   .     S
C33    N282    1.382   .     A
C33    C2340   1.423   1_554 S
C34    O67     1.371   .     S
C34    C1059   1.423   .     S
C35    O69     1.372   .     S
C35    C2082   1.423   1_554 S
C36    O71     1.373   .     S
C36    C1313   1.423   1_455 S
C37    O73     1.369   .     S
C37    N540    1.379   .     S
C37    C2088   1.422   1_554 S
C38    O75     1.375   .     S
C38    C1063   1.423   .     S
C39    O77     1.372   .     S
C39    C2086   1.423   1_554 S
C40    O79     1.374   .     S
C40    C1061   1.422   .     S
C40    N539    1.383   .     S
C41    C58     1.420   .     A
C41    O81     1.379   .     S
C41    C51     1.409   .     A
C42    C57     1.402   .     A
C42    O92     1.381   .     S
C42    C52     1.403   .     A
C43    O103    1.389   .     S
C43    C49     1.407   .     A
C43    C57     1.415   .     A
C44    C58     1.411   .     A
C44    C50     1.399   .     A
C44    O114    1.376   .     S
C45    C60     1.411   .     A
C45    O125    1.380   .     S
C45    C55     1.407   .     A
C46    C59     1.417   .     A
C46    O136    1.377   .     S
C46    C56     1.399   .     A
C47    C53     1.406   .     A
C47    O147    1.383   .     S
C47    C59     1.417   .     A
C48    C54     1.397   .     A
C48    C60     1.402   .     A
C48    O158    1.382   .     S
C49    C62     1.413   .     A
C49    O169    1.377   .     S
C50    O180    1.384   .     S
C50    C61     1.406   .     A
C51    C61     1.415   .     A
C51    O191    1.391   .     S
C52    C62     1.415   .     A
C52    O202    1.375   .     S
C53    C64     1.408   .     A
C53    O213    1.379   .     S
C54    C63     1.421   .     A
C54    O224    1.379   .     S
C55    C63     1.417   .     A
C55    O235    1.384   .     S
C56    C64     1.409   .     A
C56    O246    1.383   .     S
O65    H66     0.975   .     S
O67    H324    0.976   1_455 S
H68    O323    0.976   .     S
O69    H70     0.978   .     S
O71    H72     0.976   .     S
O73    H74     0.977   .     S
O75    H76     0.978   .     S
O77    H78     0.976   .     S
O79    H80     0.976   .     S
O81    C82     1.421   .     S
C82    H83     1.109   .     S
C82    H84     1.114   .     S
C82    C85     1.541   .     S
C85    H86     1.105   .     S
C85    H87     1.111   .     S
C85    C88     1.522   .     S
C88    H90     1.108   .     S
C88    H89     1.106   .     S
C88    H2139   1.105   1_554 S
H91    C1112   1.105   .     S
O92    C93     1.420   .     S
C93    H94     1.109   .     S
C93    C96     1.527   .     S
C93    H95     1.117   .     S
C96    C99     1.522   .     S
C96    H98     1.110   .     S
C96    H97     1.109   .     S
C99    H100    1.104   .     S
C99    H613    1.109   .     S
C99    H358    1.106   1_455 S
H101   C611    1.109   1_545 S
H102   C355    1.106   .     S
O103   C104    1.418   .     S
C104   H106    1.106   .     S
C104   H105    1.111   .     S
C104   C107    1.523   .     S
C107   H109    1.111   .     S
C107   C110    1.531   .     S
C107   H108    1.104   .     S
C110   H111    1.104   .     S
C110   H113    1.108   .     S
C110   H112    1.105   .     S
O114   C115    1.410   .     S
C115   H116    1.104   .     S
C115   H117    1.112   .     S
C115   C118    1.518   .     S
C118   H119    1.103   .     S
C118   H120    1.107   .     S
C118   C121    1.528   .     S
C121   H122    1.110   .     S
C121   H1147   1.105   .     S
C121   H1148   1.105   .     S
H123   C2169   1.105   1_554 S
H124   C2169   1.105   1_554 S
O125   C126    1.413   .     S
C126   H127    1.111   .     S
C126   C129    1.534   .     S
C126   H128    1.114   .     S
C129   H130    1.101   .     S
C129   C132    1.508   .     S
C129   H131    1.109   .     S
C132   H133    1.108   .     S
C132   H134    1.106   .     S
C132   H135    1.099   .     S
O136   C137    1.408   .     S
C137   H139    1.116   .     S
C137   C140    1.515   .     S
C137   H138    1.100   .     S
C140   C143    1.529   .     S
C140   H141    1.102   .     S
C140   H142    1.107   .     S
C143   H146    1.110   .     S
C143   H145    1.102   .     S
C143   H144    1.105   .     S
O147   C148    1.420   .     S
C148   C151    1.537   .     S
C148   H150    1.119   .     S
C148   H149    1.112   .     S
C151   C154    1.522   .     S
C151   H153    1.103   .     S
C151   H1176   1.104   .     S
H152   C2199   1.104   1_554 S
C154   H156    1.109   .     S
C154   H157    1.107   .     S
C154   H155    1.110   .     S
O158   C159    1.423   .     S
C159   H160    1.110   .     S
C159   C162    1.548   .     S
C159   H161    1.113   .     S
C162   H163    1.107   .     S
C162   C165    1.504   .     S
C162   H164    1.111   .     S
C165   H167    1.110   .     S
C165   H168    1.107   .     S
C165   H678    1.109   1_545 S
H166   C677    1.109   .     S
O169   C170    1.420   .     S
C170   H172    1.117   .     S
C170   H171    1.109   .     S
C170   C173    1.530   .     S
C173   C176    1.513   .     S
C173   H174    1.109   .     S
C173   H175    1.103   .     S
C176   H179    1.106   .     S
C176   H177    1.110   .     S
C176   H178    1.103   .     S
O180   C181    1.424   .     S
C181   H182    1.111   .     S
C181   H183    1.114   .     S
C181   C184    1.550   .     S
C184   H186    1.110   .     S
C184   H185    1.108   .     S
C184   C187    1.513   .     S
C187   H190    1.096   .     S
C187   H189    1.108   .     S
C187   H188    1.098   .     S
O191   C192    1.420   .     S
C192   C195    1.526   .     S
C192   H194    1.108   .     S
C192   H705    1.111   1_545 S
H193   C704    1.111   .     S
C195   H196    1.105   .     S
C195   H197    1.109   .     S
C195   C710    1.531   1_545 S
C198   H199    1.106   .     S
C198   H201    1.105   .     S
C198   H200    1.105   .     S
C198   C707    1.531   .     S
O202   C203    1.414   .     S
C203   H204    1.107   .     S
C203   C206    1.531   .     S
C203   H205    1.111   .     S
C206   H207    1.104   .     S
C206   C209    1.525   .     S
C206   H208    1.111   .     S
C209   H210    1.109   .     S
C209   H1235   1.106   .     S
C209   H1236   1.099   .     S
H211   C2257   1.106   1_554 S
H212   C2257   1.099   1_554 S
O213   C214    1.409   .     S
C214   H216    1.114   .     S
C214   H215    1.112   .     S
C214   C217    1.516   .     S
C217   H218    1.090   .     S
C217   H731    1.103   .     S
C217   C732    1.509   .     S
H219   C729    1.103   1_545 S
C220   H222    1.110   .     S
C220   H221    1.104   .     S
C220   C729    1.509   1_545 S
C220   H735    1.098   1_545 S
H223   C732    1.098   .     S
O224   C225    1.408   .     S
C225   C228    1.520   .     S
C225   H226    1.105   .     S
C225   H227    1.111   .     S
C228   H230    1.103   .     S
C228   H229    1.105   .     S
C228   C231    1.530   .     S
C231   H234    1.110   .     S
C231   H233    1.097   .     S
C231   H232    1.110   .     S
O235   C236    1.415   .     S
C236   H237    1.112   .     S
C236   C239    1.533   .     S
C236   H238    1.117   .     S
C239   H240    1.109   .     S
C239   H241    1.112   .     S
C239   C242    1.521   .     S
C242   H243    1.103   .     S
C242   H1268   1.109   .     S
C242   H1269   1.110   .     S
H244   C2290   1.109   1_554 S
H245   C2290   1.110   1_554 S
O246   C247    1.419   .     S
C247   H249    1.115   .     S
C247   H248    1.106   .     S
C247   C250    1.540   .     S
C250   H252    1.108   .     S
C250   C253    1.513   .     S
C250   H251    1.100   .     S
C253   H255    1.110   .     S
C253   H254    1.108   .     S
C253   H256    1.099   .     S
O257   Cu285   2.015   .     S
O257   C273    1.318   .     A
O258   C274    1.326   .     A
O258   Cu30    2.015   1_655 S
O259   C274    1.323   .     A
O259   Cu29    2.013   1_655 S
O260   C273    1.324   .     A
O260   Cu286   2.013   .     S
O261   C275    1.322   .     A
O261   Cu30    2.009   1_655 S
O262   C276    1.322   .     A
O262   Cu285   2.009   .     S
O263   Cu286   2.010   .     S
O263   C276    1.317   .     A
O264   C275    1.327   .     A
O264   Cu29    2.010   1_655 S
O265   C277    1.322   .     A
O265   Cu799   2.015   .     S
O266   C278    1.325   .     A
O266   Cu288   2.015   .     S
O267   Cu287   2.013   .     S
O267   C278    1.324   .     A
O268   C277    1.320   .     A
O268   Cu800   2.013   .     S
O269   C279    1.324   .     A
O269   Cu800   2.009   .     S
O270   Cu287   2.009   .     S
O270   C280    1.318   .     A
O271   Cu288   2.010   .     S
O271   C280    1.321   .     A
O272   C279    1.325   .     A
O272   Cu799   2.010   .     S
C273   C316    1.486   .     S
C274   C315    1.499   .     S
C275   C314    1.500   .     S
C276   C313    1.480   .     S
C277   C320    1.486   .     S
C278   C319    1.499   .     S
C279   C318    1.502   .     S
C280   C317    1.481   .     S
N281   C290    1.383   .     A
N281   Cu285   2.068   .     S
N281   C292    1.381   .     A
N282   Cu286   2.068   .     S
N282   C291    1.380   .     S
N283   C294    1.382   .     A
N283   Cu287   2.068   .     S
N283   C808    1.383   1_545 S
N284   Cu288   2.068   .     S
N284   C295    1.383   .     A
N284   C805    1.379   1_545 S
Cu285  Cu286   2.751   .     S
Cu287  Cu288   2.751   .     S
Cu287  O784    2.010   1_545 S
Cu287  O777    2.015   1_545 S
Cu288  O781    2.009   1_545 S
Cu288  O780    2.013   1_545 S
C289   O321    1.372   .     S
C289   N26     1.382   1_655 A
C289   C2084   1.423   1_654 S
C290   O323    1.371   .     S
C290   C1315   1.423   .     S
C291   O325    1.372   .     S
C291   C2338   1.423   1_554 S
C292   O327    1.373   .     S
C292   C1057   1.423   .     S
C293   O329    1.369   .     S
C293   N796    1.379   .     S
C293   C2344   1.422   1_554 S
C294   O331    1.375   .     S
C294   C1319   1.423   .     S
C295   O333    1.372   .     S
C295   C2342   1.423   1_554 S
C296   O335    1.374   .     S
C296   C1317   1.422   .     S
C296   N795    1.383   .     S
C297   C314    1.420   .     A
C297   O337    1.379   .     S
C297   C307    1.409   .     A
C298   C313    1.402   .     A
C298   O348    1.381   .     S
C298   C308    1.403   .     A
C299   O359    1.389   .     S
C299   C305    1.407   .     A
C299   C313    1.415   .     A
C300   C314    1.411   .     A
C300   C306    1.399   .     A
C300   O370    1.376   .     S
C301   C316    1.411   .     A
C301   O381    1.380   .     S
C301   C311    1.407   .     A
C302   C315    1.417   .     A
C302   O392    1.377   .     S
C302   C312    1.399   .     A
C303   C309    1.406   .     A
C303   O403    1.383   .     S
C303   C315    1.417   .     A
C304   C310    1.397   .     A
C304   C316    1.402   .     A
C304   O414    1.382   .     S
C305   C318    1.413   .     A
C305   O425    1.377   .     S
C306   O436    1.384   .     S
C306   C317    1.406   .     A
C307   C317    1.415   .     A
C307   O447    1.391   .     S
C308   C318    1.415   .     A
C308   O458    1.375   .     S
C309   C320    1.408   .     A
C309   O469    1.379   .     S
C310   C319    1.421   .     A
C310   O480    1.379   .     S
C311   C319    1.417   .     A
C311   O491    1.384   .     S
C312   C320    1.409   .     A
C312   O502    1.383   .     S
O321   H322    0.975   .     S
H324   O67     0.976   1_655 S
O325   H326    0.978   .     S
O327   H328    0.976   .     S
O329   H330    0.977   .     S
O331   H332    0.978   .     S
O333   H334    0.976   .     S
O335   H336    0.976   .     S
O337   C338    1.421   .     S
C338   H339    1.109   .     S
C338   H340    1.114   .     S
C338   C341    1.541   .     S
C341   H342    1.105   .     S
C341   H343    1.111   .     S
C341   C344    1.522   .     S
C344   H346    1.108   .     S
C344   H345    1.106   .     S
C344   H2395   1.105   1_554 S
H347   C1368   1.105   .     S
O348   C349    1.420   .     S
C349   H350    1.109   .     S
C349   C352    1.527   .     S
C349   H351    1.117   .     S
C352   C355    1.522   .     S
C352   H354    1.110   .     S
C352   H353    1.109   .     S
C355   H356    1.104   .     S
C355   H869    1.109   .     S
H357   C867    1.109   1_545 S
H358   C99     1.106   1_655 S
O359   C360    1.418   .     S
C360   H362    1.106   .     S
C360   H361    1.111   .     S
C360   C363    1.523   .     S
C363   H365    1.111   .     S
C363   C366    1.531   .     S
C363   H364    1.104   .     S
C366   H367    1.104   .     S
C366   H369    1.108   .     S
C366   H368    1.105   .     S
O370   C371    1.410   .     S
C371   H372    1.104   .     S
C371   H373    1.112   .     S
C371   C374    1.518   .     S
C374   H375    1.103   .     S
C374   H376    1.107   .     S
C374   C377    1.528   .     S
C377   H378    1.110   .     S
C377   H1403   1.105   .     S
C377   H1404   1.105   .     S
H379   C2425   1.105   1_554 S
H380   C2425   1.105   1_554 S
O381   C382    1.413   .     S
C382   H383    1.111   .     S
C382   C385    1.534   .     S
C382   H384    1.114   .     S
C385   H386    1.101   .     S
C385   C388    1.508   .     S
C385   H387    1.109   .     S
C388   H389    1.108   .     S
C388   H390    1.106   .     S
C388   H391    1.099   .     S
O392   C393    1.408   .     S
C393   H395    1.116   .     S
C393   C396    1.515   .     S
C393   H394    1.100   .     S
C396   C399    1.529   .     S
C396   H397    1.102   .     S
C396   H398    1.107   .     S
C399   H402    1.110   .     S
C399   H401    1.102   .     S
C399   H400    1.105   .     S
O403   C404    1.420   .     S
C404   C407    1.537   .     S
C404   H406    1.119   .     S
C404   H405    1.112   .     S
C407   C410    1.522   .     S
C407   H409    1.103   .     S
C407   H1432   1.104   .     S
H408   C2455   1.104   1_554 S
C410   H412    1.109   .     S
C410   H413    1.107   .     S
C410   H411    1.110   .     S
O414   C415    1.423   .     S
C415   H416    1.110   .     S
C415   C418    1.548   .     S
C415   H417    1.113   .     S
C418   H419    1.107   .     S
C418   C421    1.504   .     S
C418   H420    1.111   .     S
C421   H423    1.110   .     S
C421   H424    1.107   .     S
C421   H934    1.109   1_545 S
H422   C933    1.109   .     S
O425   C426    1.420   .     S
C426   H428    1.117   .     S
C426   H427    1.109   .     S
C426   C429    1.530   .     S
C429   C432    1.513   .     S
C429   H430    1.109   .     S
C429   H431    1.103   .     S
C432   H435    1.106   .     S
C432   H433    1.110   .     S
C432   H434    1.103   .     S
O436   C437    1.424   .     S
C437   H438    1.111   .     S
C437   H439    1.114   .     S
C437   C440    1.550   .     S
C440   H442    1.110   .     S
C440   H441    1.108   .     S
C440   C443    1.513   .     S
C443   H446    1.096   .     S
C443   H445    1.108   .     S
C443   H444    1.098   .     S
O447   C448    1.420   .     S
C448   C451    1.526   .     S
C448   H450    1.108   .     S
C448   H961    1.111   1_545 S
H449   C960    1.111   .     S
C451   H452    1.105   .     S
C451   H453    1.109   .     S
C451   C966    1.531   1_545 S
C454   H455    1.106   .     S
C454   H457    1.105   .     S
C454   H456    1.105   .     S
C454   C963    1.531   .     S
O458   C459    1.414   .     S
C459   H460    1.107   .     S
C459   C462    1.531   .     S
C459   H461    1.111   .     S
C462   H463    1.104   .     S
C462   C465    1.525   .     S
C462   H464    1.111   .     S
C465   H466    1.109   .     S
C465   H1491   1.106   .     S
C465   H1492   1.099   .     S
H467   C2513   1.106   1_554 S
H468   C2513   1.099   1_554 S
O469   C470    1.409   .     S
C470   H472    1.114   .     S
C470   H471    1.112   .     S
C470   C473    1.516   .     S
C473   H474    1.090   .     S
C473   H987    1.103   .     S
C473   C988    1.509   .     S
H475   C985    1.103   1_545 S
C476   H478    1.110   .     S
C476   H477    1.104   .     S
C476   C985    1.509   1_545 S
C476   H991    1.098   1_545 S
H479   C988    1.098   .     S
O480   C481    1.408   .     S
C481   C484    1.520   .     S
C481   H482    1.105   .     S
C481   H483    1.111   .     S
C484   H486    1.103   .     S
C484   H485    1.105   .     S
C484   C487    1.530   .     S
C487   H490    1.110   .     S
C487   H489    1.097   .     S
C487   H488    1.110   .     S
O491   C492    1.415   .     S
C492   H493    1.112   .     S
C492   C495    1.533   .     S
C492   H494    1.117   .     S
C495   H496    1.109   .     S
C495   H497    1.112   .     S
C495   C498    1.521   .     S
C498   H499    1.103   .     S
C498   H1524   1.109   .     S
C498   H1525   1.110   .     S
H500   C2546   1.109   1_554 S
H501   C2546   1.110   1_554 S
O502   C503    1.419   .     S
C503   H505    1.115   .     S
C503   H504    1.106   .     S
C503   C506    1.540   .     S
C506   H508    1.108   .     S
C506   C509    1.513   .     S
C506   H507    1.100   .     S
C509   H511    1.110   .     S
C509   H510    1.108   .     S
C509   H512    1.099   .     S
O513   Cu541   2.015   .     S
O513   C529    1.318   .     A
O514   C530    1.326   .     A
O514   Cu798   2.015   .     S
O515   C530    1.323   .     A
O515   Cu797   2.013   .     S
O516   C529    1.324   .     A
O516   Cu542   2.013   .     S
O517   C531    1.322   .     A
O517   Cu798   2.009   .     S
O518   C532    1.322   .     A
O518   Cu541   2.009   .     S
O519   Cu542   2.010   .     S
O519   C532    1.317   .     A
O520   C531    1.327   .     A
O520   Cu797   2.010   .     S
O521   C533    1.322   .     A
O521   Cu31    2.015   1_565 S
O522   C534    1.325   .     A
O522   Cu544   2.015   .     S
O523   Cu543   2.013   .     S
O523   C534    1.324   .     A
O524   C533    1.320   .     A
O524   Cu32    2.013   1_565 S
O525   C535    1.324   .     A
O525   Cu32    2.009   1_565 S
O526   Cu543   2.009   .     S
O526   C536    1.318   .     A
O527   Cu544   2.010   .     S
O527   C536    1.321   .     A
O528   C535    1.325   .     A
O528   Cu31    2.010   1_565 S
C529   C572    1.486   .     S
C530   C571    1.499   .     S
C531   C570    1.500   .     S
C532   C569    1.480   .     S
C533   C576    1.486   .     S
C534   C575    1.499   .     S
C535   C574    1.502   .     S
C536   C573    1.481   .     S
N537   C546    1.383   .     A
N537   Cu541   2.068   .     S
N537   C548    1.381   .     A
N538   C801    1.382   1_455 A
N538   Cu542   2.068   .     S
N538   C547    1.380   .     S
N539   C550    1.382   .     A
N539   Cu543   2.068   .     S
N540   Cu544   2.068   .     S
N540   C551    1.383   .     A
Cu541  Cu542   2.751   .     S
Cu541  O776    2.010   1_455 S
Cu541  O771    2.013   1_455 S
Cu542  O773    2.009   1_455 S
Cu542  O770    2.015   1_455 S
Cu543  Cu544   2.751   .     S
C545   O577    1.372   .     S
C545   N794    1.382   .     A
C545   C2852   1.423   1_554 S
C546   O579    1.371   .     S
C546   C1571   1.423   .     S
C547   O581    1.372   .     S
C547   C2594   1.423   1_554 S
C548   O583    1.373   .     S
C548   C1825   1.423   1_455 S
C549   O585    1.369   .     S
C549   N28     1.379   1_565 S
C549   C2600   1.422   1_554 S
C550   O587    1.375   .     S
C550   C1575   1.423   .     S
C551   O589    1.372   .     S
C551   C2598   1.423   1_554 S
C552   O591    1.374   .     S
C552   C1573   1.422   .     S
C552   N27     1.383   1_565 S
C553   C570    1.420   .     A
C553   O593    1.379   .     S
C553   C563    1.409   .     A
C554   C569    1.402   .     A
C554   O604    1.381   .     S
C554   C564    1.403   .     A
C555   O615    1.389   .     S
C555   C561    1.407   .     A
C555   C569    1.415   .     A
C556   C570    1.411   .     A
C556   C562    1.399   .     A
C556   O626    1.376   .     S
C557   C572    1.411   .     A
C557   O637    1.380   .     S
C557   C567    1.407   .     A
C558   C571    1.417   .     A
C558   O648    1.377   .     S
C558   C568    1.399   .     A
C559   C565    1.406   .     A
C559   O659    1.383   .     S
C559   C571    1.417   .     A
C560   C566    1.397   .     A
C560   C572    1.402   .     A
C560   O670    1.382   .     S
C561   C574    1.413   .     A
C561   O681    1.377   .     S
C562   O692    1.384   .     S
C562   C573    1.406   .     A
C563   C573    1.415   .     A
C563   O703    1.391   .     S
C564   C574    1.415   .     A
C564   O714    1.375   .     S
C565   C576    1.408   .     A
C565   O725    1.379   .     S
C566   C575    1.421   .     A
C566   O736    1.379   .     S
C567   C575    1.417   .     A
C567   O747    1.384   .     S
C568   C576    1.409   .     A
C568   O758    1.383   .     S
O577   H578    0.975   .     S
O579   H836    0.976   1_455 S
H580   O835    0.976   .     S
O581   H582    0.978   .     S
O583   H584    0.976   .     S
O585   H586    0.977   .     S
O587   H588    0.978   .     S
O589   H590    0.976   .     S
O591   H592    0.976   .     S
O593   C594    1.421   .     S
C594   H595    1.109   .     S
C594   H596    1.114   .     S
C594   C597    1.541   .     S
C597   H598    1.105   .     S
C597   H599    1.111   .     S
C597   C600    1.522   .     S
C600   H602    1.108   .     S
C600   H601    1.106   .     S
C600   H2651   1.105   1_554 S
H603   C1624   1.105   .     S
O604   C605    1.420   .     S
C605   H606    1.109   .     S
C605   C608    1.527   .     S
C605   H607    1.117   .     S
C608   C611    1.522   .     S
C608   H610    1.110   .     S
C608   H609    1.109   .     S
C611   H612    1.104   .     S
C611   H101    1.109   1_565 S
C611   H870    1.106   1_455 S
H614   C867    1.106   .     S
O615   C616    1.418   .     S
C616   H618    1.106   .     S
C616   H617    1.111   .     S
C616   C619    1.523   .     S
C619   H621    1.111   .     S
C619   C622    1.531   .     S
C619   H620    1.104   .     S
C622   H623    1.104   .     S
C622   H625    1.108   .     S
C622   H624    1.105   .     S
O626   C627    1.410   .     S
C627   H628    1.104   .     S
C627   H629    1.112   .     S
C627   C630    1.518   .     S
C630   H631    1.103   .     S
C630   H632    1.107   .     S
C630   C633    1.528   .     S
C633   H634    1.110   .     S
C633   H1659   1.105   .     S
C633   H1660   1.105   .     S
H635   C2681   1.105   1_554 S
H636   C2681   1.105   1_554 S
O637   C638    1.413   .     S
C638   H639    1.111   .     S
C638   C641    1.534   .     S
C638   H640    1.114   .     S
C641   H642    1.101   .     S
C641   C644    1.508   .     S
C641   H643    1.109   .     S
C644   H645    1.108   .     S
C644   H646    1.106   .     S
C644   H647    1.099   .     S
O648   C649    1.408   .     S
C649   H651    1.116   .     S
C649   C652    1.515   .     S
C649   H650    1.100   .     S
C652   C655    1.529   .     S
C652   H653    1.102   .     S
C652   H654    1.107   .     S
C655   H658    1.110   .     S
C655   H657    1.102   .     S
C655   H656    1.105   .     S
O659   C660    1.420   .     S
C660   C663    1.537   .     S
C660   H662    1.119   .     S
C660   H661    1.112   .     S
C663   C666    1.522   .     S
C663   H665    1.103   .     S
C663   H1688   1.104   .     S
H664   C2711   1.104   1_554 S
C666   H668    1.109   .     S
C666   H669    1.107   .     S
C666   H667    1.110   .     S
O670   C671    1.423   .     S
C671   H672    1.110   .     S
C671   C674    1.548   .     S
C671   H673    1.113   .     S
C674   H675    1.107   .     S
C674   C677    1.504   .     S
C674   H676    1.111   .     S
C677   H679    1.110   .     S
C677   H680    1.107   .     S
H678   C165    1.109   1_565 S
O681   C682    1.420   .     S
C682   H684    1.117   .     S
C682   H683    1.109   .     S
C682   C685    1.530   .     S
C685   C688    1.513   .     S
C685   H686    1.109   .     S
C685   H687    1.103   .     S
C688   H691    1.106   .     S
C688   H689    1.110   .     S
C688   H690    1.103   .     S
O692   C693    1.424   .     S
C693   H694    1.111   .     S
C693   H695    1.114   .     S
C693   C696    1.550   .     S
C696   H698    1.110   .     S
C696   H697    1.108   .     S
C696   C699    1.513   .     S
C699   H702    1.096   .     S
C699   H701    1.108   .     S
C699   H700    1.098   .     S
O703   C704    1.420   .     S
C704   C707    1.526   .     S
C704   H706    1.108   .     S
H705   C192    1.111   1_565 S
C707   H708    1.105   .     S
C707   H709    1.109   .     S
C710   H711    1.106   .     S
C710   H713    1.105   .     S
C710   H712    1.105   .     S
C710   C195    1.531   1_565 S
O714   C715    1.414   .     S
C715   H716    1.107   .     S
C715   C718    1.531   .     S
C715   H717    1.111   .     S
C718   H719    1.104   .     S
C718   C721    1.525   .     S
C718   H720    1.111   .     S
C721   H722    1.109   .     S
C721   H1747   1.106   .     S
C721   H1748   1.099   .     S
H723   C2769   1.106   1_554 S
H724   C2769   1.099   1_554 S
O725   C726    1.409   .     S
C726   H728    1.114   .     S
C726   H727    1.112   .     S
C726   C729    1.516   .     S
C729   H730    1.090   .     S
C729   H219    1.103   1_565 S
C729   C220    1.509   1_565 S
C732   H734    1.110   .     S
C732   H733    1.104   .     S
H735   C220    1.098   1_565 S
O736   C737    1.408   .     S
C737   C740    1.520   .     S
C737   H738    1.105   .     S
C737   H739    1.111   .     S
C740   H742    1.103   .     S
C740   H741    1.105   .     S
C740   C743    1.530   .     S
C743   H746    1.110   .     S
C743   H745    1.097   .     S
C743   H744    1.110   .     S
O747   C748    1.415   .     S
C748   H749    1.112   .     S
C748   C751    1.533   .     S
C748   H750    1.117   .     S
C751   H752    1.109   .     S
C751   H753    1.112   .     S
C751   C754    1.521   .     S
C754   H755    1.103   .     S
C754   H1780   1.109   .     S
C754   H1781   1.110   .     S
H756   C2802   1.109   1_554 S
H757   C2802   1.110   1_554 S
O758   C759    1.419   .     S
C759   H761    1.115   .     S
C759   H760    1.106   .     S
C759   C762    1.540   .     S
C762   H764    1.108   .     S
C762   C765    1.513   .     S
C762   H763    1.100   .     S
C765   H767    1.110   .     S
C765   H766    1.108   .     S
C765   H768    1.099   .     S
O769   Cu797   2.015   .     S
O769   C785    1.318   .     A
O770   C786    1.326   .     A
O770   Cu542   2.015   1_655 S
O771   C786    1.323   .     A
O771   Cu541   2.013   1_655 S
O772   C785    1.324   .     A
O772   Cu798   2.013   .     S
O773   C787    1.322   .     A
O773   Cu542   2.009   1_655 S
O774   C788    1.322   .     A
O774   Cu797   2.009   .     S
O775   Cu798   2.010   .     S
O775   C788    1.317   .     A
O776   C787    1.327   .     A
O776   Cu541   2.010   1_655 S
O777   C789    1.322   .     A
O777   Cu287   2.015   1_565 S
O778   C790    1.325   .     A
O778   Cu800   2.015   .     S
O779   Cu799   2.013   .     S
O779   C790    1.324   .     A
O780   C789    1.320   .     A
O780   Cu288   2.013   1_565 S
O781   C791    1.324   .     A
O781   Cu288   2.009   1_565 S
O782   Cu799   2.009   .     S
O782   C792    1.318   .     A
O783   Cu800   2.010   .     S
O783   C792    1.321   .     A
O784   C791    1.325   .     A
O784   Cu287   2.010   1_565 S
C785   C828    1.486   .     S
C786   C827    1.499   .     S
C787   C826    1.500   .     S
C788   C825    1.480   .     S
C789   C832    1.486   .     S
C790   C831    1.499   .     S
C791   C830    1.502   .     S
C792   C829    1.481   .     S
N793   C802    1.383   .     A
N793   Cu797   2.068   .     S
N793   C804    1.381   .     A
N794   Cu798   2.068   .     S
N794   C803    1.380   .     S
N795   C806    1.382   .     A
N795   Cu799   2.068   .     S
N796   Cu800   2.068   .     S
N796   C807    1.383   .     A
Cu797  Cu798   2.751   .     S
Cu799  Cu800   2.751   .     S
C801   O833    1.372   .     S
C801   N538    1.382   1_655 A
C801   C2596   1.423   1_654 S
C802   O835    1.371   .     S
C802   C1827   1.423   .     S
C803   O837    1.372   .     S
C803   C2850   1.423   1_554 S
C804   O839    1.373   .     S
C804   C1569   1.423   .     S
C805   O841    1.369   .     S
C805   N284    1.379   1_565 S
C805   C2856   1.422   1_554 S
C806   O843    1.375   .     S
C806   C1831   1.423   .     S
C807   O845    1.372   .     S
C807   C2854   1.423   1_554 S
C808   O847    1.374   .     S
C808   C1829   1.422   .     S
C808   N283    1.383   1_565 S
C809   C826    1.420   .     A
C809   O849    1.379   .     S
C809   C819    1.409   .     A
C810   C825    1.402   .     A
C810   O860    1.381   .     S
C810   C820    1.403   .     A
C811   O871    1.389   .     S
C811   C817    1.407   .     A
C811   C825    1.415   .     A
C812   C826    1.411   .     A
C812   C818    1.399   .     A
C812   O882    1.376   .     S
C813   C828    1.411   .     A
C813   O893    1.380   .     S
C813   C823    1.407   .     A
C814   C827    1.417   .     A
C814   O904    1.377   .     S
C814   C824    1.399   .     A
C815   C821    1.406   .     A
C815   O915    1.383   .     S
C815   C827    1.417   .     A
C816   C822    1.397   .     A
C816   C828    1.402   .     A
C816   O926    1.382   .     S
C817   C830    1.413   .     A
C817   O937    1.377   .     S
C818   O948    1.384   .     S
C818   C829    1.406   .     A
C819   C829    1.415   .     A
C819   O959    1.391   .     S
C820   C830    1.415   .     A
C820   O970    1.375   .     S
C821   C832    1.408   .     A
C821   O981    1.379   .     S
C822   C831    1.421   .     A
C822   O992    1.379   .     S
C823   C831    1.417   .     A
C823   O1003   1.384   .     S
C824   C832    1.409   .     A
C824   O1014   1.383   .     S
O833   H834    0.975   .     S
H836   O579    0.976   1_655 S
O837   H838    0.978   .     S
O839   H840    0.976   .     S
O841   H842    0.977   .     S
O843   H844    0.978   .     S
O845   H846    0.976   .     S
O847   H848    0.976   .     S
O849   C850    1.421   .     S
C850   H851    1.109   .     S
C850   H852    1.114   .     S
C850   C853    1.541   .     S
C853   H854    1.105   .     S
C853   H855    1.111   .     S
C853   C856    1.522   .     S
C856   H858    1.108   .     S
C856   H857    1.106   .     S
C856   H2907   1.105   1_554 S
H859   C1880   1.105   .     S
O860   C861    1.420   .     S
C861   H862    1.109   .     S
C861   C864    1.527   .     S
C861   H863    1.117   .     S
C864   C867    1.522   .     S
C864   H866    1.110   .     S
C864   H865    1.109   .     S
C867   H868    1.104   .     S
C867   H357    1.109   1_565 S
H870   C611    1.106   1_655 S
O871   C872    1.418   .     S
C872   H874    1.106   .     S
C872   H873    1.111   .     S
C872   C875    1.523   .     S
C875   H877    1.111   .     S
C875   C878    1.531   .     S
C875   H876    1.104   .     S
C878   H879    1.104   .     S
C878   H881    1.108   .     S
C878   H880    1.105   .     S
O882   C883    1.410   .     S
C883   H884    1.104   .     S
C883   H885    1.112   .     S
C883   C886    1.518   .     S
C886   H887    1.103   .     S
C886   H888    1.107   .     S
C886   C889    1.528   .     S
C889   H890    1.110   .     S
C889   H1915   1.105   .     S
C889   H1916   1.105   .     S
H891   C2937   1.105   1_554 S
H892   C2937   1.105   1_554 S
O893   C894    1.413   .     S
C894   H895    1.111   .     S
C894   C897    1.534   .     S
C894   H896    1.114   .     S
C897   H898    1.101   .     S
C897   C900    1.508   .     S
C897   H899    1.109   .     S
C900   H901    1.108   .     S
C900   H902    1.106   .     S
C900   H903    1.099   .     S
O904   C905    1.408   .     S
C905   H907    1.116   .     S
C905   C908    1.515   .     S
C905   H906    1.100   .     S
C908   C911    1.529   .     S
C908   H909    1.102   .     S
C908   H910    1.107   .     S
C911   H914    1.110   .     S
C911   H913    1.102   .     S
C911   H912    1.105   .     S
O915   C916    1.420   .     S
C916   C919    1.537   .     S
C916   H918    1.119   .     S
C916   H917    1.112   .     S
C919   C922    1.522   .     S
C919   H921    1.103   .     S
C919   H1944   1.104   .     S
H920   C2967   1.104   1_554 S
C922   H924    1.109   .     S
C922   H925    1.107   .     S
C922   H923    1.110   .     S
O926   C927    1.423   .     S
C927   H928    1.110   .     S
C927   C930    1.548   .     S
C927   H929    1.113   .     S
C930   H931    1.107   .     S
C930   C933    1.504   .     S
C930   H932    1.111   .     S
C933   H935    1.110   .     S
C933   H936    1.107   .     S
H934   C421    1.109   1_565 S
O937   C938    1.420   .     S
C938   H940    1.117   .     S
C938   H939    1.109   .     S
C938   C941    1.530   .     S
C941   C944    1.513   .     S
C941   H942    1.109   .     S
C941   H943    1.103   .     S
C944   H947    1.106   .     S
C944   H945    1.110   .     S
C944   H946    1.103   .     S
O948   C949    1.424   .     S
C949   H950    1.111   .     S
C949   H951    1.114   .     S
C949   C952    1.550   .     S
C952   H954    1.110   .     S
C952   H953    1.108   .     S
C952   C955    1.513   .     S
C955   H958    1.096   .     S
C955   H957    1.108   .     S
C955   H956    1.098   .     S
O959   C960    1.420   .     S
C960   C963    1.526   .     S
C960   H962    1.108   .     S
H961   C448    1.111   1_565 S
C963   H964    1.105   .     S
C963   H965    1.109   .     S
C966   H967    1.106   .     S
C966   H969    1.105   .     S
C966   H968    1.105   .     S
C966   C451    1.531   1_565 S
O970   C971    1.414   .     S
C971   H972    1.107   .     S
C971   C974    1.531   .     S
C971   H973    1.111   .     S
C974   H975    1.104   .     S
C974   C977    1.525   .     S
C974   H976    1.111   .     S
C977   H978    1.109   .     S
C977   H2003   1.106   .     S
C977   H2004   1.099   .     S
H979   C3025   1.106   1_554 S
H980   C3025   1.099   1_554 S
O981   C982    1.409   .     S
C982   H984    1.114   .     S
C982   H983    1.112   .     S
C982   C985    1.516   .     S
C985   H986    1.090   .     S
C985   H475    1.103   1_565 S
C985   C476    1.509   1_565 S
C988   H990    1.110   .     S
C988   H989    1.104   .     S
H991   C476    1.098   1_565 S
O992   C993    1.408   .     S
C993   C996    1.520   .     S
C993   H994    1.105   .     S
C993   H995    1.111   .     S
C996   H998    1.103   .     S
C996   H997    1.105   .     S
C996   C999    1.530   .     S
C999   H1002   1.110   .     S
C999   H1001   1.097   .     S
C999   H1000   1.110   .     S
O1003  C1004   1.415   .     S
C1004  H1005   1.112   .     S
C1004  C1007   1.533   .     S
C1004  H1006   1.117   .     S
C1007  H1008   1.109   .     S
C1007  H1009   1.112   .     S
C1007  C1010   1.521   .     S
C1010  H1011   1.103   .     S
C1010  H2036   1.109   .     S
C1010  H2037   1.110   .     S
H1012  C3058   1.109   1_554 S
H1013  C3058   1.110   1_554 S
O1014  C1015   1.419   .     S
C1015  H1017   1.115   .     S
C1015  H1016   1.106   .     S
C1015  C1018   1.540   .     S
C1018  H1020   1.108   .     S
C1018  C1021   1.513   .     S
C1018  H1019   1.100   .     S
C1021  H1023   1.110   .     S
C1021  H1022   1.108   .     S
C1021  H1024   1.099   .     S
O1025  Cu1053  2.015   .     S
O1025  C1041   1.318   .     A
O1026  C1042   1.326   .     A
O1026  Cu1310  2.015   .     S
O1027  C1042   1.323   .     A
O1027  Cu1309  2.013   .     S
O1028  C1041   1.324   .     A
O1028  Cu1054  2.013   .     S
O1029  C1043   1.322   .     A
O1029  Cu1310  2.009   .     S
O1030  C1044   1.322   .     A
O1030  Cu1053  2.009   .     S
O1031  Cu1054  2.010   .     S
O1031  C1044   1.317   .     A
O1032  C1043   1.327   .     A
O1032  Cu1309  2.010   .     S
O1033  C1045   1.322   .     A
O1033  Cu1567  2.015   .     S
O1034  C1046   1.325   .     A
O1034  Cu1056  2.015   .     S
O1035  Cu1055  2.013   .     S
O1035  C1046   1.324   .     A
O1036  C1045   1.320   .     A
O1036  Cu1568  2.013   .     S
O1037  C1047   1.324   .     A
O1037  Cu1568  2.009   .     S
O1038  Cu1055  2.009   .     S
O1038  C1048   1.318   .     A
O1039  Cu1056  2.010   .     S
O1039  C1048   1.321   .     A
O1040  C1047   1.325   .     A
O1040  Cu1567  2.010   .     S
C1041  C1084   1.486   .     S
C1042  C1083   1.499   .     S
C1043  C1082   1.500   .     S
C1044  C1081   1.480   .     S
C1045  C1088   1.486   .     S
C1046  C1087   1.499   .     S
C1047  C1086   1.502   .     S
C1048  C1085   1.481   .     S
N1049  C1058   1.383   .     A
N1049  Cu1053  2.068   .     S
N1049  C1060   1.381   .     A
N1050  C1313   1.382   1_455 A
N1050  Cu1054  2.068   .     S
N1050  C1059   1.380   .     S
N1051  C1062   1.382   .     A
N1051  Cu1055  2.068   .     S
N1051  C1576   1.383   1_545 S
N1052  Cu1056  2.068   .     S
N1052  C1063   1.383   .     A
N1052  C1573   1.379   1_545 S
Cu1053 Cu1054  2.751   .     S
Cu1053 O1288   2.010   1_455 S
Cu1053 O1283   2.013   1_455 S
Cu1054 O1285   2.009   1_455 S
Cu1054 O1282   2.015   1_455 S
Cu1055 Cu1056  2.751   .     S
Cu1055 O1552   2.010   1_545 S
Cu1055 O1545   2.015   1_545 S
Cu1056 O1549   2.009   1_545 S
Cu1056 O1548   2.013   1_545 S
C1057  O1089   1.372   .     S
C1057  N1306   1.382   .     A
C1058  O1091   1.371   .     S
C1058  C2083   1.423   .     S
C1059  O1093   1.372   .     S
C1060  O1095   1.373   .     S
C1060  C2337   1.423   1_455 S
C1061  O1097   1.369   .     S
C1061  N1564   1.379   .     S
C1062  O1099   1.375   .     S
C1062  C2087   1.423   .     S
C1063  O1101   1.372   .     S
C1064  O1103   1.374   .     S
C1064  C2085   1.422   .     S
C1064  N1563   1.383   .     S
C1065  C1082   1.420   .     A
C1065  O1105   1.379   .     S
C1065  C1075   1.409   .     A
C1066  C1081   1.402   .     A
C1066  O1116   1.381   .     S
C1066  C1076   1.403   .     A
C1067  O1127   1.389   .     S
C1067  C1073   1.407   .     A
C1067  C1081   1.415   .     A
C1068  C1082   1.411   .     A
C1068  C1074   1.399   .     A
C1068  O1138   1.376   .     S
C1069  C1084   1.411   .     A
C1069  O1149   1.380   .     S
C1069  C1079   1.407   .     A
C1070  C1083   1.417   .     A
C1070  O1160   1.377   .     S
C1070  C1080   1.399   .     A
C1071  C1077   1.406   .     A
C1071  O1171   1.383   .     S
C1071  C1083   1.417   .     A
C1072  C1078   1.397   .     A
C1072  C1084   1.402   .     A
C1072  O1182   1.382   .     S
C1073  C1086   1.413   .     A
C1073  O1193   1.377   .     S
C1074  O1204   1.384   .     S
C1074  C1085   1.406   .     A
C1075  C1085   1.415   .     A
C1075  O1215   1.391   .     S
C1076  C1086   1.415   .     A
C1076  O1226   1.375   .     S
C1077  C1088   1.408   .     A
C1077  O1237   1.379   .     S
C1078  C1087   1.421   .     A
C1078  O1248   1.379   .     S
C1079  C1087   1.417   .     A
C1079  O1259   1.384   .     S
C1080  C1088   1.409   .     A
C1080  O1270   1.383   .     S
O1089  H1090   0.975   .     S
O1091  H1348   0.976   1_455 S
H1092  O1347   0.976   .     S
O1093  H1094   0.978   .     S
O1095  H1096   0.976   .     S
O1097  H1098   0.977   .     S
O1099  H1100   0.978   .     S
O1101  H1102   0.976   .     S
O1103  H1104   0.976   .     S
O1105  C1106   1.421   .     S
C1106  H1107   1.109   .     S
C1106  H1108   1.114   .     S
C1106  C1109   1.541   .     S
C1109  H1110   1.105   .     S
C1109  H1111   1.111   .     S
C1109  C1112   1.522   .     S
C1112  H1114   1.108   .     S
C1112  H1113   1.106   .     S
H1115  C2136   1.105   .     S
O1116  C1117   1.420   .     S
C1117  H1118   1.109   .     S
C1117  C1120   1.527   .     S
C1117  H1119   1.117   .     S
C1120  C1123   1.522   .     S
C1120  H1122   1.110   .     S
C1120  H1121   1.109   .     S
C1123  H1124   1.104   .     S
C1123  H1637   1.109   .     S
C1123  H1382   1.106   1_455 S
H1125  C1635   1.109   1_545 S
H1126  C1379   1.106   .     S
O1127  C1128   1.418   .     S
C1128  H1130   1.106   .     S
C1128  H1129   1.111   .     S
C1128  C1131   1.523   .     S
C1131  H1133   1.111   .     S
C1131  C1134   1.531   .     S
C1131  H1132   1.104   .     S
C1134  H1135   1.104   .     S
C1134  H1137   1.108   .     S
C1134  H1136   1.105   .     S
O1138  C1139   1.410   .     S
C1139  H1140   1.104   .     S
C1139  H1141   1.112   .     S
C1139  C1142   1.518   .     S
C1142  H1143   1.103   .     S
C1142  H1144   1.107   .     S
C1142  C1145   1.528   .     S
C1145  H1146   1.110   .     S
C1145  H2171   1.105   .     S
C1145  H2172   1.105   .     S
O1149  C1150   1.413   .     S
C1150  H1151   1.111   .     S
C1150  C1153   1.534   .     S
C1150  H1152   1.114   .     S
C1153  H1154   1.101   .     S
C1153  C1156   1.508   .     S
C1153  H1155   1.109   .     S
C1156  H1157   1.108   .     S
C1156  H1158   1.106   .     S
C1156  H1159   1.099   .     S
O1160  C1161   1.408   .     S
C1161  H1163   1.116   .     S
C1161  C1164   1.515   .     S
C1161  H1162   1.100   .     S
C1164  C1167   1.529   .     S
C1164  H1165   1.102   .     S
C1164  H1166   1.107   .     S
C1167  H1170   1.110   .     S
C1167  H1169   1.102   .     S
C1167  H1168   1.105   .     S
O1171  C1172   1.420   .     S
C1172  C1175   1.537   .     S
C1172  H1174   1.119   .     S
C1172  H1173   1.112   .     S
C1175  C1178   1.522   .     S
C1175  H1177   1.103   .     S
C1175  H2200   1.104   .     S
C1178  H1180   1.109   .     S
C1178  H1181   1.107   .     S
C1178  H1179   1.110   .     S
O1182  C1183   1.423   .     S
C1183  H1184   1.110   .     S
C1183  C1186   1.548   .     S
C1183  H1185   1.113   .     S
C1186  H1187   1.107   .     S
C1186  C1189   1.504   .     S
C1186  H1188   1.111   .     S
C1189  H1191   1.110   .     S
C1189  H1192   1.107   .     S
C1189  H1702   1.109   1_545 S
H1190  C1701   1.109   .     S
O1193  C1194   1.420   .     S
C1194  H1196   1.117   .     S
C1194  H1195   1.109   .     S
C1194  C1197   1.530   .     S
C1197  C1200   1.513   .     S
C1197  H1198   1.109   .     S
C1197  H1199   1.103   .     S
C1200  H1203   1.106   .     S
C1200  H1201   1.110   .     S
C1200  H1202   1.103   .     S
O1204  C1205   1.424   .     S
C1205  H1206   1.111   .     S
C1205  H1207   1.114   .     S
C1205  C1208   1.550   .     S
C1208  H1210   1.110   .     S
C1208  H1209   1.108   .     S
C1208  C1211   1.513   .     S
C1211  H1214   1.096   .     S
C1211  H1213   1.108   .     S
C1211  H1212   1.098   .     S
O1215  C1216   1.420   .     S
C1216  C1219   1.526   .     S
C1216  H1218   1.108   .     S
C1216  H1729   1.111   1_545 S
H1217  C1728   1.111   .     S
C1219  H1220   1.105   .     S
C1219  H1221   1.109   .     S
C1219  C1734   1.531   1_545 S
C1222  H1223   1.106   .     S
C1222  H1225   1.105   .     S
C1222  H1224   1.105   .     S
C1222  C1731   1.531   .     S
O1226  C1227   1.414   .     S
C1227  H1228   1.107   .     S
C1227  C1230   1.531   .     S
C1227  H1229   1.111   .     S
C1230  H1231   1.104   .     S
C1230  C1233   1.525   .     S
C1230  H1232   1.111   .     S
C1233  H1234   1.109   .     S
C1233  H2259   1.106   .     S
C1233  H2260   1.099   .     S
O1237  C1238   1.409   .     S
C1238  H1240   1.114   .     S
C1238  H1239   1.112   .     S
C1238  C1241   1.516   .     S
C1241  H1242   1.090   .     S
C1241  H1755   1.103   .     S
C1241  C1756   1.509   .     S
H1243  C1753   1.103   1_545 S
C1244  H1246   1.110   .     S
C1244  H1245   1.104   .     S
C1244  C1753   1.509   1_545 S
C1244  H1759   1.098   1_545 S
H1247  C1756   1.098   .     S
O1248  C1249   1.408   .     S
C1249  C1252   1.520   .     S
C1249  H1250   1.105   .     S
C1249  H1251   1.111   .     S
C1252  H1254   1.103   .     S
C1252  H1253   1.105   .     S
C1252  C1255   1.530   .     S
C1255  H1258   1.110   .     S
C1255  H1257   1.097   .     S
C1255  H1256   1.110   .     S
O1259  C1260   1.415   .     S
C1260  H1261   1.112   .     S
C1260  C1263   1.533   .     S
C1260  H1262   1.117   .     S
C1263  H1264   1.109   .     S
C1263  H1265   1.112   .     S
C1263  C1266   1.521   .     S
C1266  H1267   1.103   .     S
C1266  H2292   1.109   .     S
C1266  H2293   1.110   .     S
O1270  C1271   1.419   .     S
C1271  H1273   1.115   .     S
C1271  H1272   1.106   .     S
C1271  C1274   1.540   .     S
C1274  H1276   1.108   .     S
C1274  C1277   1.513   .     S
C1274  H1275   1.100   .     S
C1277  H1279   1.110   .     S
C1277  H1278   1.108   .     S
C1277  H1280   1.099   .     S
O1281  Cu1309  2.015   .     S
O1281  C1297   1.318   .     A
O1282  C1298   1.326   .     A
O1282  Cu1054  2.015   1_655 S
O1283  C1298   1.323   .     A
O1283  Cu1053  2.013   1_655 S
O1284  C1297   1.324   .     A
O1284  Cu1310  2.013   .     S
O1285  C1299   1.322   .     A
O1285  Cu1054  2.009   1_655 S
O1286  C1300   1.322   .     A
O1286  Cu1309  2.009   .     S
O1287  Cu1310  2.010   .     S
O1287  C1300   1.317   .     A
O1288  C1299   1.327   .     A
O1288  Cu1053  2.010   1_655 S
O1289  C1301   1.322   .     A
O1289  Cu1823  2.015   .     S
O1290  C1302   1.325   .     A
O1290  Cu1312  2.015   .     S
O1291  Cu1311  2.013   .     S
O1291  C1302   1.324   .     A
O1292  C1301   1.320   .     A
O1292  Cu1824  2.013   .     S
O1293  C1303   1.324   .     A
O1293  Cu1824  2.009   .     S
O1294  Cu1311  2.009   .     S
O1294  C1304   1.318   .     A
O1295  Cu1312  2.010   .     S
O1295  C1304   1.321   .     A
O1296  C1303   1.325   .     A
O1296  Cu1823  2.010   .     S
C1297  C1340   1.486   .     S
C1298  C1339   1.499   .     S
C1299  C1338   1.500   .     S
C1300  C1337   1.480   .     S
C1301  C1344   1.486   .     S
C1302  C1343   1.499   .     S
C1303  C1342   1.502   .     S
C1304  C1341   1.481   .     S
N1305  C1314   1.383   .     A
N1305  Cu1309  2.068   .     S
N1305  C1316   1.381   .     A
N1306  Cu1310  2.068   .     S
N1306  C1315   1.380   .     S
N1307  C1318   1.382   .     A
N1307  Cu1311  2.068   .     S
N1307  C1832   1.383   1_545 S
N1308  Cu1312  2.068   .     S
N1308  C1319   1.383   .     A
N1308  C1829   1.379   1_545 S
Cu1309 Cu1310  2.751   .     S
Cu1311 Cu1312  2.751   .     S
Cu1311 O1808   2.010   1_545 S
Cu1311 O1801   2.015   1_545 S
Cu1312 O1805   2.009   1_545 S
Cu1312 O1804   2.013   1_545 S
C1313  O1345   1.372   .     S
C1313  N1050   1.382   1_655 A
C1313  C36     1.423   1_655 S
C1314  O1347   1.371   .     S
C1314  C2339   1.423   .     S
C1315  O1349   1.372   .     S
C1316  O1351   1.373   .     S
C1316  C2081   1.423   .     S
C1317  O1353   1.369   .     S
C1317  N1820   1.379   .     S
C1318  O1355   1.375   .     S
C1318  C2343   1.423   .     S
C1319  O1357   1.372   .     S
C1320  O1359   1.374   .     S
C1320  C2341   1.422   .     S
C1320  N1819   1.383   .     S
C1321  C1338   1.420   .     A
C1321  O1361   1.379   .     S
C1321  C1331   1.409   .     A
C1322  C1337   1.402   .     A
C1322  O1372   1.381   .     S
C1322  C1332   1.403   .     A
C1323  O1383   1.389   .     S
C1323  C1329   1.407   .     A
C1323  C1337   1.415   .     A
C1324  C1338   1.411   .     A
C1324  C1330   1.399   .     A
C1324  O1394   1.376   .     S
C1325  C1340   1.411   .     A
C1325  O1405   1.380   .     S
C1325  C1335   1.407   .     A
C1326  C1339   1.417   .     A
C1326  O1416   1.377   .     S
C1326  C1336   1.399   .     A
C1327  C1333   1.406   .     A
C1327  O1427   1.383   .     S
C1327  C1339   1.417   .     A
C1328  C1334   1.397   .     A
C1328  C1340   1.402   .     A
C1328  O1438   1.382   .     S
C1329  C1342   1.413   .     A
C1329  O1449   1.377   .     S
C1330  O1460   1.384   .     S
C1330  C1341   1.406   .     A
C1331  C1341   1.415   .     A
C1331  O1471   1.391   .     S
C1332  C1342   1.415   .     A
C1332  O1482   1.375   .     S
C1333  C1344   1.408   .     A
C1333  O1493   1.379   .     S
C1334  C1343   1.421   .     A
C1334  O1504   1.379   .     S
C1335  C1343   1.417   .     A
C1335  O1515   1.384   .     S
C1336  C1344   1.409   .     A
C1336  O1526   1.383   .     S
O1345  H1346   0.975   .     S
H1348  O1091   0.976   1_655 S
O1349  H1350   0.978   .     S
O1351  H1352   0.976   .     S
O1353  H1354   0.977   .     S
O1355  H1356   0.978   .     S
O1357  H1358   0.976   .     S
O1359  H1360   0.976   .     S
O1361  C1362   1.421   .     S
C1362  H1363   1.109   .     S
C1362  H1364   1.114   .     S
C1362  C1365   1.541   .     S
C1365  H1366   1.105   .     S
C1365  H1367   1.111   .     S
C1365  C1368   1.522   .     S
C1368  H1370   1.108   .     S
C1368  H1369   1.106   .     S
H1371  C2392   1.105   .     S
O1372  C1373   1.420   .     S
C1373  H1374   1.109   .     S
C1373  C1376   1.527   .     S
C1373  H1375   1.117   .     S
C1376  C1379   1.522   .     S
C1376  H1378   1.110   .     S
C1376  H1377   1.109   .     S
C1379  H1380   1.104   .     S
C1379  H1893   1.109   .     S
H1381  C1891   1.109   1_545 S
H1382  C1123   1.106   1_655 S
O1383  C1384   1.418   .     S
C1384  H1386   1.106   .     S
C1384  H1385   1.111   .     S
C1384  C1387   1.523   .     S
C1387  H1389   1.111   .     S
C1387  C1390   1.531   .     S
C1387  H1388   1.104   .     S
C1390  H1391   1.104   .     S
C1390  H1393   1.108   .     S
C1390  H1392   1.105   .     S
O1394  C1395   1.410   .     S
C1395  H1396   1.104   .     S
C1395  H1397   1.112   .     S
C1395  C1398   1.518   .     S
C1398  H1399   1.103   .     S
C1398  H1400   1.107   .     S
C1398  C1401   1.528   .     S
C1401  H1402   1.110   .     S
C1401  H2427   1.105   .     S
C1401  H2428   1.105   .     S
O1405  C1406   1.413   .     S
C1406  H1407   1.111   .     S
C1406  C1409   1.534   .     S
C1406  H1408   1.114   .     S
C1409  H1410   1.101   .     S
C1409  C1412   1.508   .     S
C1409  H1411   1.109   .     S
C1412  H1413   1.108   .     S
C1412  H1414   1.106   .     S
C1412  H1415   1.099   .     S
O1416  C1417   1.408   .     S
C1417  H1419   1.116   .     S
C1417  C1420   1.515   .     S
C1417  H1418   1.100   .     S
C1420  C1423   1.529   .     S
C1420  H1421   1.102   .     S
C1420  H1422   1.107   .     S
C1423  H1426   1.110   .     S
C1423  H1425   1.102   .     S
C1423  H1424   1.105   .     S
O1427  C1428   1.420   .     S
C1428  C1431   1.537   .     S
C1428  H1430   1.119   .     S
C1428  H1429   1.112   .     S
C1431  C1434   1.522   .     S
C1431  H1433   1.103   .     S
C1431  H2456   1.104   .     S
C1434  H1436   1.109   .     S
C1434  H1437   1.107   .     S
C1434  H1435   1.110   .     S
O1438  C1439   1.423   .     S
C1439  H1440   1.110   .     S
C1439  C1442   1.548   .     S
C1439  H1441   1.113   .     S
C1442  H1443   1.107   .     S
C1442  C1445   1.504   .     S
C1442  H1444   1.111   .     S
C1445  H1447   1.110   .     S
C1445  H1448   1.107   .     S
C1445  H1958   1.109   1_545 S
H1446  C1957   1.109   .     S
O1449  C1450   1.420   .     S
C1450  H1452   1.117   .     S
C1450  H1451   1.109   .     S
C1450  C1453   1.530   .     S
C1453  C1456   1.513   .     S
C1453  H1454   1.109   .     S
C1453  H1455   1.103   .     S
C1456  H1459   1.106   .     S
C1456  H1457   1.110   .     S
C1456  H1458   1.103   .     S
O1460  C1461   1.424   .     S
C1461  H1462   1.111   .     S
C1461  H1463   1.114   .     S
C1461  C1464   1.550   .     S
C1464  H1466   1.110   .     S
C1464  H1465   1.108   .     S
C1464  C1467   1.513   .     S
C1467  H1470   1.096   .     S
C1467  H1469   1.108   .     S
C1467  H1468   1.098   .     S
O1471  C1472   1.420   .     S
C1472  C1475   1.526   .     S
C1472  H1474   1.108   .     S
C1472  H1985   1.111   1_545 S
H1473  C1984   1.111   .     S
C1475  H1476   1.105   .     S
C1475  H1477   1.109   .     S
C1475  C1990   1.531   1_545 S
C1478  H1479   1.106   .     S
C1478  H1481   1.105   .     S
C1478  H1480   1.105   .     S
C1478  C1987   1.531   .     S
O1482  C1483   1.414   .     S
C1483  H1484   1.107   .     S
C1483  C1486   1.531   .     S
C1483  H1485   1.111   .     S
C1486  H1487   1.104   .     S
C1486  C1489   1.525   .     S
C1486  H1488   1.111   .     S
C1489  H1490   1.109   .     S
C1489  H2515   1.106   .     S
C1489  H2516   1.099   .     S
O1493  C1494   1.409   .     S
C1494  H1496   1.114   .     S
C1494  H1495   1.112   .     S
C1494  C1497   1.516   .     S
C1497  H1498   1.090   .     S
C1497  H2011   1.103   .     S
C1497  C2012   1.509   .     S
H1499  C2009   1.103   1_545 S
C1500  H1502   1.110   .     S
C1500  H1501   1.104   .     S
C1500  C2009   1.509   1_545 S
C1500  H2015   1.098   1_545 S
H1503  C2012   1.098   .     S
O1504  C1505   1.408   .     S
C1505  C1508   1.520   .     S
C1505  H1506   1.105   .     S
C1505  H1507   1.111   .     S
C1508  H1510   1.103   .     S
C1508  H1509   1.105   .     S
C1508  C1511   1.530   .     S
C1511  H1514   1.110   .     S
C1511  H1513   1.097   .     S
C1511  H1512   1.110   .     S
O1515  C1516   1.415   .     S
C1516  H1517   1.112   .     S
C1516  C1519   1.533   .     S
C1516  H1518   1.117   .     S
C1519  H1520   1.109   .     S
C1519  H1521   1.112   .     S
C1519  C1522   1.521   .     S
C1522  H1523   1.103   .     S
C1522  H2548   1.109   .     S
C1522  H2549   1.110   .     S
O1526  C1527   1.419   .     S
C1527  H1529   1.115   .     S
C1527  H1528   1.106   .     S
C1527  C1530   1.540   .     S
C1530  H1532   1.108   .     S
C1530  C1533   1.513   .     S
C1530  H1531   1.100   .     S
C1533  H1535   1.110   .     S
C1533  H1534   1.108   .     S
C1533  H1536   1.099   .     S
O1537  Cu1565  2.015   .     S
O1537  C1553   1.318   .     A
O1538  C1554   1.326   .     A
O1538  Cu1822  2.015   .     S
O1539  C1554   1.323   .     A
O1539  Cu1821  2.013   .     S
O1540  C1553   1.324   .     A
O1540  Cu1566  2.013   .     S
O1541  C1555   1.322   .     A
O1541  Cu1822  2.009   .     S
O1542  C1556   1.322   .     A
O1542  Cu1565  2.009   .     S
O1543  Cu1566  2.010   .     S
O1543  C1556   1.317   .     A
O1544  C1555   1.327   .     A
O1544  Cu1821  2.010   .     S
O1545  C1557   1.322   .     A
O1545  Cu1055  2.015   1_565 S
O1546  C1558   1.325   .     A
O1546  Cu1568  2.015   .     S
O1547  Cu1567  2.013   .     S
O1547  C1558   1.324   .     A
O1548  C1557   1.320   .     A
O1548  Cu1056  2.013   1_565 S
O1549  C1559   1.324   .     A
O1549  Cu1056  2.009   1_565 S
O1550  Cu1567  2.009   .     S
O1550  C1560   1.318   .     A
O1551  Cu1568  2.010   .     S
O1551  C1560   1.321   .     A
O1552  C1559   1.325   .     A
O1552  Cu1055  2.010   1_565 S
C1553  C1596   1.486   .     S
C1554  C1595   1.499   .     S
C1555  C1594   1.500   .     S
C1556  C1593   1.480   .     S
C1557  C1600   1.486   .     S
C1558  C1599   1.499   .     S
C1559  C1598   1.502   .     S
C1560  C1597   1.481   .     S
N1561  C1570   1.383   .     A
N1561  Cu1565  2.068   .     S
N1561  C1572   1.381   .     A
N1562  C1825   1.382   1_455 A
N1562  Cu1566  2.068   .     S
N1562  C1571   1.380   .     S
N1563  C1574   1.382   .     A
N1563  Cu1567  2.068   .     S
N1564  Cu1568  2.068   .     S
N1564  C1575   1.383   .     A
Cu1565 Cu1566  2.751   .     S
Cu1565 O1800   2.010   1_455 S
Cu1565 O1795   2.013   1_455 S
Cu1566 O1797   2.009   1_455 S
Cu1566 O1794   2.015   1_455 S
Cu1567 Cu1568  2.751   .     S
C1569  O1601   1.372   .     S
C1569  N1818   1.382   .     A
C1570  O1603   1.371   .     S
C1570  C2595   1.423   .     S
C1571  O1605   1.372   .     S
C1572  O1607   1.373   .     S
C1572  C2849   1.423   1_455 S
C1573  O1609   1.369   .     S
C1573  N1052   1.379   1_565 S
C1574  O1611   1.375   .     S
C1574  C2599   1.423   .     S
C1575  O1613   1.372   .     S
C1576  O1615   1.374   .     S
C1576  C2597   1.422   .     S
C1576  N1051   1.383   1_565 S
C1577  C1594   1.420   .     A
C1577  O1617   1.379   .     S
C1577  C1587   1.409   .     A
C1578  C1593   1.402   .     A
C1578  O1628   1.381   .     S
C1578  C1588   1.403   .     A
C1579  O1639   1.389   .     S
C1579  C1585   1.407   .     A
C1579  C1593   1.415   .     A
C1580  C1594   1.411   .     A
C1580  C1586   1.399   .     A
C1580  O1650   1.376   .     S
C1581  C1596   1.411   .     A
C1581  O1661   1.380   .     S
C1581  C1591   1.407   .     A
C1582  C1595   1.417   .     A
C1582  O1672   1.377   .     S
C1582  C1592   1.399   .     A
C1583  C1589   1.406   .     A
C1583  O1683   1.383   .     S
C1583  C1595   1.417   .     A
C1584  C1590   1.397   .     A
C1584  C1596   1.402   .     A
C1584  O1694   1.382   .     S
C1585  C1598   1.413   .     A
C1585  O1705   1.377   .     S
C1586  O1716   1.384   .     S
C1586  C1597   1.406   .     A
C1587  C1597   1.415   .     A
C1587  O1727   1.391   .     S
C1588  C1598   1.415   .     A
C1588  O1738   1.375   .     S
C1589  C1600   1.408   .     A
C1589  O1749   1.379   .     S
C1590  C1599   1.421   .     A
C1590  O1760   1.379   .     S
C1591  C1599   1.417   .     A
C1591  O1771   1.384   .     S
C1592  C1600   1.409   .     A
C1592  O1782   1.383   .     S
O1601  H1602   0.975   .     S
O1603  H1860   0.976   1_455 S
H1604  O1859   0.976   .     S
O1605  H1606   0.978   .     S
O1607  H1608   0.976   .     S
O1609  H1610   0.977   .     S
O1611  H1612   0.978   .     S
O1613  H1614   0.976   .     S
O1615  H1616   0.976   .     S
O1617  C1618   1.421   .     S
C1618  H1619   1.109   .     S
C1618  H1620   1.114   .     S
C1618  C1621   1.541   .     S
C1621  H1622   1.105   .     S
C1621  H1623   1.111   .     S
C1621  C1624   1.522   .     S
C1624  H1626   1.108   .     S
C1624  H1625   1.106   .     S
H1627  C2648   1.105   .     S
O1628  C1629   1.420   .     S
C1629  H1630   1.109   .     S
C1629  C1632   1.527   .     S
C1629  H1631   1.117   .     S
C1632  C1635   1.522   .     S
C1632  H1634   1.110   .     S
C1632  H1633   1.109   .     S
C1635  H1636   1.104   .     S
C1635  H1125   1.109   1_565 S
C1635  H1894   1.106   1_455 S
H1638  C1891   1.106   .     S
O1639  C1640   1.418   .     S
C1640  H1642   1.106   .     S
C1640  H1641   1.111   .     S
C1640  C1643   1.523   .     S
C1643  H1645   1.111   .     S
C1643  C1646   1.531   .     S
C1643  H1644   1.104   .     S
C1646  H1647   1.104   .     S
C1646  H1649   1.108   .     S
C1646  H1648   1.105   .     S
O1650  C1651   1.410   .     S
C1651  H1652   1.104   .     S
C1651  H1653   1.112   .     S
C1651  C1654   1.518   .     S
C1654  H1655   1.103   .     S
C1654  H1656   1.107   .     S
C1654  C1657   1.528   .     S
C1657  H1658   1.110   .     S
C1657  H2683   1.105   .     S
C1657  H2684   1.105   .     S
O1661  C1662   1.413   .     S
C1662  H1663   1.111   .     S
C1662  C1665   1.534   .     S
C1662  H1664   1.114   .     S
C1665  H1666   1.101   .     S
C1665  C1668   1.508   .     S
C1665  H1667   1.109   .     S
C1668  H1669   1.108   .     S
C1668  H1670   1.106   .     S
C1668  H1671   1.099   .     S
O1672  C1673   1.408   .     S
C1673  H1675   1.116   .     S
C1673  C1676   1.515   .     S
C1673  H1674   1.100   .     S
C1676  C1679   1.529   .     S
C1676  H1677   1.102   .     S
C1676  H1678   1.107   .     S
C1679  H1682   1.110   .     S
C1679  H1681   1.102   .     S
C1679  H1680   1.105   .     S
O1683  C1684   1.420   .     S
C1684  C1687   1.537   .     S
C1684  H1686   1.119   .     S
C1684  H1685   1.112   .     S
C1687  C1690   1.522   .     S
C1687  H1689   1.103   .     S
C1687  H2712   1.104   .     S
C1690  H1692   1.109   .     S
C1690  H1693   1.107   .     S
C1690  H1691   1.110   .     S
O1694  C1695   1.423   .     S
C1695  H1696   1.110   .     S
C1695  C1698   1.548   .     S
C1695  H1697   1.113   .     S
C1698  H1699   1.107   .     S
C1698  C1701   1.504   .     S
C1698  H1700   1.111   .     S
C1701  H1703   1.110   .     S
C1701  H1704   1.107   .     S
H1702  C1189   1.109   1_565 S
O1705  C1706   1.420   .     S
C1706  H1708   1.117   .     S
C1706  H1707   1.109   .     S
C1706  C1709   1.530   .     S
C1709  C1712   1.513   .     S
C1709  H1710   1.109   .     S
C1709  H1711   1.103   .     S
C1712  H1715   1.106   .     S
C1712  H1713   1.110   .     S
C1712  H1714   1.103   .     S
O1716  C1717   1.424   .     S
C1717  H1718   1.111   .     S
C1717  H1719   1.114   .     S
C1717  C1720   1.550   .     S
C1720  H1722   1.110   .     S
C1720  H1721   1.108   .     S
C1720  C1723   1.513   .     S
C1723  H1726   1.096   .     S
C1723  H1725   1.108   .     S
C1723  H1724   1.098   .     S
O1727  C1728   1.420   .     S
C1728  C1731   1.526   .     S
C1728  H1730   1.108   .     S
H1729  C1216   1.111   1_565 S
C1731  H1732   1.105   .     S
C1731  H1733   1.109   .     S
C1734  H1735   1.106   .     S
C1734  H1737   1.105   .     S
C1734  H1736   1.105   .     S
C1734  C1219   1.531   1_565 S
O1738  C1739   1.414   .     S
C1739  H1740   1.107   .     S
C1739  C1742   1.531   .     S
C1739  H1741   1.111   .     S
C1742  H1743   1.104   .     S
C1742  C1745   1.525   .     S
C1742  H1744   1.111   .     S
C1745  H1746   1.109   .     S
C1745  H2771   1.106   .     S
C1745  H2772   1.099   .     S
O1749  C1750   1.409   .     S
C1750  H1752   1.114   .     S
C1750  H1751   1.112   .     S
C1750  C1753   1.516   .     S
C1753  H1754   1.090   .     S
C1753  H1243   1.103   1_565 S
C1753  C1244   1.509   1_565 S
C1756  H1758   1.110   .     S
C1756  H1757   1.104   .     S
H1759  C1244   1.098   1_565 S
O1760  C1761   1.408   .     S
C1761  C1764   1.520   .     S
C1761  H1762   1.105   .     S
C1761  H1763   1.111   .     S
C1764  H1766   1.103   .     S
C1764  H1765   1.105   .     S
C1764  C1767   1.530   .     S
C1767  H1770   1.110   .     S
C1767  H1769   1.097   .     S
C1767  H1768   1.110   .     S
O1771  C1772   1.415   .     S
C1772  H1773   1.112   .     S
C1772  C1775   1.533   .     S
C1772  H1774   1.117   .     S
C1775  H1776   1.109   .     S
C1775  H1777   1.112   .     S
C1775  C1778   1.521   .     S
C1778  H1779   1.103   .     S
C1778  H2804   1.109   .     S
C1778  H2805   1.110   .     S
O1782  C1783   1.419   .     S
C1783  H1785   1.115   .     S
C1783  H1784   1.106   .     S
C1783  C1786   1.540   .     S
C1786  H1788   1.108   .     S
C1786  C1789   1.513   .     S
C1786  H1787   1.100   .     S
C1789  H1791   1.110   .     S
C1789  H1790   1.108   .     S
C1789  H1792   1.099   .     S
O1793  Cu1821  2.015   .     S
O1793  C1809   1.318   .     A
O1794  C1810   1.326   .     A
O1794  Cu1566  2.015   1_655 S
O1795  C1810   1.323   .     A
O1795  Cu1565  2.013   1_655 S
O1796  C1809   1.324   .     A
O1796  Cu1822  2.013   .     S
O1797  C1811   1.322   .     A
O1797  Cu1566  2.009   1_655 S
O1798  C1812   1.322   .     A
O1798  Cu1821  2.009   .     S
O1799  Cu1822  2.010   .     S
O1799  C1812   1.317   .     A
O1800  C1811   1.327   .     A
O1800  Cu1565  2.010   1_655 S
O1801  C1813   1.322   .     A
O1801  Cu1311  2.015   1_565 S
O1802  C1814   1.325   .     A
O1802  Cu1824  2.015   .     S
O1803  Cu1823  2.013   .     S
O1803  C1814   1.324   .     A
O1804  C1813   1.320   .     A
O1804  Cu1312  2.013   1_565 S
O1805  C1815   1.324   .     A
O1805  Cu1312  2.009   1_565 S
O1806  Cu1823  2.009   .     S
O1806  C1816   1.318   .     A
O1807  Cu1824  2.010   .     S
O1807  C1816   1.321   .     A
O1808  C1815   1.325   .     A
O1808  Cu1311  2.010   1_565 S
C1809  C1852   1.486   .     S
C1810  C1851   1.499   .     S
C1811  C1850   1.500   .     S
C1812  C1849   1.480   .     S
C1813  C1856   1.486   .     S
C1814  C1855   1.499   .     S
C1815  C1854   1.502   .     S
C1816  C1853   1.481   .     S
N1817  C1826   1.383   .     A
N1817  Cu1821  2.068   .     S
N1817  C1828   1.381   .     A
N1818  Cu1822  2.068   .     S
N1818  C1827   1.380   .     S
N1819  C1830   1.382   .     A
N1819  Cu1823  2.068   .     S
N1820  Cu1824  2.068   .     S
N1820  C1831   1.383   .     A
Cu1821 Cu1822  2.751   .     S
Cu1823 Cu1824  2.751   .     S
C1825  O1857   1.372   .     S
C1825  N1562   1.382   1_655 A
C1825  C548    1.423   1_655 S
C1826  O1859   1.371   .     S
C1826  C2851   1.423   .     S
C1827  O1861   1.372   .     S
C1828  O1863   1.373   .     S
C1828  C2593   1.423   .     S
C1829  O1865   1.369   .     S
C1829  N1308   1.379   1_565 S
C1830  O1867   1.375   .     S
C1830  C2855   1.423   .     S
C1831  O1869   1.372   .     S
C1832  O1871   1.374   .     S
C1832  C2853   1.422   .     S
C1832  N1307   1.383   1_565 S
C1833  C1850   1.420   .     A
C1833  O1873   1.379   .     S
C1833  C1843   1.409   .     A
C1834  C1849   1.402   .     A
C1834  O1884   1.381   .     S
C1834  C1844   1.403   .     A
C1835  O1895   1.389   .     S
C1835  C1841   1.407   .     A
C1835  C1849   1.415   .     A
C1836  C1850   1.411   .     A
C1836  C1842   1.399   .     A
C1836  O1906   1.376   .     S
C1837  C1852   1.411   .     A
C1837  O1917   1.380   .     S
C1837  C1847   1.407   .     A
C1838  C1851   1.417   .     A
C1838  O1928   1.377   .     S
C1838  C1848   1.399   .     A
C1839  C1845   1.406   .     A
C1839  O1939   1.383   .     S
C1839  C1851   1.417   .     A
C1840  C1846   1.397   .     A
C1840  C1852   1.402   .     A
C1840  O1950   1.382   .     S
C1841  C1854   1.413   .     A
C1841  O1961   1.377   .     S
C1842  O1972   1.384   .     S
C1842  C1853   1.406   .     A
C1843  C1853   1.415   .     A
C1843  O1983   1.391   .     S
C1844  C1854   1.415   .     A
C1844  O1994   1.375   .     S
C1845  C1856   1.408   .     A
C1845  O2005   1.379   .     S
C1846  C1855   1.421   .     A
C1846  O2016   1.379   .     S
C1847  C1855   1.417   .     A
C1847  O2027   1.384   .     S
C1848  C1856   1.409   .     A
C1848  O2038   1.383   .     S
O1857  H1858   0.975   .     S
H1860  O1603   0.976   1_655 S
O1861  H1862   0.978   .     S
O1863  H1864   0.976   .     S
O1865  H1866   0.977   .     S
O1867  H1868   0.978   .     S
O1869  H1870   0.976   .     S
O1871  H1872   0.976   .     S
O1873  C1874   1.421   .     S
C1874  H1875   1.109   .     S
C1874  H1876   1.114   .     S
C1874  C1877   1.541   .     S
C1877  H1878   1.105   .     S
C1877  H1879   1.111   .     S
C1877  C1880   1.522   .     S
C1880  H1882   1.108   .     S
C1880  H1881   1.106   .     S
H1883  C2904   1.105   .     S
O1884  C1885   1.420   .     S
C1885  H1886   1.109   .     S
C1885  C1888   1.527   .     S
C1885  H1887   1.117   .     S
C1888  C1891   1.522   .     S
C1888  H1890   1.110   .     S
C1888  H1889   1.109   .     S
C1891  H1892   1.104   .     S
C1891  H1381   1.109   1_565 S
H1894  C1635   1.106   1_655 S
O1895  C1896   1.418   .     S
C1896  H1898   1.106   .     S
C1896  H1897   1.111   .     S
C1896  C1899   1.523   .     S
C1899  H1901   1.111   .     S
C1899  C1902   1.531   .     S
C1899  H1900   1.104   .     S
C1902  H1903   1.104   .     S
C1902  H1905   1.108   .     S
C1902  H1904   1.105   .     S
O1906  C1907   1.410   .     S
C1907  H1908   1.104   .     S
C1907  H1909   1.112   .     S
C1907  C1910   1.518   .     S
C1910  H1911   1.103   .     S
C1910  H1912   1.107   .     S
C1910  C1913   1.528   .     S
C1913  H1914   1.110   .     S
C1913  H2939   1.105   .     S
C1913  H2940   1.105   .     S
O1917  C1918   1.413   .     S
C1918  H1919   1.111   .     S
C1918  C1921   1.534   .     S
C1918  H1920   1.114   .     S
C1921  H1922   1.101   .     S
C1921  C1924   1.508   .     S
C1921  H1923   1.109   .     S
C1924  H1925   1.108   .     S
C1924  H1926   1.106   .     S
C1924  H1927   1.099   .     S
O1928  C1929   1.408   .     S
C1929  H1931   1.116   .     S
C1929  C1932   1.515   .     S
C1929  H1930   1.100   .     S
C1932  C1935   1.529   .     S
C1932  H1933   1.102   .     S
C1932  H1934   1.107   .     S
C1935  H1938   1.110   .     S
C1935  H1937   1.102   .     S
C1935  H1936   1.105   .     S
O1939  C1940   1.420   .     S
C1940  C1943   1.537   .     S
C1940  H1942   1.119   .     S
C1940  H1941   1.112   .     S
C1943  C1946   1.522   .     S
C1943  H1945   1.103   .     S
C1943  H2968   1.104   .     S
C1946  H1948   1.109   .     S
C1946  H1949   1.107   .     S
C1946  H1947   1.110   .     S
O1950  C1951   1.423   .     S
C1951  H1952   1.110   .     S
C1951  C1954   1.548   .     S
C1951  H1953   1.113   .     S
C1954  H1955   1.107   .     S
C1954  C1957   1.504   .     S
C1954  H1956   1.111   .     S
C1957  H1959   1.110   .     S
C1957  H1960   1.107   .     S
H1958  C1445   1.109   1_565 S
O1961  C1962   1.420   .     S
C1962  H1964   1.117   .     S
C1962  H1963   1.109   .     S
C1962  C1965   1.530   .     S
C1965  C1968   1.513   .     S
C1965  H1966   1.109   .     S
C1965  H1967   1.103   .     S
C1968  H1971   1.106   .     S
C1968  H1969   1.110   .     S
C1968  H1970   1.103   .     S
O1972  C1973   1.424   .     S
C1973  H1974   1.111   .     S
C1973  H1975   1.114   .     S
C1973  C1976   1.550   .     S
C1976  H1978   1.110   .     S
C1976  H1977   1.108   .     S
C1976  C1979   1.513   .     S
C1979  H1982   1.096   .     S
C1979  H1981   1.108   .     S
C1979  H1980   1.098   .     S
O1983  C1984   1.420   .     S
C1984  C1987   1.526   .     S
C1984  H1986   1.108   .     S
H1985  C1472   1.111   1_565 S
C1987  H1988   1.105   .     S
C1987  H1989   1.109   .     S
C1990  H1991   1.106   .     S
C1990  H1993   1.105   .     S
C1990  H1992   1.105   .     S
C1990  C1475   1.531   1_565 S
O1994  C1995   1.414   .     S
C1995  H1996   1.107   .     S
C1995  C1998   1.531   .     S
C1995  H1997   1.111   .     S
C1998  H1999   1.104   .     S
C1998  C2001   1.525   .     S
C1998  H2000   1.111   .     S
C2001  H2002   1.109   .     S
C2001  H3027   1.106   .     S
C2001  H3028   1.099   .     S
O2005  C2006   1.409   .     S
C2006  H2008   1.114   .     S
C2006  H2007   1.112   .     S
C2006  C2009   1.516   .     S
C2009  H2010   1.090   .     S
C2009  H1499   1.103   1_565 S
C2009  C1500   1.509   1_565 S
C2012  H2014   1.110   .     S
C2012  H2013   1.104   .     S
H2015  C1500   1.098   1_565 S
O2016  C2017   1.408   .     S
C2017  C2020   1.520   .     S
C2017  H2018   1.105   .     S
C2017  H2019   1.111   .     S
C2020  H2022   1.103   .     S
C2020  H2021   1.105   .     S
C2020  C2023   1.530   .     S
C2023  H2026   1.110   .     S
C2023  H2025   1.097   .     S
C2023  H2024   1.110   .     S
O2027  C2028   1.415   .     S
C2028  H2029   1.112   .     S
C2028  C2031   1.533   .     S
C2028  H2030   1.117   .     S
C2031  H2032   1.109   .     S
C2031  H2033   1.112   .     S
C2031  C2034   1.521   .     S
C2034  H2035   1.103   .     S
C2034  H3060   1.109   .     S
C2034  H3061   1.110   .     S
O2038  C2039   1.419   .     S
C2039  H2041   1.115   .     S
C2039  H2040   1.106   .     S
C2039  C2042   1.540   .     S
C2042  H2044   1.108   .     S
C2042  C2045   1.513   .     S
C2042  H2043   1.100   .     S
C2045  H2047   1.110   .     S
C2045  H2046   1.108   .     S
C2045  H2048   1.099   .     S
O2049  Cu2077  2.015   .     S
O2049  C2065   1.318   .     A
O2050  C2066   1.326   .     A
O2050  Cu2334  2.015   .     S
O2051  C2066   1.323   .     A
O2051  Cu2333  2.013   .     S
O2052  C2065   1.324   .     A
O2052  Cu2078  2.013   .     S
O2053  C2067   1.322   .     A
O2053  Cu2334  2.009   .     S
O2054  C2068   1.322   .     A
O2054  Cu2077  2.009   .     S
O2055  Cu2078  2.010   .     S
O2055  C2068   1.317   .     A
O2056  C2067   1.327   .     A
O2056  Cu2333  2.010   .     S
O2057  C2069   1.322   .     A
O2057  Cu2591  2.015   .     S
O2058  C2070   1.325   .     A
O2058  Cu2080  2.015   .     S
O2059  Cu2079  2.013   .     S
O2059  C2070   1.324   .     A
O2060  C2069   1.320   .     A
O2060  Cu2592  2.013   .     S
O2061  C2071   1.324   .     A
O2061  Cu2592  2.009   .     S
O2062  Cu2079  2.009   .     S
O2062  C2072   1.318   .     A
O2063  Cu2080  2.010   .     S
O2063  C2072   1.321   .     A
O2064  C2071   1.325   .     A
O2064  Cu2591  2.010   .     S
C2065  C2108   1.486   .     S
C2066  C2107   1.499   .     S
C2067  C2106   1.500   .     S
C2068  C2105   1.480   .     S
C2069  C2112   1.486   .     S
C2070  C2111   1.499   .     S
C2071  C2110   1.502   .     S
C2072  C2109   1.481   .     S
N2073  C2082   1.383   .     A
N2073  Cu2077  2.068   .     S
N2073  C2084   1.381   .     A
N2074  C2337   1.382   1_455 A
N2074  Cu2078  2.068   .     S
N2074  C2083   1.380   .     S
N2075  C2086   1.382   .     A
N2075  Cu2079  2.068   .     S
N2075  C2600   1.383   1_545 S
N2076  Cu2080  2.068   .     S
N2076  C2087   1.383   .     A
N2076  C2597   1.379   1_545 S
Cu2077 Cu2078  2.751   .     S
Cu2077 O2312   2.010   1_455 S
Cu2077 O2307   2.013   1_455 S
Cu2078 O2309   2.009   1_455 S
Cu2078 O2306   2.015   1_455 S
Cu2079 Cu2080  2.751   .     S
Cu2079 O2576   2.010   1_545 S
Cu2079 O2569   2.015   1_545 S
Cu2080 O2573   2.009   1_545 S
Cu2080 O2572   2.013   1_545 S
C2081  O2113   1.372   .     S
C2081  N2330   1.382   .     A
C2082  O2115   1.371   .     S
C2082  C35     1.423   1_556 S
C2083  O2117   1.372   .     S
C2084  O2119   1.373   .     S
C2084  C289    1.423   1_456 S
C2085  O2121   1.369   .     S
C2085  N2588   1.379   .     S
C2086  O2123   1.375   .     S
C2086  C39     1.423   1_556 S
C2087  O2125   1.372   .     S
C2088  O2127   1.374   .     S
C2088  C37     1.422   1_556 S
C2088  N2587   1.383   .     S
C2089  C2106   1.420   .     A
C2089  O2129   1.379   .     S
C2089  C2099   1.409   .     A
C2090  C2105   1.402   .     A
C2090  O2140   1.381   .     S
C2090  C2100   1.403   .     A
C2091  O2151   1.389   .     S
C2091  C2097   1.407   .     A
C2091  C2105   1.415   .     A
C2092  C2106   1.411   .     A
C2092  C2098   1.399   .     A
C2092  O2162   1.376   .     S
C2093  C2108   1.411   .     A
C2093  O2173   1.380   .     S
C2093  C2103   1.407   .     A
C2094  C2107   1.417   .     A
C2094  O2184   1.377   .     S
C2094  C2104   1.399   .     A
C2095  C2101   1.406   .     A
C2095  O2195   1.383   .     S
C2095  C2107   1.417   .     A
C2096  C2102   1.397   .     A
C2096  C2108   1.402   .     A
C2096  O2206   1.382   .     S
C2097  C2110   1.413   .     A
C2097  O2217   1.377   .     S
C2098  O2228   1.384   .     S
C2098  C2109   1.406   .     A
C2099  C2109   1.415   .     A
C2099  O2239   1.391   .     S
C2100  C2110   1.415   .     A
C2100  O2250   1.375   .     S
C2101  C2112   1.408   .     A
C2101  O2261   1.379   .     S
C2102  C2111   1.421   .     A
C2102  O2272   1.379   .     S
C2103  C2111   1.417   .     A
C2103  O2283   1.384   .     S
C2104  C2112   1.409   .     A
C2104  O2294   1.383   .     S
O2113  H2114   0.975   .     S
O2115  H2372   0.976   1_455 S
H2116  O2371   0.976   .     S
O2117  H2118   0.978   .     S
O2119  H2120   0.976   .     S
O2121  H2122   0.977   .     S
O2123  H2124   0.978   .     S
O2125  H2126   0.976   .     S
O2127  H2128   0.976   .     S
O2129  C2130   1.421   .     S
C2130  H2131   1.109   .     S
C2130  H2132   1.114   .     S
C2130  C2133   1.541   .     S
C2133  H2134   1.105   .     S
C2133  H2135   1.111   .     S
C2133  C2136   1.522   .     S
C2136  H2138   1.108   .     S
C2136  H2137   1.106   .     S
H2139  C88     1.105   1_556 S
O2140  C2141   1.420   .     S
C2141  H2142   1.109   .     S
C2141  C2144   1.527   .     S
C2141  H2143   1.117   .     S
C2144  C2147   1.522   .     S
C2144  H2146   1.110   .     S
C2144  H2145   1.109   .     S
C2147  H2148   1.104   .     S
C2147  H2661   1.109   .     S
C2147  H2406   1.106   1_455 S
H2149  C2659   1.109   1_545 S
H2150  C2403   1.106   .     S
O2151  C2152   1.418   .     S
C2152  H2154   1.106   .     S
C2152  H2153   1.111   .     S
C2152  C2155   1.523   .     S
C2155  H2157   1.111   .     S
C2155  C2158   1.531   .     S
C2155  H2156   1.104   .     S
C2158  H2159   1.104   .     S
C2158  H2161   1.108   .     S
C2158  H2160   1.105   .     S
O2162  C2163   1.410   .     S
C2163  H2164   1.104   .     S
C2163  H2165   1.112   .     S
C2163  C2166   1.518   .     S
C2166  H2167   1.103   .     S
C2166  H2168   1.107   .     S
C2166  C2169   1.528   .     S
C2169  H2170   1.110   .     S
C2169  H123    1.105   1_556 S
C2169  H124    1.105   1_556 S
O2173  C2174   1.413   .     S
C2174  H2175   1.111   .     S
C2174  C2177   1.534   .     S
C2174  H2176   1.114   .     S
C2177  H2178   1.101   .     S
C2177  C2180   1.508   .     S
C2177  H2179   1.109   .     S
C2180  H2181   1.108   .     S
C2180  H2182   1.106   .     S
C2180  H2183   1.099   .     S
O2184  C2185   1.408   .     S
C2185  H2187   1.116   .     S
C2185  C2188   1.515   .     S
C2185  H2186   1.100   .     S
C2188  C2191   1.529   .     S
C2188  H2189   1.102   .     S
C2188  H2190   1.107   .     S
C2191  H2194   1.110   .     S
C2191  H2193   1.102   .     S
C2191  H2192   1.105   .     S
O2195  C2196   1.420   .     S
C2196  C2199   1.537   .     S
C2196  H2198   1.119   .     S
C2196  H2197   1.112   .     S
C2199  C2202   1.522   .     S
C2199  H2201   1.103   .     S
C2199  H152    1.104   1_556 S
C2202  H2204   1.109   .     S
C2202  H2205   1.107   .     S
C2202  H2203   1.110   .     S
O2206  C2207   1.423   .     S
C2207  H2208   1.110   .     S
C2207  C2210   1.548   .     S
C2207  H2209   1.113   .     S
C2210  H2211   1.107   .     S
C2210  C2213   1.504   .     S
C2210  H2212   1.111   .     S
C2213  H2215   1.110   .     S
C2213  H2216   1.107   .     S
C2213  H2726   1.109   1_545 S
H2214  C2725   1.109   .     S
O2217  C2218   1.420   .     S
C2218  H2220   1.117   .     S
C2218  H2219   1.109   .     S
C2218  C2221   1.530   .     S
C2221  C2224   1.513   .     S
C2221  H2222   1.109   .     S
C2221  H2223   1.103   .     S
C2224  H2227   1.106   .     S
C2224  H2225   1.110   .     S
C2224  H2226   1.103   .     S
O2228  C2229   1.424   .     S
C2229  H2230   1.111   .     S
C2229  H2231   1.114   .     S
C2229  C2232   1.550   .     S
C2232  H2234   1.110   .     S
C2232  H2233   1.108   .     S
C2232  C2235   1.513   .     S
C2235  H2238   1.096   .     S
C2235  H2237   1.108   .     S
C2235  H2236   1.098   .     S
O2239  C2240   1.420   .     S
C2240  C2243   1.526   .     S
C2240  H2242   1.108   .     S
C2240  H2753   1.111   1_545 S
H2241  C2752   1.111   .     S
C2243  H2244   1.105   .     S
C2243  H2245   1.109   .     S
C2243  C2758   1.531   1_545 S
C2246  H2247   1.106   .     S
C2246  H2249   1.105   .     S
C2246  H2248   1.105   .     S
C2246  C2755   1.531   .     S
O2250  C2251   1.414   .     S
C2251  H2252   1.107   .     S
C2251  C2254   1.531   .     S
C2251  H2253   1.111   .     S
C2254  H2255   1.104   .     S
C2254  C2257   1.525   .     S
C2254  H2256   1.111   .     S
C2257  H2258   1.109   .     S
C2257  H211    1.106   1_556 S
C2257  H212    1.099   1_556 S
O2261  C2262   1.409   .     S
C2262  H2264   1.114   .     S
C2262  H2263   1.112   .     S
C2262  C2265   1.516   .     S
C2265  H2266   1.090   .     S
C2265  H2779   1.103   .     S
C2265  C2780   1.509   .     S
H2267  C2777   1.103   1_545 S
C2268  H2270   1.110   .     S
C2268  H2269   1.104   .     S
C2268  C2777   1.509   1_545 S
C2268  H2783   1.098   1_545 S
H2271  C2780   1.098   .     S
O2272  C2273   1.408   .     S
C2273  C2276   1.520   .     S
C2273  H2274   1.105   .     S
C2273  H2275   1.111   .     S
C2276  H2278   1.103   .     S
C2276  H2277   1.105   .     S
C2276  C2279   1.530   .     S
C2279  H2282   1.110   .     S
C2279  H2281   1.097   .     S
C2279  H2280   1.110   .     S
O2283  C2284   1.415   .     S
C2284  H2285   1.112   .     S
C2284  C2287   1.533   .     S
C2284  H2286   1.117   .     S
C2287  H2288   1.109   .     S
C2287  H2289   1.112   .     S
C2287  C2290   1.521   .     S
C2290  H2291   1.103   .     S
C2290  H244    1.109   1_556 S
C2290  H245    1.110   1_556 S
O2294  C2295   1.419   .     S
C2295  H2297   1.115   .     S
C2295  H2296   1.106   .     S
C2295  C2298   1.540   .     S
C2298  H2300   1.108   .     S
C2298  C2301   1.513   .     S
C2298  H2299   1.100   .     S
C2301  H2303   1.110   .     S
C2301  H2302   1.108   .     S
C2301  H2304   1.099   .     S
O2305  Cu2333  2.015   .     S
O2305  C2321   1.318   .     A
O2306  C2322   1.326   .     A
O2306  Cu2078  2.015   1_655 S
O2307  C2322   1.323   .     A
O2307  Cu2077  2.013   1_655 S
O2308  C2321   1.324   .     A
O2308  Cu2334  2.013   .     S
O2309  C2323   1.322   .     A
O2309  Cu2078  2.009   1_655 S
O2310  C2324   1.322   .     A
O2310  Cu2333  2.009   .     S
O2311  Cu2334  2.010   .     S
O2311  C2324   1.317   .     A
O2312  C2323   1.327   .     A
O2312  Cu2077  2.010   1_655 S
O2313  C2325   1.322   .     A
O2313  Cu2847  2.015   .     S
O2314  C2326   1.325   .     A
O2314  Cu2336  2.015   .     S
O2315  Cu2335  2.013   .     S
O2315  C2326   1.324   .     A
O2316  C2325   1.320   .     A
O2316  Cu2848  2.013   .     S
O2317  C2327   1.324   .     A
O2317  Cu2848  2.009   .     S
O2318  Cu2335  2.009   .     S
O2318  C2328   1.318   .     A
O2319  Cu2336  2.010   .     S
O2319  C2328   1.321   .     A
O2320  C2327   1.325   .     A
O2320  Cu2847  2.010   .     S
C2321  C2364   1.486   .     S
C2322  C2363   1.499   .     S
C2323  C2362   1.500   .     S
C2324  C2361   1.480   .     S
C2325  C2368   1.486   .     S
C2326  C2367   1.499   .     S
C2327  C2366   1.502   .     S
C2328  C2365   1.481   .     S
N2329  C2338   1.383   .     A
N2329  Cu2333  2.068   .     S
N2329  C2340   1.381   .     A
N2330  Cu2334  2.068   .     S
N2330  C2339   1.380   .     S
N2331  C2342   1.382   .     A
N2331  Cu2335  2.068   .     S
N2331  C2856   1.383   1_545 S
N2332  Cu2336  2.068   .     S
N2332  C2343   1.383   .     A
N2332  C2853   1.379   1_545 S
Cu2333 Cu2334  2.751   .     S
Cu2335 Cu2336  2.751   .     S
Cu2335 O2832   2.010   1_545 S
Cu2335 O2825   2.015   1_545 S
Cu2336 O2829   2.009   1_545 S
Cu2336 O2828   2.013   1_545 S
C2337  O2369   1.372   .     S
C2337  N2074   1.382   1_655 A
C2337  C1060   1.423   1_655 S
C2338  O2371   1.371   .     S
C2338  C291    1.423   1_556 S
C2339  O2373   1.372   .     S
C2340  O2375   1.373   .     S
C2340  C33     1.423   1_556 S
C2341  O2377   1.369   .     S
C2341  N2844   1.379   .     S
C2342  O2379   1.375   .     S
C2342  C295    1.423   1_556 S
C2343  O2381   1.372   .     S
C2344  O2383   1.374   .     S
C2344  C293    1.422   1_556 S
C2344  N2843   1.383   .     S
C2345  C2362   1.420   .     A
C2345  O2385   1.379   .     S
C2345  C2355   1.409   .     A
C2346  C2361   1.402   .     A
C2346  O2396   1.381   .     S
C2346  C2356   1.403   .     A
C2347  O2407   1.389   .     S
C2347  C2353   1.407   .     A
C2347  C2361   1.415   .     A
C2348  C2362   1.411   .     A
C2348  C2354   1.399   .     A
C2348  O2418   1.376   .     S
C2349  C2364   1.411   .     A
C2349  O2429   1.380   .     S
C2349  C2359   1.407   .     A
C2350  C2363   1.417   .     A
C2350  O2440   1.377   .     S
C2350  C2360   1.399   .     A
C2351  C2357   1.406   .     A
C2351  O2451   1.383   .     S
C2351  C2363   1.417   .     A
C2352  C2358   1.397   .     A
C2352  C2364   1.402   .     A
C2352  O2462   1.382   .     S
C2353  C2366   1.413   .     A
C2353  O2473   1.377   .     S
C2354  O2484   1.384   .     S
C2354  C2365   1.406   .     A
C2355  C2365   1.415   .     A
C2355  O2495   1.391   .     S
C2356  C2366   1.415   .     A
C2356  O2506   1.375   .     S
C2357  C2368   1.408   .     A
C2357  O2517   1.379   .     S
C2358  C2367   1.421   .     A
C2358  O2528   1.379   .     S
C2359  C2367   1.417   .     A
C2359  O2539   1.384   .     S
C2360  C2368   1.409   .     A
C2360  O2550   1.383   .     S
O2369  H2370   0.975   .     S
H2372  O2115   0.976   1_655 S
O2373  H2374   0.978   .     S
O2375  H2376   0.976   .     S
O2377  H2378   0.977   .     S
O2379  H2380   0.978   .     S
O2381  H2382   0.976   .     S
O2383  H2384   0.976   .     S
O2385  C2386   1.421   .     S
C2386  H2387   1.109   .     S
C2386  H2388   1.114   .     S
C2386  C2389   1.541   .     S
C2389  H2390   1.105   .     S
C2389  H2391   1.111   .     S
C2389  C2392   1.522   .     S
C2392  H2394   1.108   .     S
C2392  H2393   1.106   .     S
H2395  C344    1.105   1_556 S
O2396  C2397   1.420   .     S
C2397  H2398   1.109   .     S
C2397  C2400   1.527   .     S
C2397  H2399   1.117   .     S
C2400  C2403   1.522   .     S
C2400  H2402   1.110   .     S
C2400  H2401   1.109   .     S
C2403  H2404   1.104   .     S
C2403  H2917   1.109   .     S
H2405  C2915   1.109   1_545 S
H2406  C2147   1.106   1_655 S
O2407  C2408   1.418   .     S
C2408  H2410   1.106   .     S
C2408  H2409   1.111   .     S
C2408  C2411   1.523   .     S
C2411  H2413   1.111   .     S
C2411  C2414   1.531   .     S
C2411  H2412   1.104   .     S
C2414  H2415   1.104   .     S
C2414  H2417   1.108   .     S
C2414  H2416   1.105   .     S
O2418  C2419   1.410   .     S
C2419  H2420   1.104   .     S
C2419  H2421   1.112   .     S
C2419  C2422   1.518   .     S
C2422  H2423   1.103   .     S
C2422  H2424   1.107   .     S
C2422  C2425   1.528   .     S
C2425  H2426   1.110   .     S
C2425  H379    1.105   1_556 S
C2425  H380    1.105   1_556 S
O2429  C2430   1.413   .     S
C2430  H2431   1.111   .     S
C2430  C2433   1.534   .     S
C2430  H2432   1.114   .     S
C2433  H2434   1.101   .     S
C2433  C2436   1.508   .     S
C2433  H2435   1.109   .     S
C2436  H2437   1.108   .     S
C2436  H2438   1.106   .     S
C2436  H2439   1.099   .     S
O2440  C2441   1.408   .     S
C2441  H2443   1.116   .     S
C2441  C2444   1.515   .     S
C2441  H2442   1.100   .     S
C2444  C2447   1.529   .     S
C2444  H2445   1.102   .     S
C2444  H2446   1.107   .     S
C2447  H2450   1.110   .     S
C2447  H2449   1.102   .     S
C2447  H2448   1.105   .     S
O2451  C2452   1.420   .     S
C2452  C2455   1.537   .     S
C2452  H2454   1.119   .     S
C2452  H2453   1.112   .     S
C2455  C2458   1.522   .     S
C2455  H2457   1.103   .     S
C2455  H408    1.104   1_556 S
C2458  H2460   1.109   .     S
C2458  H2461   1.107   .     S
C2458  H2459   1.110   .     S
O2462  C2463   1.423   .     S
C2463  H2464   1.110   .     S
C2463  C2466   1.548   .     S
C2463  H2465   1.113   .     S
C2466  H2467   1.107   .     S
C2466  C2469   1.504   .     S
C2466  H2468   1.111   .     S
C2469  H2471   1.110   .     S
C2469  H2472   1.107   .     S
C2469  H2982   1.109   1_545 S
H2470  C2981   1.109   .     S
O2473  C2474   1.420   .     S
C2474  H2476   1.117   .     S
C2474  H2475   1.109   .     S
C2474  C2477   1.530   .     S
C2477  C2480   1.513   .     S
C2477  H2478   1.109   .     S
C2477  H2479   1.103   .     S
C2480  H2483   1.106   .     S
C2480  H2481   1.110   .     S
C2480  H2482   1.103   .     S
O2484  C2485   1.424   .     S
C2485  H2486   1.111   .     S
C2485  H2487   1.114   .     S
C2485  C2488   1.550   .     S
C2488  H2490   1.110   .     S
C2488  H2489   1.108   .     S
C2488  C2491   1.513   .     S
C2491  H2494   1.096   .     S
C2491  H2493   1.108   .     S
C2491  H2492   1.098   .     S
O2495  C2496   1.420   .     S
C2496  C2499   1.526   .     S
C2496  H2498   1.108   .     S
C2496  H3009   1.111   1_545 S
H2497  C3008   1.111   .     S
C2499  H2500   1.105   .     S
C2499  H2501   1.109   .     S
C2499  C3014   1.531   1_545 S
C2502  H2503   1.106   .     S
C2502  H2505   1.105   .     S
C2502  H2504   1.105   .     S
C2502  C3011   1.531   .     S
O2506  C2507   1.414   .     S
C2507  H2508   1.107   .     S
C2507  C2510   1.531   .     S
C2507  H2509   1.111   .     S
C2510  H2511   1.104   .     S
C2510  C2513   1.525   .     S
C2510  H2512   1.111   .     S
C2513  H2514   1.109   .     S
C2513  H467    1.106   1_556 S
C2513  H468    1.099   1_556 S
O2517  C2518   1.409   .     S
C2518  H2520   1.114   .     S
C2518  H2519   1.112   .     S
C2518  C2521   1.516   .     S
C2521  H2522   1.090   .     S
C2521  H3035   1.103   .     S
C2521  C3036   1.509   .     S
H2523  C3033   1.103   1_545 S
C2524  H2526   1.110   .     S
C2524  H2525   1.104   .     S
C2524  C3033   1.509   1_545 S
C2524  H3039   1.098   1_545 S
H2527  C3036   1.098   .     S
O2528  C2529   1.408   .     S
C2529  C2532   1.520   .     S
C2529  H2530   1.105   .     S
C2529  H2531   1.111   .     S
C2532  H2534   1.103   .     S
C2532  H2533   1.105   .     S
C2532  C2535   1.530   .     S
C2535  H2538   1.110   .     S
C2535  H2537   1.097   .     S
C2535  H2536   1.110   .     S
O2539  C2540   1.415   .     S
C2540  H2541   1.112   .     S
C2540  C2543   1.533   .     S
C2540  H2542   1.117   .     S
C2543  H2544   1.109   .     S
C2543  H2545   1.112   .     S
C2543  C2546   1.521   .     S
C2546  H2547   1.103   .     S
C2546  H500    1.109   1_556 S
C2546  H501    1.110   1_556 S
O2550  C2551   1.419   .     S
C2551  H2553   1.115   .     S
C2551  H2552   1.106   .     S
C2551  C2554   1.540   .     S
C2554  H2556   1.108   .     S
C2554  C2557   1.513   .     S
C2554  H2555   1.100   .     S
C2557  H2559   1.110   .     S
C2557  H2558   1.108   .     S
C2557  H2560   1.099   .     S
O2561  Cu2589  2.015   .     S
O2561  C2577   1.318   .     A
O2562  C2578   1.326   .     A
O2562  Cu2846  2.015   .     S
O2563  C2578   1.323   .     A
O2563  Cu2845  2.013   .     S
O2564  C2577   1.324   .     A
O2564  Cu2590  2.013   .     S
O2565  C2579   1.322   .     A
O2565  Cu2846  2.009   .     S
O2566  C2580   1.322   .     A
O2566  Cu2589  2.009   .     S
O2567  Cu2590  2.010   .     S
O2567  C2580   1.317   .     A
O2568  C2579   1.327   .     A
O2568  Cu2845  2.010   .     S
O2569  C2581   1.322   .     A
O2569  Cu2079  2.015   1_565 S
O2570  C2582   1.325   .     A
O2570  Cu2592  2.015   .     S
O2571  Cu2591  2.013   .     S
O2571  C2582   1.324   .     A
O2572  C2581   1.320   .     A
O2572  Cu2080  2.013   1_565 S
O2573  C2583   1.324   .     A
O2573  Cu2080  2.009   1_565 S
O2574  Cu2591  2.009   .     S
O2574  C2584   1.318   .     A
O2575  Cu2592  2.010   .     S
O2575  C2584   1.321   .     A
O2576  C2583   1.325   .     A
O2576  Cu2079  2.010   1_565 S
C2577  C2620   1.486   .     S
C2578  C2619   1.499   .     S
C2579  C2618   1.500   .     S
C2580  C2617   1.480   .     S
C2581  C2624   1.486   .     S
C2582  C2623   1.499   .     S
C2583  C2622   1.502   .     S
C2584  C2621   1.481   .     S
N2585  C2594   1.383   .     A
N2585  Cu2589  2.068   .     S
N2585  C2596   1.381   .     A
N2586  C2849   1.382   1_455 A
N2586  Cu2590  2.068   .     S
N2586  C2595   1.380   .     S
N2587  C2598   1.382   .     A
N2587  Cu2591  2.068   .     S
N2588  Cu2592  2.068   .     S
N2588  C2599   1.383   .     A
Cu2589 Cu2590  2.751   .     S
Cu2589 O2824   2.010   1_455 S
Cu2589 O2819   2.013   1_455 S
Cu2590 O2821   2.009   1_455 S
Cu2590 O2818   2.015   1_455 S
Cu2591 Cu2592  2.751   .     S
C2593  O2625   1.372   .     S
C2593  N2842   1.382   .     A
C2594  O2627   1.371   .     S
C2594  C547    1.423   1_556 S
C2595  O2629   1.372   .     S
C2596  O2631   1.373   .     S
C2596  C801    1.423   1_456 S
C2597  O2633   1.369   .     S
C2597  N2076   1.379   1_565 S
C2598  O2635   1.375   .     S
C2598  C551    1.423   1_556 S
C2599  O2637   1.372   .     S
C2600  O2639   1.374   .     S
C2600  C549    1.422   1_556 S
C2600  N2075   1.383   1_565 S
C2601  C2618   1.420   .     A
C2601  O2641   1.379   .     S
C2601  C2611   1.409   .     A
C2602  C2617   1.402   .     A
C2602  O2652   1.381   .     S
C2602  C2612   1.403   .     A
C2603  O2663   1.389   .     S
C2603  C2609   1.407   .     A
C2603  C2617   1.415   .     A
C2604  C2618   1.411   .     A
C2604  C2610   1.399   .     A
C2604  O2674   1.376   .     S
C2605  C2620   1.411   .     A
C2605  O2685   1.380   .     S
C2605  C2615   1.407   .     A
C2606  C2619   1.417   .     A
C2606  O2696   1.377   .     S
C2606  C2616   1.399   .     A
C2607  C2613   1.406   .     A
C2607  O2707   1.383   .     S
C2607  C2619   1.417   .     A
C2608  C2614   1.397   .     A
C2608  C2620   1.402   .     A
C2608  O2718   1.382   .     S
C2609  C2622   1.413   .     A
C2609  O2729   1.377   .     S
C2610  O2740   1.384   .     S
C2610  C2621   1.406   .     A
C2611  C2621   1.415   .     A
C2611  O2751   1.391   .     S
C2612  C2622   1.415   .     A
C2612  O2762   1.375   .     S
C2613  C2624   1.408   .     A
C2613  O2773   1.379   .     S
C2614  C2623   1.421   .     A
C2614  O2784   1.379   .     S
C2615  C2623   1.417   .     A
C2615  O2795   1.384   .     S
C2616  C2624   1.409   .     A
C2616  O2806   1.383   .     S
O2625  H2626   0.975   .     S
O2627  H2884   0.976   1_455 S
H2628  O2883   0.976   .     S
O2629  H2630   0.978   .     S
O2631  H2632   0.976   .     S
O2633  H2634   0.977   .     S
O2635  H2636   0.978   .     S
O2637  H2638   0.976   .     S
O2639  H2640   0.976   .     S
O2641  C2642   1.421   .     S
C2642  H2643   1.109   .     S
C2642  H2644   1.114   .     S
C2642  C2645   1.541   .     S
C2645  H2646   1.105   .     S
C2645  H2647   1.111   .     S
C2645  C2648   1.522   .     S
C2648  H2650   1.108   .     S
C2648  H2649   1.106   .     S
H2651  C600    1.105   1_556 S
O2652  C2653   1.420   .     S
C2653  H2654   1.109   .     S
C2653  C2656   1.527   .     S
C2653  H2655   1.117   .     S
C2656  C2659   1.522   .     S
C2656  H2658   1.110   .     S
C2656  H2657   1.109   .     S
C2659  H2660   1.104   .     S
C2659  H2149   1.109   1_565 S
C2659  H2918   1.106   1_455 S
H2662  C2915   1.106   .     S
O2663  C2664   1.418   .     S
C2664  H2666   1.106   .     S
C2664  H2665   1.111   .     S
C2664  C2667   1.523   .     S
C2667  H2669   1.111   .     S
C2667  C2670   1.531   .     S
C2667  H2668   1.104   .     S
C2670  H2671   1.104   .     S
C2670  H2673   1.108   .     S
C2670  H2672   1.105   .     S
O2674  C2675   1.410   .     S
C2675  H2676   1.104   .     S
C2675  H2677   1.112   .     S
C2675  C2678   1.518   .     S
C2678  H2679   1.103   .     S
C2678  H2680   1.107   .     S
C2678  C2681   1.528   .     S
C2681  H2682   1.110   .     S
C2681  H635    1.105   1_556 S
C2681  H636    1.105   1_556 S
O2685  C2686   1.413   .     S
C2686  H2687   1.111   .     S
C2686  C2689   1.534   .     S
C2686  H2688   1.114   .     S
C2689  H2690   1.101   .     S
C2689  C2692   1.508   .     S
C2689  H2691   1.109   .     S
C2692  H2693   1.108   .     S
C2692  H2694   1.106   .     S
C2692  H2695   1.099   .     S
O2696  C2697   1.408   .     S
C2697  H2699   1.116   .     S
C2697  C2700   1.515   .     S
C2697  H2698   1.100   .     S
C2700  C2703   1.529   .     S
C2700  H2701   1.102   .     S
C2700  H2702   1.107   .     S
C2703  H2706   1.110   .     S
C2703  H2705   1.102   .     S
C2703  H2704   1.105   .     S
O2707  C2708   1.420   .     S
C2708  C2711   1.537   .     S
C2708  H2710   1.119   .     S
C2708  H2709   1.112   .     S
C2711  C2714   1.522   .     S
C2711  H2713   1.103   .     S
C2711  H664    1.104   1_556 S
C2714  H2716   1.109   .     S
C2714  H2717   1.107   .     S
C2714  H2715   1.110   .     S
O2718  C2719   1.423   .     S
C2719  H2720   1.110   .     S
C2719  C2722   1.548   .     S
C2719  H2721   1.113   .     S
C2722  H2723   1.107   .     S
C2722  C2725   1.504   .     S
C2722  H2724   1.111   .     S
C2725  H2727   1.110   .     S
C2725  H2728   1.107   .     S
H2726  C2213   1.109   1_565 S
O2729  C2730   1.420   .     S
C2730  H2732   1.117   .     S
C2730  H2731   1.109   .     S
C2730  C2733   1.530   .     S
C2733  C2736   1.513   .     S
C2733  H2734   1.109   .     S
C2733  H2735   1.103   .     S
C2736  H2739   1.106   .     S
C2736  H2737   1.110   .     S
C2736  H2738   1.103   .     S
O2740  C2741   1.424   .     S
C2741  H2742   1.111   .     S
C2741  H2743   1.114   .     S
C2741  C2744   1.550   .     S
C2744  H2746   1.110   .     S
C2744  H2745   1.108   .     S
C2744  C2747   1.513   .     S
C2747  H2750   1.096   .     S
C2747  H2749   1.108   .     S
C2747  H2748   1.098   .     S
O2751  C2752   1.420   .     S
C2752  C2755   1.526   .     S
C2752  H2754   1.108   .     S
H2753  C2240   1.111   1_565 S
C2755  H2756   1.105   .     S
C2755  H2757   1.109   .     S
C2758  H2759   1.106   .     S
C2758  H2761   1.105   .     S
C2758  H2760   1.105   .     S
C2758  C2243   1.531   1_565 S
O2762  C2763   1.414   .     S
C2763  H2764   1.107   .     S
C2763  C2766   1.531   .     S
C2763  H2765   1.111   .     S
C2766  H2767   1.104   .     S
C2766  C2769   1.525   .     S
C2766  H2768   1.111   .     S
C2769  H2770   1.109   .     S
C2769  H723    1.106   1_556 S
C2769  H724    1.099   1_556 S
O2773  C2774   1.409   .     S
C2774  H2776   1.114   .     S
C2774  H2775   1.112   .     S
C2774  C2777   1.516   .     S
C2777  H2778   1.090   .     S
C2777  H2267   1.103   1_565 S
C2777  C2268   1.509   1_565 S
C2780  H2782   1.110   .     S
C2780  H2781   1.104   .     S
H2783  C2268   1.098   1_565 S
O2784  C2785   1.408   .     S
C2785  C2788   1.520   .     S
C2785  H2786   1.105   .     S
C2785  H2787   1.111   .     S
C2788  H2790   1.103   .     S
C2788  H2789   1.105   .     S
C2788  C2791   1.530   .     S
C2791  H2794   1.110   .     S
C2791  H2793   1.097   .     S
C2791  H2792   1.110   .     S
O2795  C2796   1.415   .     S
C2796  H2797   1.112   .     S
C2796  C2799   1.533   .     S
C2796  H2798   1.117   .     S
C2799  H2800   1.109   .     S
C2799  H2801   1.112   .     S
C2799  C2802   1.521   .     S
C2802  H2803   1.103   .     S
C2802  H756    1.109   1_556 S
C2802  H757    1.110   1_556 S
O2806  C2807   1.419   .     S
C2807  H2809   1.115   .     S
C2807  H2808   1.106   .     S
C2807  C2810   1.540   .     S
C2810  H2812   1.108   .     S
C2810  C2813   1.513   .     S
C2810  H2811   1.100   .     S
C2813  H2815   1.110   .     S
C2813  H2814   1.108   .     S
C2813  H2816   1.099   .     S
O2817  Cu2845  2.015   .     S
O2817  C2833   1.318   .     A
O2818  C2834   1.326   .     A
O2818  Cu2590  2.015   1_655 S
O2819  C2834   1.323   .     A
O2819  Cu2589  2.013   1_655 S
O2820  C2833   1.324   .     A
O2820  Cu2846  2.013   .     S
O2821  C2835   1.322   .     A
O2821  Cu2590  2.009   1_655 S
O2822  C2836   1.322   .     A
O2822  Cu2845  2.009   .     S
O2823  Cu2846  2.010   .     S
O2823  C2836   1.317   .     A
O2824  C2835   1.327   .     A
O2824  Cu2589  2.010   1_655 S
O2825  C2837   1.322   .     A
O2825  Cu2335  2.015   1_565 S
O2826  C2838   1.325   .     A
O2826  Cu2848  2.015   .     S
O2827  Cu2847  2.013   .     S
O2827  C2838   1.324   .     A
O2828  C2837   1.320   .     A
O2828  Cu2336  2.013   1_565 S
O2829  C2839   1.324   .     A
O2829  Cu2336  2.009   1_565 S
O2830  Cu2847  2.009   .     S
O2830  C2840   1.318   .     A
O2831  Cu2848  2.010   .     S
O2831  C2840   1.321   .     A
O2832  C2839   1.325   .     A
O2832  Cu2335  2.010   1_565 S
C2833  C2876   1.486   .     S
C2834  C2875   1.499   .     S
C2835  C2874   1.500   .     S
C2836  C2873   1.480   .     S
C2837  C2880   1.486   .     S
C2838  C2879   1.499   .     S
C2839  C2878   1.502   .     S
C2840  C2877   1.481   .     S
N2841  C2850   1.383   .     A
N2841  Cu2845  2.068   .     S
N2841  C2852   1.381   .     A
N2842  Cu2846  2.068   .     S
N2842  C2851   1.380   .     S
N2843  C2854   1.382   .     A
N2843  Cu2847  2.068   .     S
N2844  Cu2848  2.068   .     S
N2844  C2855   1.383   .     A
Cu2845 Cu2846  2.751   .     S
Cu2847 Cu2848  2.751   .     S
C2849  O2881   1.372   .     S
C2849  N2586   1.382   1_655 A
C2849  C1572   1.423   1_655 S
C2850  O2883   1.371   .     S
C2850  C803    1.423   1_556 S
C2851  O2885   1.372   .     S
C2852  O2887   1.373   .     S
C2852  C545    1.423   1_556 S
C2853  O2889   1.369   .     S
C2853  N2332   1.379   1_565 S
C2854  O2891   1.375   .     S
C2854  C807    1.423   1_556 S
C2855  O2893   1.372   .     S
C2856  O2895   1.374   .     S
C2856  C805    1.422   1_556 S
C2856  N2331   1.383   1_565 S
C2857  C2874   1.420   .     A
C2857  O2897   1.379   .     S
C2857  C2867   1.409   .     A
C2858  C2873   1.402   .     A
C2858  O2908   1.381   .     S
C2858  C2868   1.403   .     A
C2859  O2919   1.389   .     S
C2859  C2865   1.407   .     A
C2859  C2873   1.415   .     A
C2860  C2874   1.411   .     A
C2860  C2866   1.399   .     A
C2860  O2930   1.376   .     S
C2861  C2876   1.411   .     A
C2861  O2941   1.380   .     S
C2861  C2871   1.407   .     A
C2862  C2875   1.417   .     A
C2862  O2952   1.377   .     S
C2862  C2872   1.399   .     A
C2863  C2869   1.406   .     A
C2863  O2963   1.383   .     S
C2863  C2875   1.417   .     A
C2864  C2870   1.397   .     A
C2864  C2876   1.402   .     A
C2864  O2974   1.382   .     S
C2865  C2878   1.413   .     A
C2865  O2985   1.377   .     S
C2866  O2996   1.384   .     S
C2866  C2877   1.406   .     A
C2867  C2877   1.415   .     A
C2867  O3007   1.391   .     S
C2868  C2878   1.415   .     A
C2868  O3018   1.375   .     S
C2869  C2880   1.408   .     A
C2869  O3029   1.379   .     S
C2870  C2879   1.421   .     A
C2870  O3040   1.379   .     S
C2871  C2879   1.417   .     A
C2871  O3051   1.384   .     S
C2872  C2880   1.409   .     A
C2872  O3062   1.383   .     S
O2881  H2882   0.975   .     S
H2884  O2627   0.976   1_655 S
O2885  H2886   0.978   .     S
O2887  H2888   0.976   .     S
O2889  H2890   0.977   .     S
O2891  H2892   0.978   .     S
O2893  H2894   0.976   .     S
O2895  H2896   0.976   .     S
O2897  C2898   1.421   .     S
C2898  H2899   1.109   .     S
C2898  H2900   1.114   .     S
C2898  C2901   1.541   .     S
C2901  H2902   1.105   .     S
C2901  H2903   1.111   .     S
C2901  C2904   1.522   .     S
C2904  H2906   1.108   .     S
C2904  H2905   1.106   .     S
H2907  C856    1.105   1_556 S
O2908  C2909   1.420   .     S
C2909  H2910   1.109   .     S
C2909  C2912   1.527   .     S
C2909  H2911   1.117   .     S
C2912  C2915   1.522   .     S
C2912  H2914   1.110   .     S
C2912  H2913   1.109   .     S
C2915  H2916   1.104   .     S
C2915  H2405   1.109   1_565 S
H2918  C2659   1.106   1_655 S
O2919  C2920   1.418   .     S
C2920  H2922   1.106   .     S
C2920  H2921   1.111   .     S
C2920  C2923   1.523   .     S
C2923  H2925   1.111   .     S
C2923  C2926   1.531   .     S
C2923  H2924   1.104   .     S
C2926  H2927   1.104   .     S
C2926  H2929   1.108   .     S
C2926  H2928   1.105   .     S
O2930  C2931   1.410   .     S
C2931  H2932   1.104   .     S
C2931  H2933   1.112   .     S
C2931  C2934   1.518   .     S
C2934  H2935   1.103   .     S
C2934  H2936   1.107   .     S
C2934  C2937   1.528   .     S
C2937  H2938   1.110   .     S
C2937  H891    1.105   1_556 S
C2937  H892    1.105   1_556 S
O2941  C2942   1.413   .     S
C2942  H2943   1.111   .     S
C2942  C2945   1.534   .     S
C2942  H2944   1.114   .     S
C2945  H2946   1.101   .     S
C2945  C2948   1.508   .     S
C2945  H2947   1.109   .     S
C2948  H2949   1.108   .     S
C2948  H2950   1.106   .     S
C2948  H2951   1.099   .     S
O2952  C2953   1.408   .     S
C2953  H2955   1.116   .     S
C2953  C2956   1.515   .     S
C2953  H2954   1.100   .     S
C2956  C2959   1.529   .     S
C2956  H2957   1.102   .     S
C2956  H2958   1.107   .     S
C2959  H2962   1.110   .     S
C2959  H2961   1.102   .     S
C2959  H2960   1.105   .     S
O2963  C2964   1.420   .     S
C2964  C2967   1.537   .     S
C2964  H2966   1.119   .     S
C2964  H2965   1.112   .     S
C2967  C2970   1.522   .     S
C2967  H2969   1.103   .     S
C2967  H920    1.104   1_556 S
C2970  H2972   1.109   .     S
C2970  H2973   1.107   .     S
C2970  H2971   1.110   .     S
O2974  C2975   1.423   .     S
C2975  H2976   1.110   .     S
C2975  C2978   1.548   .     S
C2975  H2977   1.113   .     S
C2978  H2979   1.107   .     S
C2978  C2981   1.504   .     S
C2978  H2980   1.111   .     S
C2981  H2983   1.110   .     S
C2981  H2984   1.107   .     S
H2982  C2469   1.109   1_565 S
O2985  C2986   1.420   .     S
C2986  H2988   1.117   .     S
C2986  H2987   1.109   .     S
C2986  C2989   1.530   .     S
C2989  C2992   1.513   .     S
C2989  H2990   1.109   .     S
C2989  H2991   1.103   .     S
C2992  H2995   1.106   .     S
C2992  H2993   1.110   .     S
C2992  H2994   1.103   .     S
O2996  C2997   1.424   .     S
C2997  H2998   1.111   .     S
C2997  H2999   1.114   .     S
C2997  C3000   1.550   .     S
C3000  H3002   1.110   .     S
C3000  H3001   1.108   .     S
C3000  C3003   1.513   .     S
C3003  H3006   1.096   .     S
C3003  H3005   1.108   .     S
C3003  H3004   1.098   .     S
O3007  C3008   1.420   .     S
C3008  C3011   1.526   .     S
C3008  H3010   1.108   .     S
H3009  C2496   1.111   1_565 S
C3011  H3012   1.105   .     S
C3011  H3013   1.109   .     S
C3014  H3015   1.106   .     S
C3014  H3017   1.105   .     S
C3014  H3016   1.105   .     S
C3014  C2499   1.531   1_565 S
O3018  C3019   1.414   .     S
C3019  H3020   1.107   .     S
C3019  C3022   1.531   .     S
C3019  H3021   1.111   .     S
C3022  H3023   1.104   .     S
C3022  C3025   1.525   .     S
C3022  H3024   1.111   .     S
C3025  H3026   1.109   .     S
C3025  H979    1.106   1_556 S
C3025  H980    1.099   1_556 S
O3029  C3030   1.409   .     S
C3030  H3032   1.114   .     S
C3030  H3031   1.112   .     S
C3030  C3033   1.516   .     S
C3033  H3034   1.090   .     S
C3033  H2523   1.103   1_565 S
C3033  C2524   1.509   1_565 S
C3036  H3038   1.110   .     S
C3036  H3037   1.104   .     S
H3039  C2524   1.098   1_565 S
O3040  C3041   1.408   .     S
C3041  C3044   1.520   .     S
C3041  H3042   1.105   .     S
C3041  H3043   1.111   .     S
C3044  H3046   1.103   .     S
C3044  H3045   1.105   .     S
C3044  C3047   1.530   .     S
C3047  H3050   1.110   .     S
C3047  H3049   1.097   .     S
C3047  H3048   1.110   .     S
O3051  C3052   1.415   .     S
C3052  H3053   1.112   .     S
C3052  C3055   1.533   .     S
C3052  H3054   1.117   .     S
C3055  H3056   1.109   .     S
C3055  H3057   1.112   .     S
C3055  C3058   1.521   .     S
C3058  H3059   1.103   .     S
C3058  H1012   1.109   1_556 S
C3058  H1013   1.110   1_556 S
O3062  C3063   1.419   .     S
C3063  H3065   1.115   .     S
C3063  H3064   1.106   .     S
C3063  C3066   1.540   .     S
C3066  H3068   1.108   .     S
C3066  C3069   1.513   .     S
C3066  H3067   1.100   .     S
C3069  H3071   1.110   .     S
C3069  H3070   1.108   .     S
C3069  H3072   1.099   .     S
