data_str_m2_o2_o10_pcu_sym.50
_audit_creation_date              2020-01-03
_audit_creation_method            'Materials Studio'
_symmetry_space_group_name_H-M    'P1'
_symmetry_Int_Tables_number       1
_symmetry_cell_setting            triclinic
loop_
_symmetry_equiv_pos_as_xyz
  x,y,z
_cell_length_a                    26.2973
_cell_length_b                    30.2665
_cell_length_c                    27.6577
_cell_angle_alpha                 90.0393
_cell_angle_beta                  96.8277
_cell_angle_gamma                 90.1585
loop_
_atom_site_label
_atom_site_type_symbol
_atom_site_fract_x
_atom_site_fract_y
_atom_site_fract_z
_atom_site_U_iso_or_equiv
_atom_site_adp_type
_atom_site_occupancy
C1     C     0.16677   0.16492   0.25000   0.00000  Uiso   1.00
C2     C     0.19280   0.28381   0.44906   0.00000  Uiso   1.00
C3     C     0.16768   0.24980   0.02749   0.00000  Uiso   1.00
C4     C     0.16778   0.25003   0.47283   0.00000  Uiso   1.00
C5     C     0.06816   0.25094   0.23820   0.00000  Uiso   1.00
C6     C     0.26513   0.24914   0.26177   0.00000  Uiso   1.00
C7     C     0.01435   0.25950   0.23397   0.00000  Uiso   1.00
C8     C     0.31881   0.24042   0.26588   0.00000  Uiso   1.00
C9     C     0.15144   0.04757   0.28959   0.00000  Uiso   1.00
C10    C     0.15157   0.45238   0.20700   0.00000  Uiso   1.00
C11    C     0.15164   0.09349   0.28970   0.00000  Uiso   1.00
C12    C     0.16669   0.33508   0.25002   0.00000  Uiso   1.00
C13    C     0.15171   0.40647   0.20691   0.00000  Uiso   1.00
C14    C     0.16701   0.11671   0.25005   0.00000  Uiso   1.00
C15    C     0.16686   0.38330   0.25006   0.00000  Uiso   1.00
C16    C     0.18266   0.09357   0.21051   0.00000  Uiso   1.00
C17    C     0.18224   0.40650   0.29322   0.00000  Uiso   1.00
C18    C     0.18315   0.04765   0.21069   0.00000  Uiso   1.00
C19    C     0.18278   0.45242   0.29317   0.00000  Uiso   1.00
C20    C     0.16732   0.02429   0.25014   0.00000  Uiso   1.00
C21    C     0.16726   0.47573   0.25009   0.00000  Uiso   1.00
C22    C     0.09143   0.29895   0.02041   0.00000  Uiso   1.00
C23    C     0.13074   0.27417   0.04946   0.00000  Uiso   1.00
C24    C     0.11445   0.18179   0.46496   0.00000  Uiso   1.00
C25    C     0.14216   0.21654   0.44364   0.00000  Uiso   1.00
C26    C     0.13142   0.27406   0.10045   0.00000  Uiso   1.00
C27    C     0.14277   0.21700   0.39279   0.00000  Uiso   1.00
C28    C     0.20204   0.22547   0.10912   0.00000  Uiso   1.00
C29    C     0.19151   0.28282   0.39789   0.00000  Uiso   1.00
C30    C     0.20384   0.22487   0.05832   0.00000  Uiso   1.00
Cu31   Cu    0.16667   0.24999   0.29822   0.00000  Uiso   1.00
Cu32   Cu    0.16667   0.25000   0.20179   0.00000  Uiso   1.00
H33    H     0.13824   0.03032   0.32005   0.00000  Uiso   1.00
H34    H     0.12378   0.19089   0.37075   0.00000  Uiso   1.00
H35    H     0.22916   0.20631   0.13287   0.00000  Uiso   1.00
H36    H     0.21059   0.30845   0.37962   0.00000  Uiso   1.00
H37    H     0.02897   0.35488   0.15530   0.00000  Uiso   1.00
H38    H     0.30316   0.14445   0.34305   0.00000  Uiso   1.00
H39    H     0.28086   0.14919   0.09388   0.00000  Uiso   1.00
H40    H     0.27873   0.37907   0.46679   0.00000  Uiso   1.00
H41    H     0.13858   0.46960   0.17351   0.00000  Uiso   1.00
H42    H     0.13906   0.11078   0.32044   0.00000  Uiso   1.00
H43    H     0.13930   0.38912   0.17327   0.00000  Uiso   1.00
H44    H     0.19517   0.11094   0.17976   0.00000  Uiso   1.00
H45    H     0.19453   0.38918   0.32684   0.00000  Uiso   1.00
H46    H     0.19643   0.03045   0.18025   0.00000  Uiso   1.00
H47    H     0.19589   0.46966   0.32668   0.00000  Uiso   1.00
H48    H     0.10341   0.29312   0.11715   0.00000  Uiso   1.00
N49    N     0.16667   0.25001   0.12935   0.00000  Uiso   1.00
N50    N     0.16667   0.24999   0.37066   0.00000  Uiso   1.00
N51    N     0.05988   0.31876   0.49711   0.00000  Uiso   1.00
N52    N     0.09221   0.15398   0.48209   0.00000  Uiso   1.00
O53    O     0.16667   0.18572   0.29072   0.00000  Uiso   1.00
O54    O     0.28945   0.33280   0.21573   0.00000  Uiso   1.00
O55    O     0.04320   0.33379   0.18072   0.00000  Uiso   1.00
O56    O     0.04624   0.16884   0.28765   0.00000  Uiso   1.00
O57    O     0.02831   0.21756   0.35480   0.00000  Uiso   1.00
O58    O     0.28965   0.16510   0.31688   0.00000  Uiso   1.00
O59    O     0.22640   0.15261   0.00941   0.00000  Uiso   1.00
O60    O     0.27731   0.21868   0.49878   0.00000  Uiso   1.00
O61    O     0.29569   0.17574   0.07992   0.00000  Uiso   1.00
O62    O     0.18605   0.35942   0.49751   0.00000  Uiso   1.00
O63    O     0.25789   0.31103   0.02586   0.00000  Uiso   1.00
O64    O     0.16666   0.31427   0.20929   0.00000  Uiso   1.00
O65    O     0.26223   0.35518   0.44597   0.00000  Uiso   1.00
O66    O     0.16667   0.18573   0.20928   0.00000  Uiso   1.00
O67    O     0.16666   0.31427   0.29072   0.00000  Uiso   1.00
O68    O     0.09161   0.24999   0.28132   0.00000  Uiso   1.00
O69    O     0.24172   0.25000   0.21868   0.00000  Uiso   1.00
O70    O     0.09161   0.25000   0.19989   0.00000  Uiso   1.00
O71    O     0.24172   0.25000   0.30012   0.00000  Uiso   1.00
O72    O     0.30014   0.28393   0.14675   0.00000  Uiso   1.00
S73    S     0.32618   0.30328   0.19333   0.00000  Uiso   1.00
S74    S     0.00650   0.19718   0.30726   0.00000  Uiso   1.00
S75    S     0.25125   0.19241   0.03484   0.00000  Uiso   1.00
S76    S     0.22506   0.32806   0.48166   0.00000  Uiso   1.00
C77    C     0.50011   0.16492   0.25000   0.00000  Uiso   1.00
C78    C     0.52613   0.28381   0.44906   0.00000  Uiso   1.00
C79    C     0.50101   0.24980   0.02749   0.00000  Uiso   1.00
C80    C     0.50111   0.25003   0.47283   0.00000  Uiso   1.00
C81    C     0.40150   0.25094   0.23820   0.00000  Uiso   1.00
C82    C     0.59846   0.24914   0.26177   0.00000  Uiso   1.00
C83    C     0.34768   0.25950   0.23397   0.00000  Uiso   1.00
C84    C     0.65214   0.24042   0.26588   0.00000  Uiso   1.00
C85    C     0.48478   0.04757   0.28959   0.00000  Uiso   1.00
C86    C     0.48490   0.45238   0.20700   0.00000  Uiso   1.00
C87    C     0.48497   0.09349   0.28970   0.00000  Uiso   1.00
C88    C     0.50002   0.33508   0.25002   0.00000  Uiso   1.00
C89    C     0.48504   0.40647   0.20691   0.00000  Uiso   1.00
C90    C     0.50034   0.11671   0.25005   0.00000  Uiso   1.00
C91    C     0.50019   0.38330   0.25006   0.00000  Uiso   1.00
C92    C     0.51600   0.09357   0.21051   0.00000  Uiso   1.00
C93    C     0.51558   0.40650   0.29322   0.00000  Uiso   1.00
C94    C     0.51648   0.04765   0.21069   0.00000  Uiso   1.00
C95    C     0.51611   0.45242   0.29317   0.00000  Uiso   1.00
C96    C     0.50066   0.02429   0.25014   0.00000  Uiso   1.00
C97    C     0.50059   0.47573   0.25009   0.00000  Uiso   1.00
C98    C     0.42476   0.29895   0.02041   0.00000  Uiso   1.00
C99    C     0.46407   0.27417   0.04946   0.00000  Uiso   1.00
C100   C     0.44779   0.18179   0.46496   0.00000  Uiso   1.00
C101   C     0.47549   0.21654   0.44364   0.00000  Uiso   1.00
C102   C     0.46475   0.27406   0.10045   0.00000  Uiso   1.00
C103   C     0.47610   0.21700   0.39279   0.00000  Uiso   1.00
C104   C     0.53537   0.22547   0.10912   0.00000  Uiso   1.00
C105   C     0.52484   0.28282   0.39789   0.00000  Uiso   1.00
C106   C     0.53717   0.22487   0.05832   0.00000  Uiso   1.00
Cu107  Cu    0.50000   0.24999   0.29822   0.00000  Uiso   1.00
Cu108  Cu    0.50000   0.25000   0.20179   0.00000  Uiso   1.00
H109   H     0.47157   0.03032   0.32005   0.00000  Uiso   1.00
H110   H     0.45711   0.19089   0.37075   0.00000  Uiso   1.00
H111   H     0.56250   0.20631   0.13287   0.00000  Uiso   1.00
H112   H     0.54393   0.30845   0.37962   0.00000  Uiso   1.00
H113   H     0.36231   0.35488   0.15530   0.00000  Uiso   1.00
H114   H     0.63649   0.14445   0.34305   0.00000  Uiso   1.00
H115   H     0.61419   0.14919   0.09388   0.00000  Uiso   1.00
H116   H     0.61207   0.37907   0.46679   0.00000  Uiso   1.00
H117   H     0.47191   0.46960   0.17351   0.00000  Uiso   1.00
H118   H     0.47239   0.11078   0.32044   0.00000  Uiso   1.00
H119   H     0.47264   0.38912   0.17327   0.00000  Uiso   1.00
H120   H     0.52850   0.11094   0.17976   0.00000  Uiso   1.00
H121   H     0.52786   0.38918   0.32684   0.00000  Uiso   1.00
H122   H     0.52977   0.03045   0.18025   0.00000  Uiso   1.00
H123   H     0.52923   0.46966   0.32668   0.00000  Uiso   1.00
H124   H     0.43675   0.29312   0.11715   0.00000  Uiso   1.00
N125   N     0.50000   0.25001   0.12935   0.00000  Uiso   1.00
N126   N     0.50000   0.24999   0.37066   0.00000  Uiso   1.00
N127   N     0.39321   0.31876   0.49711   0.00000  Uiso   1.00
N128   N     0.42554   0.15398   0.48209   0.00000  Uiso   1.00
O129   O     0.50000   0.18572   0.29072   0.00000  Uiso   1.00
O130   O     0.62278   0.33280   0.21573   0.00000  Uiso   1.00
O131   O     0.37653   0.33379   0.18072   0.00000  Uiso   1.00
O132   O     0.37957   0.16884   0.28765   0.00000  Uiso   1.00
O133   O     0.36164   0.21756   0.35480   0.00000  Uiso   1.00
O134   O     0.62299   0.16510   0.31688   0.00000  Uiso   1.00
O135   O     0.55973   0.15261   0.00941   0.00000  Uiso   1.00
O136   O     0.61064   0.21868   0.49878   0.00000  Uiso   1.00
O137   O     0.62903   0.17574   0.07992   0.00000  Uiso   1.00
O138   O     0.51938   0.35942   0.49751   0.00000  Uiso   1.00
O139   O     0.59122   0.31103   0.02586   0.00000  Uiso   1.00
O140   O     0.50000   0.31427   0.20929   0.00000  Uiso   1.00
O141   O     0.59556   0.35518   0.44597   0.00000  Uiso   1.00
O142   O     0.50000   0.18573   0.20928   0.00000  Uiso   1.00
O143   O     0.50000   0.31427   0.29072   0.00000  Uiso   1.00
O144   O     0.42495   0.24999   0.28132   0.00000  Uiso   1.00
O145   O     0.57505   0.25000   0.21868   0.00000  Uiso   1.00
O146   O     0.42495   0.25000   0.19989   0.00000  Uiso   1.00
O147   O     0.57505   0.25000   0.30012   0.00000  Uiso   1.00
O148   O     0.63347   0.28393   0.14675   0.00000  Uiso   1.00
S149   S     0.65951   0.30328   0.19333   0.00000  Uiso   1.00
S150   S     0.33984   0.19718   0.30726   0.00000  Uiso   1.00
S151   S     0.58458   0.19241   0.03484   0.00000  Uiso   1.00
S152   S     0.55839   0.32806   0.48166   0.00000  Uiso   1.00
C153   C     0.83344   0.16492   0.25000   0.00000  Uiso   1.00
C154   C     0.85947   0.28381   0.44906   0.00000  Uiso   1.00
C155   C     0.83434   0.24980   0.02749   0.00000  Uiso   1.00
C156   C     0.83445   0.25003   0.47283   0.00000  Uiso   1.00
C157   C     0.73483   0.25094   0.23820   0.00000  Uiso   1.00
C158   C     0.93179   0.24914   0.26177   0.00000  Uiso   1.00
C159   C     0.68102   0.25950   0.23397   0.00000  Uiso   1.00
C160   C     0.98548   0.24042   0.26588   0.00000  Uiso   1.00
C161   C     0.81811   0.04757   0.28959   0.00000  Uiso   1.00
C162   C     0.81823   0.45238   0.20700   0.00000  Uiso   1.00
C163   C     0.81831   0.09349   0.28970   0.00000  Uiso   1.00
C164   C     0.83336   0.33508   0.25002   0.00000  Uiso   1.00
C165   C     0.81838   0.40647   0.20691   0.00000  Uiso   1.00
C166   C     0.83368   0.11671   0.25005   0.00000  Uiso   1.00
C167   C     0.83352   0.38330   0.25006   0.00000  Uiso   1.00
C168   C     0.84933   0.09357   0.21051   0.00000  Uiso   1.00
C169   C     0.84891   0.40650   0.29322   0.00000  Uiso   1.00
C170   C     0.84981   0.04765   0.21069   0.00000  Uiso   1.00
C171   C     0.84945   0.45242   0.29317   0.00000  Uiso   1.00
C172   C     0.83399   0.02429   0.25014   0.00000  Uiso   1.00
C173   C     0.83393   0.47573   0.25009   0.00000  Uiso   1.00
C174   C     0.75809   0.29895   0.02041   0.00000  Uiso   1.00
C175   C     0.79741   0.27417   0.04946   0.00000  Uiso   1.00
C176   C     0.78112   0.18179   0.46496   0.00000  Uiso   1.00
C177   C     0.80883   0.21654   0.44364   0.00000  Uiso   1.00
C178   C     0.79808   0.27406   0.10045   0.00000  Uiso   1.00
C179   C     0.80944   0.21700   0.39279   0.00000  Uiso   1.00
C180   C     0.86871   0.22547   0.10912   0.00000  Uiso   1.00
C181   C     0.85817   0.28282   0.39789   0.00000  Uiso   1.00
C182   C     0.87051   0.22487   0.05832   0.00000  Uiso   1.00
Cu183  Cu    0.83333   0.24999   0.29822   0.00000  Uiso   1.00
Cu184  Cu    0.83333   0.25000   0.20179   0.00000  Uiso   1.00
H185   H     0.80491   0.03032   0.32005   0.00000  Uiso   1.00
H186   H     0.79045   0.19089   0.37075   0.00000  Uiso   1.00
H187   H     0.89583   0.20631   0.13287   0.00000  Uiso   1.00
H188   H     0.87726   0.30845   0.37962   0.00000  Uiso   1.00
H189   H     0.69564   0.35488   0.15530   0.00000  Uiso   1.00
H190   H     0.96983   0.14445   0.34305   0.00000  Uiso   1.00
H191   H     0.94753   0.14919   0.09388   0.00000  Uiso   1.00
H192   H     0.94540   0.37907   0.46679   0.00000  Uiso   1.00
H193   H     0.80524   0.46960   0.17351   0.00000  Uiso   1.00
H194   H     0.80573   0.11078   0.32044   0.00000  Uiso   1.00
H195   H     0.80597   0.38912   0.17327   0.00000  Uiso   1.00
H196   H     0.86183   0.11094   0.17976   0.00000  Uiso   1.00
H197   H     0.86120   0.38918   0.32684   0.00000  Uiso   1.00
H198   H     0.86310   0.03045   0.18025   0.00000  Uiso   1.00
H199   H     0.86256   0.46966   0.32668   0.00000  Uiso   1.00
H200   H     0.77008   0.29312   0.11715   0.00000  Uiso   1.00
N201   N     0.83333   0.25001   0.12935   0.00000  Uiso   1.00
N202   N     0.83333   0.24999   0.37066   0.00000  Uiso   1.00
N203   N     0.72655   0.31876   0.49711   0.00000  Uiso   1.00
N204   N     0.75887   0.15398   0.48209   0.00000  Uiso   1.00
O205   O     0.83334   0.18572   0.29072   0.00000  Uiso   1.00
O206   O     0.95612   0.33280   0.21573   0.00000  Uiso   1.00
O207   O     0.70986   0.33379   0.18072   0.00000  Uiso   1.00
O208   O     0.71290   0.16884   0.28765   0.00000  Uiso   1.00
O209   O     0.69498   0.21756   0.35480   0.00000  Uiso   1.00
O210   O     0.95632   0.16510   0.31688   0.00000  Uiso   1.00
O211   O     0.89307   0.15261   0.00941   0.00000  Uiso   1.00
O212   O     0.94398   0.21868   0.49878   0.00000  Uiso   1.00
O213   O     0.96236   0.17574   0.07992   0.00000  Uiso   1.00
O214   O     0.85271   0.35942   0.49751   0.00000  Uiso   1.00
O215   O     0.92456   0.31103   0.02586   0.00000  Uiso   1.00
O216   O     0.83333   0.31427   0.20929   0.00000  Uiso   1.00
O217   O     0.92889   0.35518   0.44597   0.00000  Uiso   1.00
O218   O     0.83334   0.18573   0.20928   0.00000  Uiso   1.00
O219   O     0.83333   0.31427   0.29072   0.00000  Uiso   1.00
O220   O     0.75828   0.24999   0.28132   0.00000  Uiso   1.00
O221   O     0.90839   0.25000   0.21868   0.00000  Uiso   1.00
O222   O     0.75828   0.25000   0.19989   0.00000  Uiso   1.00
O223   O     0.90839   0.25000   0.30012   0.00000  Uiso   1.00
O224   O     0.96681   0.28393   0.14675   0.00000  Uiso   1.00
S225   S     0.99285   0.30328   0.19333   0.00000  Uiso   1.00
S226   S     0.67317   0.19718   0.30726   0.00000  Uiso   1.00
S227   S     0.91791   0.19241   0.03484   0.00000  Uiso   1.00
S228   S     0.89172   0.32806   0.48166   0.00000  Uiso   1.00
C229   C     0.16677   0.66492   0.25000   0.00000  Uiso   1.00
C230   C     0.19280   0.78381   0.44906   0.00000  Uiso   1.00
C231   C     0.16768   0.74980   0.02749   0.00000  Uiso   1.00
C232   C     0.16778   0.75003   0.47283   0.00000  Uiso   1.00
C233   C     0.06816   0.75094   0.23820   0.00000  Uiso   1.00
C234   C     0.26513   0.74914   0.26177   0.00000  Uiso   1.00
C235   C     0.01435   0.75950   0.23397   0.00000  Uiso   1.00
C236   C     0.31881   0.74042   0.26588   0.00000  Uiso   1.00
C237   C     0.15144   0.54757   0.28959   0.00000  Uiso   1.00
C238   C     0.15157   0.95238   0.20700   0.00000  Uiso   1.00
C239   C     0.15164   0.59349   0.28970   0.00000  Uiso   1.00
C240   C     0.16669   0.83508   0.25002   0.00000  Uiso   1.00
C241   C     0.15171   0.90647   0.20691   0.00000  Uiso   1.00
C242   C     0.16701   0.61671   0.25005   0.00000  Uiso   1.00
C243   C     0.16686   0.88330   0.25006   0.00000  Uiso   1.00
C244   C     0.18266   0.59357   0.21051   0.00000  Uiso   1.00
C245   C     0.18224   0.90650   0.29322   0.00000  Uiso   1.00
C246   C     0.18315   0.54765   0.21069   0.00000  Uiso   1.00
C247   C     0.18278   0.95242   0.29317   0.00000  Uiso   1.00
C248   C     0.16732   0.52429   0.25014   0.00000  Uiso   1.00
C249   C     0.16726   0.97573   0.25009   0.00000  Uiso   1.00
C250   C     0.09143   0.79895   0.02041   0.00000  Uiso   1.00
C251   C     0.13074   0.77417   0.04946   0.00000  Uiso   1.00
C252   C     0.11445   0.68179   0.46496   0.00000  Uiso   1.00
C253   C     0.14216   0.71654   0.44364   0.00000  Uiso   1.00
C254   C     0.13142   0.77406   0.10045   0.00000  Uiso   1.00
C255   C     0.14277   0.71700   0.39279   0.00000  Uiso   1.00
C256   C     0.20204   0.72547   0.10912   0.00000  Uiso   1.00
C257   C     0.19151   0.78282   0.39789   0.00000  Uiso   1.00
C258   C     0.20384   0.72487   0.05832   0.00000  Uiso   1.00
Cu259  Cu    0.16667   0.74999   0.29822   0.00000  Uiso   1.00
Cu260  Cu    0.16667   0.75000   0.20179   0.00000  Uiso   1.00
H261   H     0.13824   0.53032   0.32005   0.00000  Uiso   1.00
H262   H     0.12378   0.69089   0.37075   0.00000  Uiso   1.00
H263   H     0.22916   0.70631   0.13287   0.00000  Uiso   1.00
H264   H     0.21059   0.80845   0.37962   0.00000  Uiso   1.00
H265   H     0.02897   0.85488   0.15530   0.00000  Uiso   1.00
H266   H     0.30316   0.64445   0.34305   0.00000  Uiso   1.00
H267   H     0.28086   0.64919   0.09388   0.00000  Uiso   1.00
H268   H     0.27873   0.87907   0.46679   0.00000  Uiso   1.00
H269   H     0.13858   0.96960   0.17351   0.00000  Uiso   1.00
H270   H     0.13906   0.61078   0.32044   0.00000  Uiso   1.00
H271   H     0.13930   0.88912   0.17327   0.00000  Uiso   1.00
H272   H     0.19517   0.61094   0.17976   0.00000  Uiso   1.00
H273   H     0.19453   0.88918   0.32684   0.00000  Uiso   1.00
H274   H     0.19643   0.53045   0.18025   0.00000  Uiso   1.00
H275   H     0.19589   0.96966   0.32668   0.00000  Uiso   1.00
H276   H     0.10341   0.79312   0.11715   0.00000  Uiso   1.00
N277   N     0.16667   0.75001   0.12935   0.00000  Uiso   1.00
N278   N     0.16667   0.74999   0.37066   0.00000  Uiso   1.00
N279   N     0.05988   0.81876   0.49711   0.00000  Uiso   1.00
N280   N     0.09221   0.65398   0.48209   0.00000  Uiso   1.00
O281   O     0.16667   0.68572   0.29072   0.00000  Uiso   1.00
O282   O     0.28945   0.83280   0.21573   0.00000  Uiso   1.00
O283   O     0.04320   0.83379   0.18072   0.00000  Uiso   1.00
O284   O     0.04624   0.66884   0.28765   0.00000  Uiso   1.00
O285   O     0.02831   0.71756   0.35480   0.00000  Uiso   1.00
O286   O     0.28965   0.66510   0.31688   0.00000  Uiso   1.00
O287   O     0.22640   0.65261   0.00941   0.00000  Uiso   1.00
O288   O     0.27731   0.71868   0.49878   0.00000  Uiso   1.00
O289   O     0.29569   0.67574   0.07992   0.00000  Uiso   1.00
O290   O     0.18605   0.85942   0.49751   0.00000  Uiso   1.00
O291   O     0.25789   0.81103   0.02586   0.00000  Uiso   1.00
O292   O     0.16666   0.81427   0.20929   0.00000  Uiso   1.00
O293   O     0.26223   0.85518   0.44597   0.00000  Uiso   1.00
O294   O     0.16667   0.68573   0.20928   0.00000  Uiso   1.00
O295   O     0.16666   0.81427   0.29072   0.00000  Uiso   1.00
O296   O     0.09161   0.74999   0.28132   0.00000  Uiso   1.00
O297   O     0.24172   0.75000   0.21868   0.00000  Uiso   1.00
O298   O     0.09161   0.75000   0.19989   0.00000  Uiso   1.00
O299   O     0.24172   0.75000   0.30012   0.00000  Uiso   1.00
O300   O     0.30014   0.78393   0.14675   0.00000  Uiso   1.00
S301   S     0.32618   0.80328   0.19333   0.00000  Uiso   1.00
S302   S     0.00650   0.69718   0.30726   0.00000  Uiso   1.00
S303   S     0.25125   0.69241   0.03484   0.00000  Uiso   1.00
S304   S     0.22506   0.82806   0.48166   0.00000  Uiso   1.00
C305   C     0.50011   0.66492   0.25000   0.00000  Uiso   1.00
C306   C     0.52613   0.78381   0.44906   0.00000  Uiso   1.00
C307   C     0.50101   0.74980   0.02749   0.00000  Uiso   1.00
C308   C     0.50111   0.75003   0.47283   0.00000  Uiso   1.00
C309   C     0.40150   0.75094   0.23820   0.00000  Uiso   1.00
C310   C     0.59846   0.74914   0.26177   0.00000  Uiso   1.00
C311   C     0.34768   0.75950   0.23397   0.00000  Uiso   1.00
C312   C     0.65214   0.74042   0.26588   0.00000  Uiso   1.00
C313   C     0.48478   0.54757   0.28959   0.00000  Uiso   1.00
C314   C     0.48490   0.95238   0.20700   0.00000  Uiso   1.00
C315   C     0.48497   0.59349   0.28970   0.00000  Uiso   1.00
C316   C     0.50002   0.83508   0.25002   0.00000  Uiso   1.00
C317   C     0.48504   0.90647   0.20691   0.00000  Uiso   1.00
C318   C     0.50034   0.61671   0.25005   0.00000  Uiso   1.00
C319   C     0.50019   0.88330   0.25006   0.00000  Uiso   1.00
C320   C     0.51600   0.59357   0.21051   0.00000  Uiso   1.00
C321   C     0.51558   0.90650   0.29322   0.00000  Uiso   1.00
C322   C     0.51648   0.54765   0.21069   0.00000  Uiso   1.00
C323   C     0.51611   0.95242   0.29317   0.00000  Uiso   1.00
C324   C     0.50066   0.52429   0.25014   0.00000  Uiso   1.00
C325   C     0.50059   0.97573   0.25009   0.00000  Uiso   1.00
C326   C     0.42476   0.79895   0.02041   0.00000  Uiso   1.00
C327   C     0.46407   0.77417   0.04946   0.00000  Uiso   1.00
C328   C     0.44779   0.68179   0.46496   0.00000  Uiso   1.00
C329   C     0.47549   0.71654   0.44364   0.00000  Uiso   1.00
C330   C     0.46475   0.77406   0.10045   0.00000  Uiso   1.00
C331   C     0.47610   0.71700   0.39279   0.00000  Uiso   1.00
C332   C     0.53537   0.72547   0.10912   0.00000  Uiso   1.00
C333   C     0.52484   0.78282   0.39789   0.00000  Uiso   1.00
C334   C     0.53717   0.72487   0.05832   0.00000  Uiso   1.00
Cu335  Cu    0.50000   0.74999   0.29822   0.00000  Uiso   1.00
Cu336  Cu    0.50000   0.75000   0.20179   0.00000  Uiso   1.00
H337   H     0.47157   0.53032   0.32005   0.00000  Uiso   1.00
H338   H     0.45711   0.69089   0.37075   0.00000  Uiso   1.00
H339   H     0.56250   0.70631   0.13287   0.00000  Uiso   1.00
H340   H     0.54393   0.80845   0.37962   0.00000  Uiso   1.00
H341   H     0.36231   0.85488   0.15530   0.00000  Uiso   1.00
H342   H     0.63649   0.64445   0.34305   0.00000  Uiso   1.00
H343   H     0.61419   0.64919   0.09388   0.00000  Uiso   1.00
H344   H     0.61207   0.87907   0.46679   0.00000  Uiso   1.00
H345   H     0.47191   0.96960   0.17351   0.00000  Uiso   1.00
H346   H     0.47239   0.61078   0.32044   0.00000  Uiso   1.00
H347   H     0.47264   0.88912   0.17327   0.00000  Uiso   1.00
H348   H     0.52850   0.61094   0.17976   0.00000  Uiso   1.00
H349   H     0.52786   0.88918   0.32684   0.00000  Uiso   1.00
H350   H     0.52977   0.53045   0.18025   0.00000  Uiso   1.00
H351   H     0.52923   0.96966   0.32668   0.00000  Uiso   1.00
H352   H     0.43675   0.79312   0.11715   0.00000  Uiso   1.00
N353   N     0.50000   0.75001   0.12935   0.00000  Uiso   1.00
N354   N     0.50000   0.74999   0.37066   0.00000  Uiso   1.00
N355   N     0.39321   0.81876   0.49711   0.00000  Uiso   1.00
N356   N     0.42554   0.65398   0.48209   0.00000  Uiso   1.00
O357   O     0.50000   0.68572   0.29072   0.00000  Uiso   1.00
O358   O     0.62278   0.83280   0.21573   0.00000  Uiso   1.00
O359   O     0.37653   0.83379   0.18072   0.00000  Uiso   1.00
O360   O     0.37957   0.66884   0.28765   0.00000  Uiso   1.00
O361   O     0.36164   0.71756   0.35480   0.00000  Uiso   1.00
O362   O     0.62299   0.66510   0.31688   0.00000  Uiso   1.00
O363   O     0.55973   0.65261   0.00941   0.00000  Uiso   1.00
O364   O     0.61064   0.71868   0.49878   0.00000  Uiso   1.00
O365   O     0.62903   0.67574   0.07992   0.00000  Uiso   1.00
O366   O     0.51938   0.85942   0.49751   0.00000  Uiso   1.00
O367   O     0.59122   0.81103   0.02586   0.00000  Uiso   1.00
O368   O     0.50000   0.81427   0.20929   0.00000  Uiso   1.00
O369   O     0.59556   0.85518   0.44597   0.00000  Uiso   1.00
O370   O     0.50000   0.68573   0.20928   0.00000  Uiso   1.00
O371   O     0.50000   0.81427   0.29072   0.00000  Uiso   1.00
O372   O     0.42495   0.74999   0.28132   0.00000  Uiso   1.00
O373   O     0.57505   0.75000   0.21868   0.00000  Uiso   1.00
O374   O     0.42495   0.75000   0.19989   0.00000  Uiso   1.00
O375   O     0.57505   0.75000   0.30012   0.00000  Uiso   1.00
O376   O     0.63347   0.78393   0.14675   0.00000  Uiso   1.00
S377   S     0.65951   0.80328   0.19333   0.00000  Uiso   1.00
S378   S     0.33984   0.69718   0.30726   0.00000  Uiso   1.00
S379   S     0.58458   0.69241   0.03484   0.00000  Uiso   1.00
S380   S     0.55839   0.82806   0.48166   0.00000  Uiso   1.00
C381   C     0.83344   0.66492   0.25000   0.00000  Uiso   1.00
C382   C     0.85947   0.78381   0.44906   0.00000  Uiso   1.00
C383   C     0.83434   0.74980   0.02749   0.00000  Uiso   1.00
C384   C     0.83445   0.75003   0.47283   0.00000  Uiso   1.00
C385   C     0.73483   0.75094   0.23820   0.00000  Uiso   1.00
C386   C     0.93179   0.74914   0.26177   0.00000  Uiso   1.00
C387   C     0.68102   0.75950   0.23397   0.00000  Uiso   1.00
C388   C     0.98548   0.74042   0.26588   0.00000  Uiso   1.00
C389   C     0.81811   0.54757   0.28959   0.00000  Uiso   1.00
C390   C     0.81823   0.95238   0.20700   0.00000  Uiso   1.00
C391   C     0.81831   0.59349   0.28970   0.00000  Uiso   1.00
C392   C     0.83336   0.83508   0.25002   0.00000  Uiso   1.00
C393   C     0.81838   0.90647   0.20691   0.00000  Uiso   1.00
C394   C     0.83368   0.61671   0.25005   0.00000  Uiso   1.00
C395   C     0.83352   0.88330   0.25006   0.00000  Uiso   1.00
C396   C     0.84933   0.59357   0.21051   0.00000  Uiso   1.00
C397   C     0.84891   0.90650   0.29322   0.00000  Uiso   1.00
C398   C     0.84981   0.54765   0.21069   0.00000  Uiso   1.00
C399   C     0.84945   0.95242   0.29317   0.00000  Uiso   1.00
C400   C     0.83399   0.52429   0.25014   0.00000  Uiso   1.00
C401   C     0.83393   0.97573   0.25009   0.00000  Uiso   1.00
C402   C     0.75809   0.79895   0.02041   0.00000  Uiso   1.00
C403   C     0.79741   0.77417   0.04946   0.00000  Uiso   1.00
C404   C     0.78112   0.68179   0.46496   0.00000  Uiso   1.00
C405   C     0.80883   0.71654   0.44364   0.00000  Uiso   1.00
C406   C     0.79808   0.77406   0.10045   0.00000  Uiso   1.00
C407   C     0.80944   0.71700   0.39279   0.00000  Uiso   1.00
C408   C     0.86871   0.72547   0.10912   0.00000  Uiso   1.00
C409   C     0.85817   0.78282   0.39789   0.00000  Uiso   1.00
C410   C     0.87051   0.72487   0.05832   0.00000  Uiso   1.00
Cu411  Cu    0.83333   0.74999   0.29822   0.00000  Uiso   1.00
Cu412  Cu    0.83333   0.75000   0.20179   0.00000  Uiso   1.00
H413   H     0.80491   0.53032   0.32005   0.00000  Uiso   1.00
H414   H     0.79045   0.69089   0.37075   0.00000  Uiso   1.00
H415   H     0.89583   0.70631   0.13287   0.00000  Uiso   1.00
H416   H     0.87726   0.80845   0.37962   0.00000  Uiso   1.00
H417   H     0.69564   0.85488   0.15530   0.00000  Uiso   1.00
H418   H     0.96983   0.64445   0.34305   0.00000  Uiso   1.00
H419   H     0.94753   0.64919   0.09388   0.00000  Uiso   1.00
H420   H     0.94540   0.87907   0.46679   0.00000  Uiso   1.00
H421   H     0.80524   0.96960   0.17351   0.00000  Uiso   1.00
H422   H     0.80573   0.61078   0.32044   0.00000  Uiso   1.00
H423   H     0.80597   0.88912   0.17327   0.00000  Uiso   1.00
H424   H     0.86183   0.61094   0.17976   0.00000  Uiso   1.00
H425   H     0.86120   0.88918   0.32684   0.00000  Uiso   1.00
H426   H     0.86310   0.53045   0.18025   0.00000  Uiso   1.00
H427   H     0.86256   0.96966   0.32668   0.00000  Uiso   1.00
H428   H     0.77008   0.79312   0.11715   0.00000  Uiso   1.00
N429   N     0.83333   0.75001   0.12935   0.00000  Uiso   1.00
N430   N     0.83333   0.74999   0.37066   0.00000  Uiso   1.00
N431   N     0.72655   0.81876   0.49711   0.00000  Uiso   1.00
N432   N     0.75887   0.65398   0.48209   0.00000  Uiso   1.00
O433   O     0.83334   0.68572   0.29072   0.00000  Uiso   1.00
O434   O     0.95612   0.83280   0.21573   0.00000  Uiso   1.00
O435   O     0.70986   0.83379   0.18072   0.00000  Uiso   1.00
O436   O     0.71290   0.66884   0.28765   0.00000  Uiso   1.00
O437   O     0.69498   0.71756   0.35480   0.00000  Uiso   1.00
O438   O     0.95632   0.66510   0.31688   0.00000  Uiso   1.00
O439   O     0.89307   0.65261   0.00941   0.00000  Uiso   1.00
O440   O     0.94398   0.71868   0.49878   0.00000  Uiso   1.00
O441   O     0.96236   0.67574   0.07992   0.00000  Uiso   1.00
O442   O     0.85271   0.85942   0.49751   0.00000  Uiso   1.00
O443   O     0.92456   0.81103   0.02586   0.00000  Uiso   1.00
O444   O     0.83333   0.81427   0.20929   0.00000  Uiso   1.00
O445   O     0.92889   0.85518   0.44597   0.00000  Uiso   1.00
O446   O     0.83334   0.68573   0.20928   0.00000  Uiso   1.00
O447   O     0.83333   0.81427   0.29072   0.00000  Uiso   1.00
O448   O     0.75828   0.74999   0.28132   0.00000  Uiso   1.00
O449   O     0.90839   0.75000   0.21868   0.00000  Uiso   1.00
O450   O     0.75828   0.75000   0.19989   0.00000  Uiso   1.00
O451   O     0.90839   0.75000   0.30012   0.00000  Uiso   1.00
O452   O     0.96681   0.78393   0.14675   0.00000  Uiso   1.00
S453   S     0.99285   0.80328   0.19333   0.00000  Uiso   1.00
S454   S     0.67317   0.69718   0.30726   0.00000  Uiso   1.00
S455   S     0.91791   0.69241   0.03484   0.00000  Uiso   1.00
S456   S     0.89172   0.82806   0.48166   0.00000  Uiso   1.00
C457   C     0.16677   0.16492   0.75000   0.00000  Uiso   1.00
C458   C     0.19280   0.28381   0.94906   0.00000  Uiso   1.00
C459   C     0.16768   0.24980   0.52749   0.00000  Uiso   1.00
C460   C     0.16778   0.25003   0.97283   0.00000  Uiso   1.00
C461   C     0.06816   0.25094   0.73820   0.00000  Uiso   1.00
C462   C     0.26513   0.24914   0.76177   0.00000  Uiso   1.00
C463   C     0.01435   0.25950   0.73397   0.00000  Uiso   1.00
C464   C     0.31881   0.24042   0.76588   0.00000  Uiso   1.00
C465   C     0.15144   0.04757   0.78959   0.00000  Uiso   1.00
C466   C     0.15157   0.45238   0.70700   0.00000  Uiso   1.00
C467   C     0.15164   0.09349   0.78970   0.00000  Uiso   1.00
C468   C     0.16669   0.33508   0.75002   0.00000  Uiso   1.00
C469   C     0.15171   0.40647   0.70691   0.00000  Uiso   1.00
C470   C     0.16701   0.11671   0.75005   0.00000  Uiso   1.00
C471   C     0.16686   0.38330   0.75006   0.00000  Uiso   1.00
C472   C     0.18266   0.09357   0.71051   0.00000  Uiso   1.00
C473   C     0.18224   0.40650   0.79322   0.00000  Uiso   1.00
C474   C     0.18315   0.04765   0.71069   0.00000  Uiso   1.00
C475   C     0.18278   0.45242   0.79317   0.00000  Uiso   1.00
C476   C     0.16732   0.02429   0.75014   0.00000  Uiso   1.00
C477   C     0.16726   0.47573   0.75009   0.00000  Uiso   1.00
C478   C     0.09143   0.29895   0.52041   0.00000  Uiso   1.00
C479   C     0.13074   0.27417   0.54946   0.00000  Uiso   1.00
C480   C     0.11445   0.18179   0.96496   0.00000  Uiso   1.00
C481   C     0.14216   0.21654   0.94364   0.00000  Uiso   1.00
C482   C     0.13142   0.27406   0.60045   0.00000  Uiso   1.00
C483   C     0.14277   0.21700   0.89279   0.00000  Uiso   1.00
C484   C     0.20204   0.22547   0.60912   0.00000  Uiso   1.00
C485   C     0.19151   0.28282   0.89789   0.00000  Uiso   1.00
C486   C     0.20384   0.22487   0.55832   0.00000  Uiso   1.00
Cu487  Cu    0.16667   0.24999   0.79822   0.00000  Uiso   1.00
Cu488  Cu    0.16667   0.25000   0.70179   0.00000  Uiso   1.00
H489   H     0.13824   0.03032   0.82005   0.00000  Uiso   1.00
H490   H     0.12378   0.19089   0.87075   0.00000  Uiso   1.00
H491   H     0.22916   0.20631   0.63287   0.00000  Uiso   1.00
H492   H     0.21059   0.30845   0.87962   0.00000  Uiso   1.00
H493   H     0.02897   0.35488   0.65530   0.00000  Uiso   1.00
H494   H     0.30316   0.14445   0.84305   0.00000  Uiso   1.00
H495   H     0.28086   0.14919   0.59388   0.00000  Uiso   1.00
H496   H     0.27873   0.37907   0.96679   0.00000  Uiso   1.00
H497   H     0.13858   0.46960   0.67351   0.00000  Uiso   1.00
H498   H     0.13906   0.11078   0.82044   0.00000  Uiso   1.00
H499   H     0.13930   0.38912   0.67327   0.00000  Uiso   1.00
H500   H     0.19517   0.11094   0.67976   0.00000  Uiso   1.00
H501   H     0.19453   0.38918   0.82684   0.00000  Uiso   1.00
H502   H     0.19643   0.03045   0.68025   0.00000  Uiso   1.00
H503   H     0.19589   0.46966   0.82668   0.00000  Uiso   1.00
H504   H     0.10341   0.29312   0.61715   0.00000  Uiso   1.00
N505   N     0.16667   0.25001   0.62935   0.00000  Uiso   1.00
N506   N     0.16667   0.24999   0.87066   0.00000  Uiso   1.00
N507   N     0.05988   0.31876   0.99711   0.00000  Uiso   1.00
N508   N     0.09221   0.15398   0.98209   0.00000  Uiso   1.00
O509   O     0.16667   0.18572   0.79072   0.00000  Uiso   1.00
O510   O     0.28945   0.33280   0.71573   0.00000  Uiso   1.00
O511   O     0.04320   0.33379   0.68072   0.00000  Uiso   1.00
O512   O     0.04624   0.16884   0.78765   0.00000  Uiso   1.00
O513   O     0.02831   0.21756   0.85480   0.00000  Uiso   1.00
O514   O     0.28965   0.16510   0.81688   0.00000  Uiso   1.00
O515   O     0.22640   0.15261   0.50941   0.00000  Uiso   1.00
O516   O     0.27731   0.21868   0.99878   0.00000  Uiso   1.00
O517   O     0.29569   0.17574   0.57992   0.00000  Uiso   1.00
O518   O     0.18605   0.35942   0.99751   0.00000  Uiso   1.00
O519   O     0.25789   0.31103   0.52586   0.00000  Uiso   1.00
O520   O     0.16666   0.31427   0.70929   0.00000  Uiso   1.00
O521   O     0.26223   0.35518   0.94597   0.00000  Uiso   1.00
O522   O     0.16667   0.18573   0.70928   0.00000  Uiso   1.00
O523   O     0.16666   0.31427   0.79072   0.00000  Uiso   1.00
O524   O     0.09161   0.24999   0.78132   0.00000  Uiso   1.00
O525   O     0.24172   0.25000   0.71868   0.00000  Uiso   1.00
O526   O     0.09161   0.25000   0.69989   0.00000  Uiso   1.00
O527   O     0.24172   0.25000   0.80012   0.00000  Uiso   1.00
O528   O     0.30014   0.28393   0.64675   0.00000  Uiso   1.00
S529   S     0.32618   0.30328   0.69333   0.00000  Uiso   1.00
S530   S     0.00650   0.19718   0.80726   0.00000  Uiso   1.00
S531   S     0.25125   0.19241   0.53484   0.00000  Uiso   1.00
S532   S     0.22506   0.32806   0.98166   0.00000  Uiso   1.00
C533   C     0.50011   0.16492   0.75000   0.00000  Uiso   1.00
C534   C     0.52613   0.28381   0.94906   0.00000  Uiso   1.00
C535   C     0.50101   0.24980   0.52749   0.00000  Uiso   1.00
C536   C     0.50111   0.25003   0.97283   0.00000  Uiso   1.00
C537   C     0.40150   0.25094   0.73820   0.00000  Uiso   1.00
C538   C     0.59846   0.24914   0.76177   0.00000  Uiso   1.00
C539   C     0.34768   0.25950   0.73397   0.00000  Uiso   1.00
C540   C     0.65214   0.24042   0.76588   0.00000  Uiso   1.00
C541   C     0.48478   0.04757   0.78959   0.00000  Uiso   1.00
C542   C     0.48490   0.45238   0.70700   0.00000  Uiso   1.00
C543   C     0.48497   0.09349   0.78970   0.00000  Uiso   1.00
C544   C     0.50002   0.33508   0.75002   0.00000  Uiso   1.00
C545   C     0.48504   0.40647   0.70691   0.00000  Uiso   1.00
C546   C     0.50034   0.11671   0.75005   0.00000  Uiso   1.00
C547   C     0.50019   0.38330   0.75006   0.00000  Uiso   1.00
C548   C     0.51600   0.09357   0.71051   0.00000  Uiso   1.00
C549   C     0.51558   0.40650   0.79322   0.00000  Uiso   1.00
C550   C     0.51648   0.04765   0.71069   0.00000  Uiso   1.00
C551   C     0.51611   0.45242   0.79317   0.00000  Uiso   1.00
C552   C     0.50066   0.02429   0.75014   0.00000  Uiso   1.00
C553   C     0.50059   0.47573   0.75009   0.00000  Uiso   1.00
C554   C     0.42476   0.29895   0.52041   0.00000  Uiso   1.00
C555   C     0.46407   0.27417   0.54946   0.00000  Uiso   1.00
C556   C     0.44779   0.18179   0.96496   0.00000  Uiso   1.00
C557   C     0.47549   0.21654   0.94364   0.00000  Uiso   1.00
C558   C     0.46475   0.27406   0.60045   0.00000  Uiso   1.00
C559   C     0.47610   0.21700   0.89279   0.00000  Uiso   1.00
C560   C     0.53537   0.22547   0.60912   0.00000  Uiso   1.00
C561   C     0.52484   0.28282   0.89789   0.00000  Uiso   1.00
C562   C     0.53717   0.22487   0.55832   0.00000  Uiso   1.00
Cu563  Cu    0.50000   0.24999   0.79822   0.00000  Uiso   1.00
Cu564  Cu    0.50000   0.25000   0.70179   0.00000  Uiso   1.00
H565   H     0.47157   0.03032   0.82005   0.00000  Uiso   1.00
H566   H     0.45711   0.19089   0.87075   0.00000  Uiso   1.00
H567   H     0.56250   0.20631   0.63287   0.00000  Uiso   1.00
H568   H     0.54393   0.30845   0.87962   0.00000  Uiso   1.00
H569   H     0.36231   0.35488   0.65530   0.00000  Uiso   1.00
H570   H     0.63649   0.14445   0.84305   0.00000  Uiso   1.00
H571   H     0.61419   0.14919   0.59388   0.00000  Uiso   1.00
H572   H     0.61207   0.37907   0.96679   0.00000  Uiso   1.00
H573   H     0.47191   0.46960   0.67351   0.00000  Uiso   1.00
H574   H     0.47239   0.11078   0.82044   0.00000  Uiso   1.00
H575   H     0.47264   0.38912   0.67327   0.00000  Uiso   1.00
H576   H     0.52850   0.11094   0.67976   0.00000  Uiso   1.00
H577   H     0.52786   0.38918   0.82684   0.00000  Uiso   1.00
H578   H     0.52977   0.03045   0.68025   0.00000  Uiso   1.00
H579   H     0.52923   0.46966   0.82668   0.00000  Uiso   1.00
H580   H     0.43675   0.29312   0.61715   0.00000  Uiso   1.00
N581   N     0.50000   0.25001   0.62935   0.00000  Uiso   1.00
N582   N     0.50000   0.24999   0.87066   0.00000  Uiso   1.00
N583   N     0.39321   0.31876   0.99711   0.00000  Uiso   1.00
N584   N     0.42554   0.15398   0.98209   0.00000  Uiso   1.00
O585   O     0.50000   0.18572   0.79072   0.00000  Uiso   1.00
O586   O     0.62278   0.33280   0.71573   0.00000  Uiso   1.00
O587   O     0.37653   0.33379   0.68072   0.00000  Uiso   1.00
O588   O     0.37957   0.16884   0.78765   0.00000  Uiso   1.00
O589   O     0.36164   0.21756   0.85480   0.00000  Uiso   1.00
O590   O     0.62299   0.16510   0.81688   0.00000  Uiso   1.00
O591   O     0.55973   0.15261   0.50941   0.00000  Uiso   1.00
O592   O     0.61064   0.21868   0.99878   0.00000  Uiso   1.00
O593   O     0.62903   0.17574   0.57992   0.00000  Uiso   1.00
O594   O     0.51938   0.35942   0.99751   0.00000  Uiso   1.00
O595   O     0.59122   0.31103   0.52586   0.00000  Uiso   1.00
O596   O     0.50000   0.31427   0.70929   0.00000  Uiso   1.00
O597   O     0.59556   0.35518   0.94597   0.00000  Uiso   1.00
O598   O     0.50000   0.18573   0.70928   0.00000  Uiso   1.00
O599   O     0.50000   0.31427   0.79072   0.00000  Uiso   1.00
O600   O     0.42495   0.24999   0.78132   0.00000  Uiso   1.00
O601   O     0.57505   0.25000   0.71868   0.00000  Uiso   1.00
O602   O     0.42495   0.25000   0.69989   0.00000  Uiso   1.00
O603   O     0.57505   0.25000   0.80012   0.00000  Uiso   1.00
O604   O     0.63347   0.28393   0.64675   0.00000  Uiso   1.00
S605   S     0.65951   0.30328   0.69333   0.00000  Uiso   1.00
S606   S     0.33984   0.19718   0.80726   0.00000  Uiso   1.00
S607   S     0.58458   0.19241   0.53484   0.00000  Uiso   1.00
S608   S     0.55839   0.32806   0.98166   0.00000  Uiso   1.00
C609   C     0.83344   0.16492   0.75000   0.00000  Uiso   1.00
C610   C     0.85947   0.28381   0.94906   0.00000  Uiso   1.00
C611   C     0.83434   0.24980   0.52749   0.00000  Uiso   1.00
C612   C     0.83445   0.25003   0.97283   0.00000  Uiso   1.00
C613   C     0.73483   0.25094   0.73820   0.00000  Uiso   1.00
C614   C     0.93179   0.24914   0.76177   0.00000  Uiso   1.00
C615   C     0.68102   0.25950   0.73397   0.00000  Uiso   1.00
C616   C     0.98548   0.24042   0.76588   0.00000  Uiso   1.00
C617   C     0.81811   0.04757   0.78959   0.00000  Uiso   1.00
C618   C     0.81823   0.45238   0.70700   0.00000  Uiso   1.00
C619   C     0.81831   0.09349   0.78970   0.00000  Uiso   1.00
C620   C     0.83336   0.33508   0.75002   0.00000  Uiso   1.00
C621   C     0.81838   0.40647   0.70691   0.00000  Uiso   1.00
C622   C     0.83368   0.11671   0.75005   0.00000  Uiso   1.00
C623   C     0.83352   0.38330   0.75006   0.00000  Uiso   1.00
C624   C     0.84933   0.09357   0.71051   0.00000  Uiso   1.00
C625   C     0.84891   0.40650   0.79322   0.00000  Uiso   1.00
C626   C     0.84981   0.04765   0.71069   0.00000  Uiso   1.00
C627   C     0.84945   0.45242   0.79317   0.00000  Uiso   1.00
C628   C     0.83399   0.02429   0.75014   0.00000  Uiso   1.00
C629   C     0.83393   0.47573   0.75009   0.00000  Uiso   1.00
C630   C     0.75809   0.29895   0.52041   0.00000  Uiso   1.00
C631   C     0.79741   0.27417   0.54946   0.00000  Uiso   1.00
C632   C     0.78112   0.18179   0.96496   0.00000  Uiso   1.00
C633   C     0.80883   0.21654   0.94364   0.00000  Uiso   1.00
C634   C     0.79808   0.27406   0.60045   0.00000  Uiso   1.00
C635   C     0.80944   0.21700   0.89279   0.00000  Uiso   1.00
C636   C     0.86871   0.22547   0.60912   0.00000  Uiso   1.00
C637   C     0.85817   0.28282   0.89789   0.00000  Uiso   1.00
C638   C     0.87051   0.22487   0.55832   0.00000  Uiso   1.00
Cu639  Cu    0.83333   0.24999   0.79822   0.00000  Uiso   1.00
Cu640  Cu    0.83333   0.25000   0.70179   0.00000  Uiso   1.00
H641   H     0.80491   0.03032   0.82005   0.00000  Uiso   1.00
H642   H     0.79045   0.19089   0.87075   0.00000  Uiso   1.00
H643   H     0.89583   0.20631   0.63287   0.00000  Uiso   1.00
H644   H     0.87726   0.30845   0.87962   0.00000  Uiso   1.00
H645   H     0.69564   0.35488   0.65530   0.00000  Uiso   1.00
H646   H     0.96983   0.14445   0.84305   0.00000  Uiso   1.00
H647   H     0.94753   0.14919   0.59388   0.00000  Uiso   1.00
H648   H     0.94540   0.37907   0.96679   0.00000  Uiso   1.00
H649   H     0.80524   0.46960   0.67351   0.00000  Uiso   1.00
H650   H     0.80573   0.11078   0.82044   0.00000  Uiso   1.00
H651   H     0.80597   0.38912   0.67327   0.00000  Uiso   1.00
H652   H     0.86183   0.11094   0.67976   0.00000  Uiso   1.00
H653   H     0.86120   0.38918   0.82684   0.00000  Uiso   1.00
H654   H     0.86310   0.03045   0.68025   0.00000  Uiso   1.00
H655   H     0.86256   0.46966   0.82668   0.00000  Uiso   1.00
H656   H     0.77008   0.29312   0.61715   0.00000  Uiso   1.00
N657   N     0.83333   0.25001   0.62935   0.00000  Uiso   1.00
N658   N     0.83333   0.24999   0.87066   0.00000  Uiso   1.00
N659   N     0.72655   0.31876   0.99711   0.00000  Uiso   1.00
N660   N     0.75887   0.15398   0.98209   0.00000  Uiso   1.00
O661   O     0.83334   0.18572   0.79072   0.00000  Uiso   1.00
O662   O     0.95612   0.33280   0.71573   0.00000  Uiso   1.00
O663   O     0.70986   0.33379   0.68072   0.00000  Uiso   1.00
O664   O     0.71290   0.16884   0.78765   0.00000  Uiso   1.00
O665   O     0.69498   0.21756   0.85480   0.00000  Uiso   1.00
O666   O     0.95632   0.16510   0.81688   0.00000  Uiso   1.00
O667   O     0.89307   0.15261   0.50941   0.00000  Uiso   1.00
O668   O     0.94398   0.21868   0.99878   0.00000  Uiso   1.00
O669   O     0.96236   0.17574   0.57992   0.00000  Uiso   1.00
O670   O     0.85271   0.35942   0.99751   0.00000  Uiso   1.00
O671   O     0.92456   0.31103   0.52586   0.00000  Uiso   1.00
O672   O     0.83333   0.31427   0.70929   0.00000  Uiso   1.00
O673   O     0.92889   0.35518   0.94597   0.00000  Uiso   1.00
O674   O     0.83334   0.18573   0.70928   0.00000  Uiso   1.00
O675   O     0.83333   0.31427   0.79072   0.00000  Uiso   1.00
O676   O     0.75828   0.24999   0.78132   0.00000  Uiso   1.00
O677   O     0.90839   0.25000   0.71868   0.00000  Uiso   1.00
O678   O     0.75828   0.25000   0.69989   0.00000  Uiso   1.00
O679   O     0.90839   0.25000   0.80012   0.00000  Uiso   1.00
O680   O     0.96681   0.28393   0.64675   0.00000  Uiso   1.00
S681   S     0.99285   0.30328   0.69333   0.00000  Uiso   1.00
S682   S     0.67317   0.19718   0.80726   0.00000  Uiso   1.00
S683   S     0.91791   0.19241   0.53484   0.00000  Uiso   1.00
S684   S     0.89172   0.32806   0.98166   0.00000  Uiso   1.00
C685   C     0.16677   0.66492   0.75000   0.00000  Uiso   1.00
C686   C     0.19280   0.78381   0.94906   0.00000  Uiso   1.00
C687   C     0.16768   0.74980   0.52749   0.00000  Uiso   1.00
C688   C     0.16778   0.75003   0.97283   0.00000  Uiso   1.00
C689   C     0.06816   0.75094   0.73820   0.00000  Uiso   1.00
C690   C     0.26513   0.74914   0.76177   0.00000  Uiso   1.00
C691   C     0.01435   0.75950   0.73397   0.00000  Uiso   1.00
C692   C     0.31881   0.74042   0.76588   0.00000  Uiso   1.00
C693   C     0.15144   0.54757   0.78959   0.00000  Uiso   1.00
C694   C     0.15157   0.95238   0.70700   0.00000  Uiso   1.00
C695   C     0.15164   0.59349   0.78970   0.00000  Uiso   1.00
C696   C     0.16669   0.83508   0.75002   0.00000  Uiso   1.00
C697   C     0.15171   0.90647   0.70691   0.00000  Uiso   1.00
C698   C     0.16701   0.61671   0.75005   0.00000  Uiso   1.00
C699   C     0.16686   0.88330   0.75006   0.00000  Uiso   1.00
C700   C     0.18266   0.59357   0.71051   0.00000  Uiso   1.00
C701   C     0.18224   0.90650   0.79322   0.00000  Uiso   1.00
C702   C     0.18315   0.54765   0.71069   0.00000  Uiso   1.00
C703   C     0.18278   0.95242   0.79317   0.00000  Uiso   1.00
C704   C     0.16732   0.52429   0.75014   0.00000  Uiso   1.00
C705   C     0.16726   0.97573   0.75009   0.00000  Uiso   1.00
C706   C     0.09143   0.79895   0.52041   0.00000  Uiso   1.00
C707   C     0.13074   0.77417   0.54946   0.00000  Uiso   1.00
C708   C     0.11445   0.68179   0.96496   0.00000  Uiso   1.00
C709   C     0.14216   0.71654   0.94364   0.00000  Uiso   1.00
C710   C     0.13142   0.77406   0.60045   0.00000  Uiso   1.00
C711   C     0.14277   0.71700   0.89279   0.00000  Uiso   1.00
C712   C     0.20204   0.72547   0.60912   0.00000  Uiso   1.00
C713   C     0.19151   0.78282   0.89789   0.00000  Uiso   1.00
C714   C     0.20384   0.72487   0.55832   0.00000  Uiso   1.00
Cu715  Cu    0.16667   0.74999   0.79822   0.00000  Uiso   1.00
Cu716  Cu    0.16667   0.75000   0.70179   0.00000  Uiso   1.00
H717   H     0.13824   0.53032   0.82005   0.00000  Uiso   1.00
H718   H     0.12378   0.69089   0.87075   0.00000  Uiso   1.00
H719   H     0.22916   0.70631   0.63287   0.00000  Uiso   1.00
H720   H     0.21059   0.80845   0.87962   0.00000  Uiso   1.00
H721   H     0.02897   0.85488   0.65530   0.00000  Uiso   1.00
H722   H     0.30316   0.64445   0.84305   0.00000  Uiso   1.00
H723   H     0.28086   0.64919   0.59388   0.00000  Uiso   1.00
H724   H     0.27873   0.87907   0.96679   0.00000  Uiso   1.00
H725   H     0.13858   0.96960   0.67351   0.00000  Uiso   1.00
H726   H     0.13906   0.61078   0.82044   0.00000  Uiso   1.00
H727   H     0.13930   0.88912   0.67327   0.00000  Uiso   1.00
H728   H     0.19517   0.61094   0.67976   0.00000  Uiso   1.00
H729   H     0.19453   0.88918   0.82684   0.00000  Uiso   1.00
H730   H     0.19643   0.53045   0.68025   0.00000  Uiso   1.00
H731   H     0.19589   0.96966   0.82668   0.00000  Uiso   1.00
H732   H     0.10341   0.79312   0.61715   0.00000  Uiso   1.00
N733   N     0.16667   0.75001   0.62935   0.00000  Uiso   1.00
N734   N     0.16667   0.74999   0.87066   0.00000  Uiso   1.00
N735   N     0.05988   0.81876   0.99711   0.00000  Uiso   1.00
N736   N     0.09221   0.65398   0.98209   0.00000  Uiso   1.00
O737   O     0.16667   0.68572   0.79072   0.00000  Uiso   1.00
O738   O     0.28945   0.83280   0.71573   0.00000  Uiso   1.00
O739   O     0.04320   0.83379   0.68072   0.00000  Uiso   1.00
O740   O     0.04624   0.66884   0.78765   0.00000  Uiso   1.00
O741   O     0.02831   0.71756   0.85480   0.00000  Uiso   1.00
O742   O     0.28965   0.66510   0.81688   0.00000  Uiso   1.00
O743   O     0.22640   0.65261   0.50941   0.00000  Uiso   1.00
O744   O     0.27731   0.71868   0.99878   0.00000  Uiso   1.00
O745   O     0.29569   0.67574   0.57992   0.00000  Uiso   1.00
O746   O     0.18605   0.85942   0.99751   0.00000  Uiso   1.00
O747   O     0.25789   0.81103   0.52586   0.00000  Uiso   1.00
O748   O     0.16666   0.81427   0.70929   0.00000  Uiso   1.00
O749   O     0.26223   0.85518   0.94597   0.00000  Uiso   1.00
O750   O     0.16667   0.68573   0.70928   0.00000  Uiso   1.00
O751   O     0.16666   0.81427   0.79072   0.00000  Uiso   1.00
O752   O     0.09161   0.74999   0.78132   0.00000  Uiso   1.00
O753   O     0.24172   0.75000   0.71868   0.00000  Uiso   1.00
O754   O     0.09161   0.75000   0.69989   0.00000  Uiso   1.00
O755   O     0.24172   0.75000   0.80012   0.00000  Uiso   1.00
O756   O     0.30014   0.78393   0.64675   0.00000  Uiso   1.00
S757   S     0.32618   0.80328   0.69333   0.00000  Uiso   1.00
S758   S     0.00650   0.69718   0.80726   0.00000  Uiso   1.00
S759   S     0.25125   0.69241   0.53484   0.00000  Uiso   1.00
S760   S     0.22506   0.82806   0.98166   0.00000  Uiso   1.00
C761   C     0.50011   0.66492   0.75000   0.00000  Uiso   1.00
C762   C     0.52613   0.78381   0.94906   0.00000  Uiso   1.00
C763   C     0.50101   0.74980   0.52749   0.00000  Uiso   1.00
C764   C     0.50111   0.75003   0.97283   0.00000  Uiso   1.00
C765   C     0.40150   0.75094   0.73820   0.00000  Uiso   1.00
C766   C     0.59846   0.74914   0.76177   0.00000  Uiso   1.00
C767   C     0.34768   0.75950   0.73397   0.00000  Uiso   1.00
C768   C     0.65214   0.74042   0.76588   0.00000  Uiso   1.00
C769   C     0.48478   0.54757   0.78959   0.00000  Uiso   1.00
C770   C     0.48490   0.95238   0.70700   0.00000  Uiso   1.00
C771   C     0.48497   0.59349   0.78970   0.00000  Uiso   1.00
C772   C     0.50002   0.83508   0.75002   0.00000  Uiso   1.00
C773   C     0.48504   0.90647   0.70691   0.00000  Uiso   1.00
C774   C     0.50034   0.61671   0.75005   0.00000  Uiso   1.00
C775   C     0.50019   0.88330   0.75006   0.00000  Uiso   1.00
C776   C     0.51600   0.59357   0.71051   0.00000  Uiso   1.00
C777   C     0.51558   0.90650   0.79322   0.00000  Uiso   1.00
C778   C     0.51648   0.54765   0.71069   0.00000  Uiso   1.00
C779   C     0.51611   0.95242   0.79317   0.00000  Uiso   1.00
C780   C     0.50066   0.52429   0.75014   0.00000  Uiso   1.00
C781   C     0.50059   0.97573   0.75009   0.00000  Uiso   1.00
C782   C     0.42476   0.79895   0.52041   0.00000  Uiso   1.00
C783   C     0.46407   0.77417   0.54946   0.00000  Uiso   1.00
C784   C     0.44779   0.68179   0.96496   0.00000  Uiso   1.00
C785   C     0.47549   0.71654   0.94364   0.00000  Uiso   1.00
C786   C     0.46475   0.77406   0.60045   0.00000  Uiso   1.00
C787   C     0.47610   0.71700   0.89279   0.00000  Uiso   1.00
C788   C     0.53537   0.72547   0.60912   0.00000  Uiso   1.00
C789   C     0.52484   0.78282   0.89789   0.00000  Uiso   1.00
C790   C     0.53717   0.72487   0.55832   0.00000  Uiso   1.00
Cu791  Cu    0.50000   0.74999   0.79822   0.00000  Uiso   1.00
Cu792  Cu    0.50000   0.75000   0.70179   0.00000  Uiso   1.00
H793   H     0.47157   0.53032   0.82005   0.00000  Uiso   1.00
H794   H     0.45711   0.69089   0.87075   0.00000  Uiso   1.00
H795   H     0.56250   0.70631   0.63287   0.00000  Uiso   1.00
H796   H     0.54393   0.80845   0.87962   0.00000  Uiso   1.00
H797   H     0.36231   0.85488   0.65530   0.00000  Uiso   1.00
H798   H     0.63649   0.64445   0.84305   0.00000  Uiso   1.00
H799   H     0.61419   0.64919   0.59388   0.00000  Uiso   1.00
H800   H     0.61207   0.87907   0.96679   0.00000  Uiso   1.00
H801   H     0.47191   0.96960   0.67351   0.00000  Uiso   1.00
H802   H     0.47239   0.61078   0.82044   0.00000  Uiso   1.00
H803   H     0.47264   0.88912   0.67327   0.00000  Uiso   1.00
H804   H     0.52850   0.61094   0.67976   0.00000  Uiso   1.00
H805   H     0.52786   0.88918   0.82684   0.00000  Uiso   1.00
H806   H     0.52977   0.53045   0.68025   0.00000  Uiso   1.00
H807   H     0.52923   0.96966   0.82668   0.00000  Uiso   1.00
H808   H     0.43675   0.79312   0.61715   0.00000  Uiso   1.00
N809   N     0.50000   0.75001   0.62935   0.00000  Uiso   1.00
N810   N     0.50000   0.74999   0.87066   0.00000  Uiso   1.00
N811   N     0.39321   0.81876   0.99711   0.00000  Uiso   1.00
N812   N     0.42554   0.65398   0.98209   0.00000  Uiso   1.00
O813   O     0.50000   0.68572   0.79072   0.00000  Uiso   1.00
O814   O     0.62278   0.83280   0.71573   0.00000  Uiso   1.00
O815   O     0.37653   0.83379   0.68072   0.00000  Uiso   1.00
O816   O     0.37957   0.66884   0.78765   0.00000  Uiso   1.00
O817   O     0.36164   0.71756   0.85480   0.00000  Uiso   1.00
O818   O     0.62299   0.66510   0.81688   0.00000  Uiso   1.00
O819   O     0.55973   0.65261   0.50941   0.00000  Uiso   1.00
O820   O     0.61064   0.71868   0.99878   0.00000  Uiso   1.00
O821   O     0.62903   0.67574   0.57992   0.00000  Uiso   1.00
O822   O     0.51938   0.85942   0.99751   0.00000  Uiso   1.00
O823   O     0.59122   0.81103   0.52586   0.00000  Uiso   1.00
O824   O     0.50000   0.81427   0.70929   0.00000  Uiso   1.00
O825   O     0.59556   0.85518   0.94597   0.00000  Uiso   1.00
O826   O     0.50000   0.68573   0.70928   0.00000  Uiso   1.00
O827   O     0.50000   0.81427   0.79072   0.00000  Uiso   1.00
O828   O     0.42495   0.74999   0.78132   0.00000  Uiso   1.00
O829   O     0.57505   0.75000   0.71868   0.00000  Uiso   1.00
O830   O     0.42495   0.75000   0.69989   0.00000  Uiso   1.00
O831   O     0.57505   0.75000   0.80012   0.00000  Uiso   1.00
O832   O     0.63347   0.78393   0.64675   0.00000  Uiso   1.00
S833   S     0.65951   0.80328   0.69333   0.00000  Uiso   1.00
S834   S     0.33984   0.69718   0.80726   0.00000  Uiso   1.00
S835   S     0.58458   0.69241   0.53484   0.00000  Uiso   1.00
S836   S     0.55839   0.82806   0.98166   0.00000  Uiso   1.00
C837   C     0.83344   0.66492   0.75000   0.00000  Uiso   1.00
C838   C     0.85947   0.78381   0.94906   0.00000  Uiso   1.00
C839   C     0.83434   0.74980   0.52749   0.00000  Uiso   1.00
C840   C     0.83445   0.75003   0.97283   0.00000  Uiso   1.00
C841   C     0.73483   0.75094   0.73820   0.00000  Uiso   1.00
C842   C     0.93179   0.74914   0.76177   0.00000  Uiso   1.00
C843   C     0.68102   0.75950   0.73397   0.00000  Uiso   1.00
C844   C     0.98548   0.74042   0.76588   0.00000  Uiso   1.00
C845   C     0.81811   0.54757   0.78959   0.00000  Uiso   1.00
C846   C     0.81823   0.95238   0.70700   0.00000  Uiso   1.00
C847   C     0.81831   0.59349   0.78970   0.00000  Uiso   1.00
C848   C     0.83336   0.83508   0.75002   0.00000  Uiso   1.00
C849   C     0.81838   0.90647   0.70691   0.00000  Uiso   1.00
C850   C     0.83368   0.61671   0.75005   0.00000  Uiso   1.00
C851   C     0.83352   0.88330   0.75006   0.00000  Uiso   1.00
C852   C     0.84933   0.59357   0.71051   0.00000  Uiso   1.00
C853   C     0.84891   0.90650   0.79322   0.00000  Uiso   1.00
C854   C     0.84981   0.54765   0.71069   0.00000  Uiso   1.00
C855   C     0.84945   0.95242   0.79317   0.00000  Uiso   1.00
C856   C     0.83399   0.52429   0.75014   0.00000  Uiso   1.00
C857   C     0.83393   0.97573   0.75009   0.00000  Uiso   1.00
C858   C     0.75809   0.79895   0.52041   0.00000  Uiso   1.00
C859   C     0.79741   0.77417   0.54946   0.00000  Uiso   1.00
C860   C     0.78112   0.68179   0.96496   0.00000  Uiso   1.00
C861   C     0.80883   0.71654   0.94364   0.00000  Uiso   1.00
C862   C     0.79808   0.77406   0.60045   0.00000  Uiso   1.00
C863   C     0.80944   0.71700   0.89279   0.00000  Uiso   1.00
C864   C     0.86871   0.72547   0.60912   0.00000  Uiso   1.00
C865   C     0.85817   0.78282   0.89789   0.00000  Uiso   1.00
C866   C     0.87051   0.72487   0.55832   0.00000  Uiso   1.00
Cu867  Cu    0.83333   0.74999   0.79822   0.00000  Uiso   1.00
Cu868  Cu    0.83333   0.75000   0.70179   0.00000  Uiso   1.00
H869   H     0.80491   0.53032   0.82005   0.00000  Uiso   1.00
H870   H     0.79045   0.69089   0.87075   0.00000  Uiso   1.00
H871   H     0.89583   0.70631   0.63287   0.00000  Uiso   1.00
H872   H     0.87726   0.80845   0.87962   0.00000  Uiso   1.00
H873   H     0.69564   0.85488   0.65530   0.00000  Uiso   1.00
H874   H     0.96983   0.64445   0.84305   0.00000  Uiso   1.00
H875   H     0.94753   0.64919   0.59388   0.00000  Uiso   1.00
H876   H     0.94540   0.87907   0.96679   0.00000  Uiso   1.00
H877   H     0.80524   0.96960   0.67351   0.00000  Uiso   1.00
H878   H     0.80573   0.61078   0.82044   0.00000  Uiso   1.00
H879   H     0.80597   0.88912   0.67327   0.00000  Uiso   1.00
H880   H     0.86183   0.61094   0.67976   0.00000  Uiso   1.00
H881   H     0.86120   0.88918   0.82684   0.00000  Uiso   1.00
H882   H     0.86310   0.53045   0.68025   0.00000  Uiso   1.00
H883   H     0.86256   0.96966   0.82668   0.00000  Uiso   1.00
H884   H     0.77008   0.79312   0.61715   0.00000  Uiso   1.00
N885   N     0.83333   0.75001   0.62935   0.00000  Uiso   1.00
N886   N     0.83333   0.74999   0.87066   0.00000  Uiso   1.00
N887   N     0.72655   0.81876   0.99711   0.00000  Uiso   1.00
N888   N     0.75887   0.65398   0.98209   0.00000  Uiso   1.00
O889   O     0.83334   0.68572   0.79072   0.00000  Uiso   1.00
O890   O     0.95612   0.83280   0.71573   0.00000  Uiso   1.00
O891   O     0.70986   0.83379   0.68072   0.00000  Uiso   1.00
O892   O     0.71290   0.66884   0.78765   0.00000  Uiso   1.00
O893   O     0.69498   0.71756   0.85480   0.00000  Uiso   1.00
O894   O     0.95632   0.66510   0.81688   0.00000  Uiso   1.00
O895   O     0.89307   0.65261   0.50941   0.00000  Uiso   1.00
O896   O     0.94398   0.71868   0.99878   0.00000  Uiso   1.00
O897   O     0.96236   0.67574   0.57992   0.00000  Uiso   1.00
O898   O     0.85271   0.85942   0.99751   0.00000  Uiso   1.00
O899   O     0.92456   0.81103   0.52586   0.00000  Uiso   1.00
O900   O     0.83333   0.81427   0.70929   0.00000  Uiso   1.00
O901   O     0.92889   0.85518   0.94597   0.00000  Uiso   1.00
O902   O     0.83334   0.68573   0.70928   0.00000  Uiso   1.00
O903   O     0.83333   0.81427   0.79072   0.00000  Uiso   1.00
O904   O     0.75828   0.74999   0.78132   0.00000  Uiso   1.00
O905   O     0.90839   0.75000   0.71868   0.00000  Uiso   1.00
O906   O     0.75828   0.75000   0.69989   0.00000  Uiso   1.00
O907   O     0.90839   0.75000   0.80012   0.00000  Uiso   1.00
O908   O     0.96681   0.78393   0.64675   0.00000  Uiso   1.00
S909   S     0.99285   0.80328   0.69333   0.00000  Uiso   1.00
S910   S     0.67317   0.69718   0.80726   0.00000  Uiso   1.00
S911   S     0.91791   0.69241   0.53484   0.00000  Uiso   1.00
S912   S     0.89172   0.82806   0.98166   0.00000  Uiso   1.00
loop_
_geom_bond_atom_site_label_1
_geom_bond_atom_site_label_2
_geom_bond_distance
_geom_bond_site_symmetry_2
_ccdc_geom_bond_type
C1     O53     1.290   .     A
C1     O66     1.291   .     A
C1     C14     1.459   .     S
C2     C29     1.412   .     A
C2     C4      1.418   .     A
C2     S76     1.771   .     S
C3     C23     1.414   .     A
C3     C30     1.419   .     A
C3     C460    1.512   1_554 S
C4     C25     1.414   .     A
C4     C459    1.512   .     S
C5     O68     1.276   .     A
C5     C7      1.430   .     S
C5     O70     1.288   .     A
C6     O69     1.275   .     A
C6     O71     1.288   .     A
C6     C8      1.428   .     S
C7     C160    1.359   1_455 S
C7     S225    1.787   1_455 S
C8     C83     1.359   .     S
C8     S150    1.784   .     S
C9     H33     1.083   .     S
C9     C20     1.404   .     A
C9     C11     1.390   .     A
C10    H41     1.083   .     S
C10    C21     1.404   .     A
C10    C13     1.390   .     A
C11    C14     1.402   .     A
C11    H42     1.083   .     S
C12    O64     1.290   .     A
C12    O67     1.290   .     A
C12    C15     1.459   .     S
C13    C15     1.402   .     A
C13    H43     1.083   .     S
C14    C16     1.402   .     A
C15    C17     1.402   .     A
C16    H44     1.083   .     S
C16    C18     1.390   .     A
C17    H45     1.083   .     S
C17    C19     1.390   .     A
C18    H46     1.083   .     S
C18    C20     1.404   .     A
C19    C21     1.404   .     A
C19    H47     1.083   .     S
C20    C249    1.470   1_545 S
C21    C248    1.470   .     S
C22    C23     1.444   .     S
C22    N507    1.157   1_554 S
C23    C26     1.408   .     A
C24    N52     1.157   .     T
C24    C25     1.443   .     S
C25    C27     1.408   .     A
C26    H48     1.082   .     S
C26    N49     1.362   .     A
C27    N50     1.362   .     A
C27    H34     1.082   .     S
C28    H35     1.081   .     S
C28    N49     1.363   .     A
C28    C30     1.412   .     A
C29    H36     1.081   .     S
C29    N50     1.364   .     A
C30    S75     1.772   .     S
Cu31   O67     1.957   .     S
Cu31   O71     1.968   .     S
Cu31   O68     1.973   .     S
Cu31   Cu32    2.667   .     S
Cu31   O53     1.956   .     S
Cu31   N50     2.004   .     S
Cu32   O64     1.956   .     S
Cu32   O66     1.957   .     S
Cu32   O70     1.968   .     S
Cu32   O69     1.973   .     S
Cu32   N49     2.004   .     S
H37    O55     0.990   .     S
H38    O58     0.991   .     S
H39    O61     0.991   .     S
H40    O65     0.990   .     S
N51    C478    1.157   .     S
O54    S73     1.504   .     D
O55    S225    1.682   1_455 S
O56    S74     1.504   .     D
O57    S74     1.502   .     D
O58    S150    1.683   .     S
O59    S75     1.503   .     D
O60    S531    1.502   .     S
O61    S75     1.683   .     S
O62    S76     1.502   .     D
O63    S532    1.503   1_554 S
O65    S76     1.682   .     S
O72    S73     1.503   .     D
S73    O131    1.682   .     S
S73    C83     1.787   .     S
S74    O210    1.683   1_455 S
S74    C160    1.784   1_455 S
S75    O516    1.502   1_554 S
S76    O519    1.503   .     S
C77    O129    1.290   .     A
C77    O142    1.291   .     A
C77    C90     1.459   .     S
C78    C105    1.412   .     A
C78    C80     1.418   .     A
C78    S152    1.771   .     S
C79    C99     1.414   .     A
C79    C106    1.419   .     A
C79    C536    1.512   1_554 S
C80    C101    1.414   .     A
C80    C535    1.512   .     S
C81    O144    1.276   .     A
C81    C83     1.430   .     S
C81    O146    1.288   .     A
C82    O145    1.275   .     A
C82    O147    1.288   .     A
C82    C84     1.428   .     S
C84    C159    1.359   .     S
C84    S226    1.784   .     S
C85    H109    1.083   .     S
C85    C96     1.404   .     A
C85    C87     1.390   .     A
C86    H117    1.083   .     S
C86    C97     1.404   .     A
C86    C89     1.390   .     A
C87    C90     1.402   .     A
C87    H118    1.083   .     S
C88    O140    1.290   .     A
C88    O143    1.290   .     A
C88    C91     1.459   .     S
C89    C91     1.402   .     A
C89    H119    1.083   .     S
C90    C92     1.402   .     A
C91    C93     1.402   .     A
C92    H120    1.083   .     S
C92    C94     1.390   .     A
C93    H121    1.083   .     S
C93    C95     1.390   .     A
C94    H122    1.083   .     S
C94    C96     1.404   .     A
C95    C97     1.404   .     A
C95    H123    1.083   .     S
C96    C325    1.470   1_545 S
C97    C324    1.470   .     S
C98    C99     1.444   .     S
C98    N583    1.157   1_554 S
C99    C102    1.408   .     A
C100   N128    1.157   .     T
C100   C101    1.443   .     S
C101   C103    1.408   .     A
C102   H124    1.082   .     S
C102   N125    1.362   .     A
C103   N126    1.362   .     A
C103   H110    1.082   .     S
C104   H111    1.081   .     S
C104   N125    1.363   .     A
C104   C106    1.412   .     A
C105   H112    1.081   .     S
C105   N126    1.364   .     A
C106   S151    1.772   .     S
Cu107  O143    1.957   .     S
Cu107  O147    1.968   .     S
Cu107  O144    1.973   .     S
Cu107  Cu108   2.667   .     S
Cu107  O129    1.956   .     S
Cu107  N126    2.004   .     S
Cu108  O140    1.956   .     S
Cu108  O142    1.957   .     S
Cu108  O146    1.968   .     S
Cu108  O145    1.973   .     S
Cu108  N125    2.004   .     S
H113   O131    0.990   .     S
H114   O134    0.991   .     S
H115   O137    0.991   .     S
H116   O141    0.990   .     S
N127   C554    1.157   .     S
O130   S149    1.504   .     D
O132   S150    1.504   .     D
O133   S150    1.502   .     D
O134   S226    1.683   .     S
O135   S151    1.503   .     D
O136   S607    1.502   .     S
O137   S151    1.683   .     S
O138   S152    1.502   .     D
O139   S608    1.503   1_554 S
O141   S152    1.682   .     S
O148   S149    1.503   .     D
S149   O207    1.682   .     S
S149   C159    1.787   .     S
S151   O592    1.502   1_554 S
S152   O595    1.503   .     S
C153   O205    1.290   .     A
C153   O218    1.291   .     A
C153   C166    1.459   .     S
C154   C181    1.412   .     A
C154   C156    1.418   .     A
C154   S228    1.771   .     S
C155   C175    1.414   .     A
C155   C182    1.419   .     A
C155   C612    1.512   1_554 S
C156   C177    1.414   .     A
C156   C611    1.512   .     S
C157   O220    1.276   .     A
C157   C159    1.430   .     S
C157   O222    1.288   .     A
C158   O221    1.275   .     A
C158   O223    1.288   .     A
C158   C160    1.428   .     S
C160   C7      1.359   1_655 S
C160   S74     1.784   1_655 S
C161   H185    1.083   .     S
C161   C172    1.404   .     A
C161   C163    1.390   .     A
C162   H193    1.083   .     S
C162   C173    1.404   .     A
C162   C165    1.390   .     A
C163   C166    1.402   .     A
C163   H194    1.083   .     S
C164   O216    1.290   .     A
C164   O219    1.290   .     A
C164   C167    1.459   .     S
C165   C167    1.402   .     A
C165   H195    1.083   .     S
C166   C168    1.402   .     A
C167   C169    1.402   .     A
C168   H196    1.083   .     S
C168   C170    1.390   .     A
C169   H197    1.083   .     S
C169   C171    1.390   .     A
C170   H198    1.083   .     S
C170   C172    1.404   .     A
C171   C173    1.404   .     A
C171   H199    1.083   .     S
C172   C401    1.470   1_545 S
C173   C400    1.470   .     S
C174   C175    1.444   .     S
C174   N659    1.157   1_554 S
C175   C178    1.408   .     A
C176   N204    1.157   .     T
C176   C177    1.443   .     S
C177   C179    1.408   .     A
C178   H200    1.082   .     S
C178   N201    1.362   .     A
C179   N202    1.362   .     A
C179   H186    1.082   .     S
C180   H187    1.081   .     S
C180   N201    1.363   .     A
C180   C182    1.412   .     A
C181   H188    1.081   .     S
C181   N202    1.364   .     A
C182   S227    1.772   .     S
Cu183  O219    1.957   .     S
Cu183  O223    1.968   .     S
Cu183  O220    1.973   .     S
Cu183  Cu184   2.667   .     S
Cu183  O205    1.956   .     S
Cu183  N202    2.004   .     S
Cu184  O216    1.956   .     S
Cu184  O218    1.957   .     S
Cu184  O222    1.968   .     S
Cu184  O221    1.973   .     S
Cu184  N201    2.004   .     S
H189   O207    0.990   .     S
H190   O210    0.991   .     S
H191   O213    0.991   .     S
H192   O217    0.990   .     S
N203   C630    1.157   .     S
O206   S225    1.504   .     D
O208   S226    1.504   .     D
O209   S226    1.502   .     D
O210   S74     1.683   1_655 S
O211   S227    1.503   .     D
O212   S683    1.502   .     S
O213   S227    1.683   .     S
O214   S228    1.502   .     D
O215   S684    1.503   1_554 S
O217   S228    1.682   .     S
O224   S225    1.503   .     D
S225   O55     1.682   1_655 S
S225   C7      1.787   1_655 S
S227   O668    1.502   1_554 S
S228   O671    1.503   .     S
C229   O281    1.290   .     A
C229   O294    1.291   .     A
C229   C242    1.459   .     S
C230   C257    1.412   .     A
C230   C232    1.418   .     A
C230   S304    1.771   .     S
C231   C251    1.414   .     A
C231   C258    1.419   .     A
C231   C688    1.512   1_554 S
C232   C253    1.414   .     A
C232   C687    1.512   .     S
C233   O296    1.276   .     A
C233   C235    1.430   .     S
C233   O298    1.288   .     A
C234   O297    1.275   .     A
C234   O299    1.288   .     A
C234   C236    1.428   .     S
C235   C388    1.359   1_455 S
C235   S453    1.787   1_455 S
C236   C311    1.359   .     S
C236   S378    1.784   .     S
C237   H261    1.083   .     S
C237   C248    1.404   .     A
C237   C239    1.390   .     A
C238   H269    1.083   .     S
C238   C249    1.404   .     A
C238   C241    1.390   .     A
C239   C242    1.402   .     A
C239   H270    1.083   .     S
C240   O292    1.290   .     A
C240   O295    1.290   .     A
C240   C243    1.459   .     S
C241   C243    1.402   .     A
C241   H271    1.083   .     S
C242   C244    1.402   .     A
C243   C245    1.402   .     A
C244   H272    1.083   .     S
C244   C246    1.390   .     A
C245   H273    1.083   .     S
C245   C247    1.390   .     A
C246   H274    1.083   .     S
C246   C248    1.404   .     A
C247   C249    1.404   .     A
C247   H275    1.083   .     S
C249   C20     1.470   1_565 S
C250   C251    1.444   .     S
C250   N735    1.157   1_554 S
C251   C254    1.408   .     A
C252   N280    1.157   .     T
C252   C253    1.443   .     S
C253   C255    1.408   .     A
C254   H276    1.082   .     S
C254   N277    1.362   .     A
C255   N278    1.362   .     A
C255   H262    1.082   .     S
C256   H263    1.081   .     S
C256   N277    1.363   .     A
C256   C258    1.412   .     A
C257   H264    1.081   .     S
C257   N278    1.364   .     A
C258   S303    1.772   .     S
Cu259  O295    1.957   .     S
Cu259  O299    1.968   .     S
Cu259  O296    1.973   .     S
Cu259  Cu260   2.667   .     S
Cu259  O281    1.956   .     S
Cu259  N278    2.004   .     S
Cu260  O292    1.956   .     S
Cu260  O294    1.957   .     S
Cu260  O298    1.968   .     S
Cu260  O297    1.973   .     S
Cu260  N277    2.004   .     S
H265   O283    0.990   .     S
H266   O286    0.991   .     S
H267   O289    0.991   .     S
H268   O293    0.990   .     S
N279   C706    1.157   .     S
O282   S301    1.504   .     D
O283   S453    1.682   1_455 S
O284   S302    1.504   .     D
O285   S302    1.502   .     D
O286   S378    1.683   .     S
O287   S303    1.503   .     D
O288   S759    1.502   .     S
O289   S303    1.683   .     S
O290   S304    1.502   .     D
O291   S760    1.503   1_554 S
O293   S304    1.682   .     S
O300   S301    1.503   .     D
S301   O359    1.682   .     S
S301   C311    1.787   .     S
S302   O438    1.683   1_455 S
S302   C388    1.784   1_455 S
S303   O744    1.502   1_554 S
S304   O747    1.503   .     S
C305   O357    1.290   .     A
C305   O370    1.291   .     A
C305   C318    1.459   .     S
C306   C333    1.412   .     A
C306   C308    1.418   .     A
C306   S380    1.771   .     S
C307   C327    1.414   .     A
C307   C334    1.419   .     A
C307   C764    1.512   1_554 S
C308   C329    1.414   .     A
C308   C763    1.512   .     S
C309   O372    1.276   .     A
C309   C311    1.430   .     S
C309   O374    1.288   .     A
C310   O373    1.275   .     A
C310   O375    1.288   .     A
C310   C312    1.428   .     S
C312   C387    1.359   .     S
C312   S454    1.784   .     S
C313   H337    1.083   .     S
C313   C324    1.404   .     A
C313   C315    1.390   .     A
C314   H345    1.083   .     S
C314   C325    1.404   .     A
C314   C317    1.390   .     A
C315   C318    1.402   .     A
C315   H346    1.083   .     S
C316   O368    1.290   .     A
C316   O371    1.290   .     A
C316   C319    1.459   .     S
C317   C319    1.402   .     A
C317   H347    1.083   .     S
C318   C320    1.402   .     A
C319   C321    1.402   .     A
C320   H348    1.083   .     S
C320   C322    1.390   .     A
C321   H349    1.083   .     S
C321   C323    1.390   .     A
C322   H350    1.083   .     S
C322   C324    1.404   .     A
C323   C325    1.404   .     A
C323   H351    1.083   .     S
C325   C96     1.470   1_565 S
C326   C327    1.444   .     S
C326   N811    1.157   1_554 S
C327   C330    1.408   .     A
C328   N356    1.157   .     T
C328   C329    1.443   .     S
C329   C331    1.408   .     A
C330   H352    1.082   .     S
C330   N353    1.362   .     A
C331   N354    1.362   .     A
C331   H338    1.082   .     S
C332   H339    1.081   .     S
C332   N353    1.363   .     A
C332   C334    1.412   .     A
C333   H340    1.081   .     S
C333   N354    1.364   .     A
C334   S379    1.772   .     S
Cu335  O371    1.957   .     S
Cu335  O375    1.968   .     S
Cu335  O372    1.973   .     S
Cu335  Cu336   2.667   .     S
Cu335  O357    1.956   .     S
Cu335  N354    2.004   .     S
Cu336  O368    1.956   .     S
Cu336  O370    1.957   .     S
Cu336  O374    1.968   .     S
Cu336  O373    1.973   .     S
Cu336  N353    2.004   .     S
H341   O359    0.990   .     S
H342   O362    0.991   .     S
H343   O365    0.991   .     S
H344   O369    0.990   .     S
N355   C782    1.157   .     S
O358   S377    1.504   .     D
O360   S378    1.504   .     D
O361   S378    1.502   .     D
O362   S454    1.683   .     S
O363   S379    1.503   .     D
O364   S835    1.502   .     S
O365   S379    1.683   .     S
O366   S380    1.502   .     D
O367   S836    1.503   1_554 S
O369   S380    1.682   .     S
O376   S377    1.503   .     D
S377   O435    1.682   .     S
S377   C387    1.787   .     S
S379   O820    1.502   1_554 S
S380   O823    1.503   .     S
C381   O433    1.290   .     A
C381   O446    1.291   .     A
C381   C394    1.459   .     S
C382   C409    1.412   .     A
C382   C384    1.418   .     A
C382   S456    1.771   .     S
C383   C403    1.414   .     A
C383   C410    1.419   .     A
C383   C840    1.512   1_554 S
C384   C405    1.414   .     A
C384   C839    1.512   .     S
C385   O448    1.276   .     A
C385   C387    1.430   .     S
C385   O450    1.288   .     A
C386   O449    1.275   .     A
C386   O451    1.288   .     A
C386   C388    1.428   .     S
C388   C235    1.359   1_655 S
C388   S302    1.784   1_655 S
C389   H413    1.083   .     S
C389   C400    1.404   .     A
C389   C391    1.390   .     A
C390   H421    1.083   .     S
C390   C401    1.404   .     A
C390   C393    1.390   .     A
C391   C394    1.402   .     A
C391   H422    1.083   .     S
C392   O444    1.290   .     A
C392   O447    1.290   .     A
C392   C395    1.459   .     S
C393   C395    1.402   .     A
C393   H423    1.083   .     S
C394   C396    1.402   .     A
C395   C397    1.402   .     A
C396   H424    1.083   .     S
C396   C398    1.390   .     A
C397   H425    1.083   .     S
C397   C399    1.390   .     A
C398   H426    1.083   .     S
C398   C400    1.404   .     A
C399   C401    1.404   .     A
C399   H427    1.083   .     S
C401   C172    1.470   1_565 S
C402   C403    1.444   .     S
C402   N887    1.157   1_554 S
C403   C406    1.408   .     A
C404   N432    1.157   .     T
C404   C405    1.443   .     S
C405   C407    1.408   .     A
C406   H428    1.082   .     S
C406   N429    1.362   .     A
C407   N430    1.362   .     A
C407   H414    1.082   .     S
C408   H415    1.081   .     S
C408   N429    1.363   .     A
C408   C410    1.412   .     A
C409   H416    1.081   .     S
C409   N430    1.364   .     A
C410   S455    1.772   .     S
Cu411  O447    1.957   .     S
Cu411  O451    1.968   .     S
Cu411  O448    1.973   .     S
Cu411  Cu412   2.667   .     S
Cu411  O433    1.956   .     S
Cu411  N430    2.004   .     S
Cu412  O444    1.956   .     S
Cu412  O446    1.957   .     S
Cu412  O450    1.968   .     S
Cu412  O449    1.973   .     S
Cu412  N429    2.004   .     S
H417   O435    0.990   .     S
H418   O438    0.991   .     S
H419   O441    0.991   .     S
H420   O445    0.990   .     S
N431   C858    1.157   .     S
O434   S453    1.504   .     D
O436   S454    1.504   .     D
O437   S454    1.502   .     D
O438   S302    1.683   1_655 S
O439   S455    1.503   .     D
O440   S911    1.502   .     S
O441   S455    1.683   .     S
O442   S456    1.502   .     D
O443   S912    1.503   1_554 S
O445   S456    1.682   .     S
O452   S453    1.503   .     D
S453   O283    1.682   1_655 S
S453   C235    1.787   1_655 S
S455   O896    1.502   1_554 S
S456   O899    1.503   .     S
C457   O509    1.290   .     A
C457   O522    1.291   .     A
C457   C470    1.459   .     S
C458   C485    1.412   .     A
C458   C460    1.418   .     A
C458   S532    1.771   .     S
C459   C479    1.414   .     A
C459   C486    1.419   .     A
C460   C481    1.414   .     A
C460   C3      1.512   1_556 S
C461   O524    1.276   .     A
C461   C463    1.430   .     S
C461   O526    1.288   .     A
C462   O525    1.275   .     A
C462   O527    1.288   .     A
C462   C464    1.428   .     S
C463   C616    1.359   1_455 S
C463   S681    1.787   1_455 S
C464   C539    1.359   .     S
C464   S606    1.784   .     S
C465   H489    1.083   .     S
C465   C476    1.404   .     A
C465   C467    1.390   .     A
C466   H497    1.083   .     S
C466   C477    1.404   .     A
C466   C469    1.390   .     A
C467   C470    1.402   .     A
C467   H498    1.083   .     S
C468   O520    1.290   .     A
C468   O523    1.290   .     A
C468   C471    1.459   .     S
C469   C471    1.402   .     A
C469   H499    1.083   .     S
C470   C472    1.402   .     A
C471   C473    1.402   .     A
C472   H500    1.083   .     S
C472   C474    1.390   .     A
C473   H501    1.083   .     S
C473   C475    1.390   .     A
C474   H502    1.083   .     S
C474   C476    1.404   .     A
C475   C477    1.404   .     A
C475   H503    1.083   .     S
C476   C705    1.470   1_545 S
C477   C704    1.470   .     S
C478   C479    1.444   .     S
C479   C482    1.408   .     A
C480   N508    1.157   .     T
C480   C481    1.443   .     S
C481   C483    1.408   .     A
C482   H504    1.082   .     S
C482   N505    1.362   .     A
C483   N506    1.362   .     A
C483   H490    1.082   .     S
C484   H491    1.081   .     S
C484   N505    1.363   .     A
C484   C486    1.412   .     A
C485   H492    1.081   .     S
C485   N506    1.364   .     A
C486   S531    1.772   .     S
Cu487  O523    1.957   .     S
Cu487  O527    1.968   .     S
Cu487  O524    1.973   .     S
Cu487  Cu488   2.667   .     S
Cu487  O509    1.956   .     S
Cu487  N506    2.004   .     S
Cu488  O520    1.956   .     S
Cu488  O522    1.957   .     S
Cu488  O526    1.968   .     S
Cu488  O525    1.973   .     S
Cu488  N505    2.004   .     S
H493   O511    0.990   .     S
H494   O514    0.991   .     S
H495   O517    0.991   .     S
H496   O521    0.990   .     S
N507   C22     1.157   1_556 S
O510   S529    1.504   .     D
O511   S681    1.682   1_455 S
O512   S530    1.504   .     D
O513   S530    1.502   .     D
O514   S606    1.683   .     S
O515   S531    1.503   .     D
O516   S75     1.502   1_556 S
O517   S531    1.683   .     S
O518   S532    1.502   .     D
O521   S532    1.682   .     S
O528   S529    1.503   .     D
S529   O587    1.682   .     S
S529   C539    1.787   .     S
S530   O666    1.683   1_455 S
S530   C616    1.784   1_455 S
S532   O63     1.503   1_556 S
C533   O585    1.290   .     A
C533   O598    1.291   .     A
C533   C546    1.459   .     S
C534   C561    1.412   .     A
C534   C536    1.418   .     A
C534   S608    1.771   .     S
C535   C555    1.414   .     A
C535   C562    1.419   .     A
C536   C557    1.414   .     A
C536   C79     1.512   1_556 S
C537   O600    1.276   .     A
C537   C539    1.430   .     S
C537   O602    1.288   .     A
C538   O601    1.275   .     A
C538   O603    1.288   .     A
C538   C540    1.428   .     S
C540   C615    1.359   .     S
C540   S682    1.784   .     S
C541   H565    1.083   .     S
C541   C552    1.404   .     A
C541   C543    1.390   .     A
C542   H573    1.083   .     S
C542   C553    1.404   .     A
C542   C545    1.390   .     A
C543   C546    1.402   .     A
C543   H574    1.083   .     S
C544   O596    1.290   .     A
C544   O599    1.290   .     A
C544   C547    1.459   .     S
C545   C547    1.402   .     A
C545   H575    1.083   .     S
C546   C548    1.402   .     A
C547   C549    1.402   .     A
C548   H576    1.083   .     S
C548   C550    1.390   .     A
C549   H577    1.083   .     S
C549   C551    1.390   .     A
C550   H578    1.083   .     S
C550   C552    1.404   .     A
C551   C553    1.404   .     A
C551   H579    1.083   .     S
C552   C781    1.470   1_545 S
C553   C780    1.470   .     S
C554   C555    1.444   .     S
C555   C558    1.408   .     A
C556   N584    1.157   .     T
C556   C557    1.443   .     S
C557   C559    1.408   .     A
C558   H580    1.082   .     S
C558   N581    1.362   .     A
C559   N582    1.362   .     A
C559   H566    1.082   .     S
C560   H567    1.081   .     S
C560   N581    1.363   .     A
C560   C562    1.412   .     A
C561   H568    1.081   .     S
C561   N582    1.364   .     A
C562   S607    1.772   .     S
Cu563  O599    1.957   .     S
Cu563  O603    1.968   .     S
Cu563  O600    1.973   .     S
Cu563  Cu564   2.667   .     S
Cu563  O585    1.956   .     S
Cu563  N582    2.004   .     S
Cu564  O596    1.956   .     S
Cu564  O598    1.957   .     S
Cu564  O602    1.968   .     S
Cu564  O601    1.973   .     S
Cu564  N581    2.004   .     S
H569   O587    0.990   .     S
H570   O590    0.991   .     S
H571   O593    0.991   .     S
H572   O597    0.990   .     S
N583   C98     1.157   1_556 S
O586   S605    1.504   .     D
O588   S606    1.504   .     D
O589   S606    1.502   .     D
O590   S682    1.683   .     S
O591   S607    1.503   .     D
O592   S151    1.502   1_556 S
O593   S607    1.683   .     S
O594   S608    1.502   .     D
O597   S608    1.682   .     S
O604   S605    1.503   .     D
S605   O663    1.682   .     S
S605   C615    1.787   .     S
S608   O139    1.503   1_556 S
C609   O661    1.290   .     A
C609   O674    1.291   .     A
C609   C622    1.459   .     S
C610   C637    1.412   .     A
C610   C612    1.418   .     A
C610   S684    1.771   .     S
C611   C631    1.414   .     A
C611   C638    1.419   .     A
C612   C633    1.414   .     A
C612   C155    1.512   1_556 S
C613   O676    1.276   .     A
C613   C615    1.430   .     S
C613   O678    1.288   .     A
C614   O677    1.275   .     A
C614   O679    1.288   .     A
C614   C616    1.428   .     S
C616   C463    1.359   1_655 S
C616   S530    1.784   1_655 S
C617   H641    1.083   .     S
C617   C628    1.404   .     A
C617   C619    1.390   .     A
C618   H649    1.083   .     S
C618   C629    1.404   .     A
C618   C621    1.390   .     A
C619   C622    1.402   .     A
C619   H650    1.083   .     S
C620   O672    1.290   .     A
C620   O675    1.290   .     A
C620   C623    1.459   .     S
C621   C623    1.402   .     A
C621   H651    1.083   .     S
C622   C624    1.402   .     A
C623   C625    1.402   .     A
C624   H652    1.083   .     S
C624   C626    1.390   .     A
C625   H653    1.083   .     S
C625   C627    1.390   .     A
C626   H654    1.083   .     S
C626   C628    1.404   .     A
C627   C629    1.404   .     A
C627   H655    1.083   .     S
C628   C857    1.470   1_545 S
C629   C856    1.470   .     S
C630   C631    1.444   .     S
C631   C634    1.408   .     A
C632   N660    1.157   .     T
C632   C633    1.443   .     S
C633   C635    1.408   .     A
C634   H656    1.082   .     S
C634   N657    1.362   .     A
C635   N658    1.362   .     A
C635   H642    1.082   .     S
C636   H643    1.081   .     S
C636   N657    1.363   .     A
C636   C638    1.412   .     A
C637   H644    1.081   .     S
C637   N658    1.364   .     A
C638   S683    1.772   .     S
Cu639  O675    1.957   .     S
Cu639  O679    1.968   .     S
Cu639  O676    1.973   .     S
Cu639  Cu640   2.667   .     S
Cu639  O661    1.956   .     S
Cu639  N658    2.004   .     S
Cu640  O672    1.956   .     S
Cu640  O674    1.957   .     S
Cu640  O678    1.968   .     S
Cu640  O677    1.973   .     S
Cu640  N657    2.004   .     S
H645   O663    0.990   .     S
H646   O666    0.991   .     S
H647   O669    0.991   .     S
H648   O673    0.990   .     S
N659   C174    1.157   1_556 S
O662   S681    1.504   .     D
O664   S682    1.504   .     D
O665   S682    1.502   .     D
O666   S530    1.683   1_655 S
O667   S683    1.503   .     D
O668   S227    1.502   1_556 S
O669   S683    1.683   .     S
O670   S684    1.502   .     D
O673   S684    1.682   .     S
O680   S681    1.503   .     D
S681   O511    1.682   1_655 S
S681   C463    1.787   1_655 S
S684   O215    1.503   1_556 S
C685   O737    1.290   .     A
C685   O750    1.291   .     A
C685   C698    1.459   .     S
C686   C713    1.412   .     A
C686   C688    1.418   .     A
C686   S760    1.771   .     S
C687   C707    1.414   .     A
C687   C714    1.419   .     A
C688   C709    1.414   .     A
C688   C231    1.512   1_556 S
C689   O752    1.276   .     A
C689   C691    1.430   .     S
C689   O754    1.288   .     A
C690   O753    1.275   .     A
C690   O755    1.288   .     A
C690   C692    1.428   .     S
C691   C844    1.359   1_455 S
C691   S909    1.787   1_455 S
C692   C767    1.359   .     S
C692   S834    1.784   .     S
C693   H717    1.083   .     S
C693   C704    1.404   .     A
C693   C695    1.390   .     A
C694   H725    1.083   .     S
C694   C705    1.404   .     A
C694   C697    1.390   .     A
C695   C698    1.402   .     A
C695   H726    1.083   .     S
C696   O748    1.290   .     A
C696   O751    1.290   .     A
C696   C699    1.459   .     S
C697   C699    1.402   .     A
C697   H727    1.083   .     S
C698   C700    1.402   .     A
C699   C701    1.402   .     A
C700   H728    1.083   .     S
C700   C702    1.390   .     A
C701   H729    1.083   .     S
C701   C703    1.390   .     A
C702   H730    1.083   .     S
C702   C704    1.404   .     A
C703   C705    1.404   .     A
C703   H731    1.083   .     S
C705   C476    1.470   1_565 S
C706   C707    1.444   .     S
C707   C710    1.408   .     A
C708   N736    1.157   .     T
C708   C709    1.443   .     S
C709   C711    1.408   .     A
C710   H732    1.082   .     S
C710   N733    1.362   .     A
C711   N734    1.362   .     A
C711   H718    1.082   .     S
C712   H719    1.081   .     S
C712   N733    1.363   .     A
C712   C714    1.412   .     A
C713   H720    1.081   .     S
C713   N734    1.364   .     A
C714   S759    1.772   .     S
Cu715  O751    1.957   .     S
Cu715  O755    1.968   .     S
Cu715  O752    1.973   .     S
Cu715  Cu716   2.667   .     S
Cu715  O737    1.956   .     S
Cu715  N734    2.004   .     S
Cu716  O748    1.956   .     S
Cu716  O750    1.957   .     S
Cu716  O754    1.968   .     S
Cu716  O753    1.973   .     S
Cu716  N733    2.004   .     S
H721   O739    0.990   .     S
H722   O742    0.991   .     S
H723   O745    0.991   .     S
H724   O749    0.990   .     S
N735   C250    1.157   1_556 S
O738   S757    1.504   .     D
O739   S909    1.682   1_455 S
O740   S758    1.504   .     D
O741   S758    1.502   .     D
O742   S834    1.683   .     S
O743   S759    1.503   .     D
O744   S303    1.502   1_556 S
O745   S759    1.683   .     S
O746   S760    1.502   .     D
O749   S760    1.682   .     S
O756   S757    1.503   .     D
S757   O815    1.682   .     S
S757   C767    1.787   .     S
S758   O894    1.683   1_455 S
S758   C844    1.784   1_455 S
S760   O291    1.503   1_556 S
C761   O813    1.290   .     A
C761   O826    1.291   .     A
C761   C774    1.459   .     S
C762   C789    1.412   .     A
C762   C764    1.418   .     A
C762   S836    1.771   .     S
C763   C783    1.414   .     A
C763   C790    1.419   .     A
C764   C785    1.414   .     A
C764   C307    1.512   1_556 S
C765   O828    1.276   .     A
C765   C767    1.430   .     S
C765   O830    1.288   .     A
C766   O829    1.275   .     A
C766   O831    1.288   .     A
C766   C768    1.428   .     S
C768   C843    1.359   .     S
C768   S910    1.784   .     S
C769   H793    1.083   .     S
C769   C780    1.404   .     A
C769   C771    1.390   .     A
C770   H801    1.083   .     S
C770   C781    1.404   .     A
C770   C773    1.390   .     A
C771   C774    1.402   .     A
C771   H802    1.083   .     S
C772   O824    1.290   .     A
C772   O827    1.290   .     A
C772   C775    1.459   .     S
C773   C775    1.402   .     A
C773   H803    1.083   .     S
C774   C776    1.402   .     A
C775   C777    1.402   .     A
C776   H804    1.083   .     S
C776   C778    1.390   .     A
C777   H805    1.083   .     S
C777   C779    1.390   .     A
C778   H806    1.083   .     S
C778   C780    1.404   .     A
C779   C781    1.404   .     A
C779   H807    1.083   .     S
C781   C552    1.470   1_565 S
C782   C783    1.444   .     S
C783   C786    1.408   .     A
C784   N812    1.157   .     T
C784   C785    1.443   .     S
C785   C787    1.408   .     A
C786   H808    1.082   .     S
C786   N809    1.362   .     A
C787   N810    1.362   .     A
C787   H794    1.082   .     S
C788   H795    1.081   .     S
C788   N809    1.363   .     A
C788   C790    1.412   .     A
C789   H796    1.081   .     S
C789   N810    1.364   .     A
C790   S835    1.772   .     S
Cu791  O827    1.957   .     S
Cu791  O831    1.968   .     S
Cu791  O828    1.973   .     S
Cu791  Cu792   2.667   .     S
Cu791  O813    1.956   .     S
Cu791  N810    2.004   .     S
Cu792  O824    1.956   .     S
Cu792  O826    1.957   .     S
Cu792  O830    1.968   .     S
Cu792  O829    1.973   .     S
Cu792  N809    2.004   .     S
H797   O815    0.990   .     S
H798   O818    0.991   .     S
H799   O821    0.991   .     S
H800   O825    0.990   .     S
N811   C326    1.157   1_556 S
O814   S833    1.504   .     D
O816   S834    1.504   .     D
O817   S834    1.502   .     D
O818   S910    1.683   .     S
O819   S835    1.503   .     D
O820   S379    1.502   1_556 S
O821   S835    1.683   .     S
O822   S836    1.502   .     D
O825   S836    1.682   .     S
O832   S833    1.503   .     D
S833   O891    1.682   .     S
S833   C843    1.787   .     S
S836   O367    1.503   1_556 S
C837   O889    1.290   .     A
C837   O902    1.291   .     A
C837   C850    1.459   .     S
C838   C865    1.412   .     A
C838   C840    1.418   .     A
C838   S912    1.771   .     S
C839   C859    1.414   .     A
C839   C866    1.419   .     A
C840   C861    1.414   .     A
C840   C383    1.512   1_556 S
C841   O904    1.276   .     A
C841   C843    1.430   .     S
C841   O906    1.288   .     A
C842   O905    1.275   .     A
C842   O907    1.288   .     A
C842   C844    1.428   .     S
C844   C691    1.359   1_655 S
C844   S758    1.784   1_655 S
C845   H869    1.083   .     S
C845   C856    1.404   .     A
C845   C847    1.390   .     A
C846   H877    1.083   .     S
C846   C857    1.404   .     A
C846   C849    1.390   .     A
C847   C850    1.402   .     A
C847   H878    1.083   .     S
C848   O900    1.290   .     A
C848   O903    1.290   .     A
C848   C851    1.459   .     S
C849   C851    1.402   .     A
C849   H879    1.083   .     S
C850   C852    1.402   .     A
C851   C853    1.402   .     A
C852   H880    1.083   .     S
C852   C854    1.390   .     A
C853   H881    1.083   .     S
C853   C855    1.390   .     A
C854   H882    1.083   .     S
C854   C856    1.404   .     A
C855   C857    1.404   .     A
C855   H883    1.083   .     S
C857   C628    1.470   1_565 S
C858   C859    1.444   .     S
C859   C862    1.408   .     A
C860   N888    1.157   .     T
C860   C861    1.443   .     S
C861   C863    1.408   .     A
C862   H884    1.082   .     S
C862   N885    1.362   .     A
C863   N886    1.362   .     A
C863   H870    1.082   .     S
C864   H871    1.081   .     S
C864   N885    1.363   .     A
C864   C866    1.412   .     A
C865   H872    1.081   .     S
C865   N886    1.364   .     A
C866   S911    1.772   .     S
Cu867  O903    1.957   .     S
Cu867  O907    1.968   .     S
Cu867  O904    1.973   .     S
Cu867  Cu868   2.667   .     S
Cu867  O889    1.956   .     S
Cu867  N886    2.004   .     S
Cu868  O900    1.956   .     S
Cu868  O902    1.957   .     S
Cu868  O906    1.968   .     S
Cu868  O905    1.973   .     S
Cu868  N885    2.004   .     S
H873   O891    0.990   .     S
H874   O894    0.991   .     S
H875   O897    0.991   .     S
H876   O901    0.990   .     S
N887   C402    1.157   1_556 S
O890   S909    1.504   .     D
O892   S910    1.504   .     D
O893   S910    1.502   .     D
O894   S758    1.683   1_655 S
O895   S911    1.503   .     D
O896   S455    1.502   1_556 S
O897   S911    1.683   .     S
O898   S912    1.502   .     D
O901   S912    1.682   .     S
O908   S909    1.503   .     D
S909   O739    1.682   1_655 S
S909   C691    1.787   1_655 S
S912   O443    1.503   1_556 S
