data_str_m2_o1_o17_pcu_sym.49
_audit_creation_date              2020-01-03
_audit_creation_method            'Materials Studio'
_symmetry_space_group_name_H-M    'P1'
_symmetry_Int_Tables_number       1
_symmetry_cell_setting            triclinic
loop_
_symmetry_equiv_pos_as_xyz
  x,y,z
_cell_length_a                    32.4972
_cell_length_b                    28.9439
_cell_length_c                    30.1336
_cell_angle_alpha                 90.3103
_cell_angle_beta                  93.2298
_cell_angle_gamma                 89.1561
loop_
_atom_site_label
_atom_site_type_symbol
_atom_site_fract_x
_atom_site_fract_y
_atom_site_fract_z
_atom_site_U_iso_or_equiv
_atom_site_adp_type
_atom_site_occupancy
O1     O     0.10655   0.20625   0.24999   0.00000  Uiso   1.00
O2     O     0.22679   0.12709   0.25000   0.00000  Uiso   1.00
O3     O     0.22679   0.20625   0.25000   0.00000  Uiso   1.00
O4     O     0.10655   0.12709   0.24999   0.00000  Uiso   1.00
C5     C     0.08759   0.16701   0.25023   0.00000  Uiso   1.00
C6     C     0.24576   0.16643   0.24964   0.00000  Uiso   1.00
O7     O     0.16666   0.20627   0.18513   0.00000  Uiso   1.00
O8     O     0.16668   0.12707   0.31487   0.00000  Uiso   1.00
O9     O     0.16668   0.20627   0.31487   0.00000  Uiso   1.00
O10    O     0.16666   0.12707   0.18513   0.00000  Uiso   1.00
C11    C     0.16653   0.16634   0.16459   0.00000  Uiso   1.00
C12    C     0.16606   0.16691   0.33549   0.00000  Uiso   1.00
Cu13   Cu    0.16667   0.21355   0.25000   0.00000  Uiso   1.00
Cu14   Cu    0.16667   0.11978   0.25000   0.00000  Uiso   1.00
C15    C     0.19362   0.13772   0.40846   0.00000  Uiso   1.00
C16    C     0.13093   0.18519   0.09171   0.00000  Uiso   1.00
C17    C     0.16558   0.16694   0.38417   0.00000  Uiso   1.00
C18    C     0.16454   0.16430   0.11601   0.00000  Uiso   1.00
C19    C     0.13549   0.19295   0.40588   0.00000  Uiso   1.00
C20    C     0.19413   0.13752   0.09445   0.00000  Uiso   1.00
C21    C     0.12962   0.18412   0.45127   0.00000  Uiso   1.00
C22    C     0.18907   0.13035   0.04798   0.00000  Uiso   1.00
C23    C     0.15939   0.15734   0.47619   0.00000  Uiso   1.00
C24    C     0.15896   0.15673   0.02305   0.00000  Uiso   1.00
C25    C     0.19018   0.13207   0.45450   0.00000  Uiso   1.00
C26    C     0.12877   0.18293   0.04484   0.00000  Uiso   1.00
C27    C     0.09457   0.20080   0.47270   0.00000  Uiso   1.00
C28    C     0.21347   0.09779   0.02541   0.00000  Uiso   1.00
C29    C     0.09565   0.20378   0.01931   0.00000  Uiso   1.00
C30    C     0.21627   0.10083   0.47917   0.00000  Uiso   1.00
C31    C     0.02326   0.13973   0.28158   0.00000  Uiso   1.00
C32    C     0.31026   0.19552   0.21944   0.00000  Uiso   1.00
C33    C     0.31341   0.13814   0.27946   0.00000  Uiso   1.00
C34    C     0.02009   0.19626   0.22100   0.00000  Uiso   1.00
C35    C     0.29047   0.16613   0.24877   0.00000  Uiso   1.00
C36    C     0.04294   0.16792   0.25134   0.00000  Uiso   1.00
C37    C     0.13586   0.02487   0.22760   0.00000  Uiso   1.00
C38    C     0.19747   0.30846   0.27241   0.00000  Uiso   1.00
C39    C     0.19749   0.02397   0.27233   0.00000  Uiso   1.00
C40    C     0.13587   0.30936   0.22763   0.00000  Uiso   1.00
N41    N     0.16667   0.28402   0.25000   0.00000  Uiso   1.00
N42    N     0.16667   0.04931   0.25000   0.00000  Uiso   1.00
O43    O     0.22596   0.11633   0.38812   0.00000  Uiso   1.00
H44    H     0.23450   0.13614   0.36368   0.00000  Uiso   1.00
O45    O     0.10014   0.20815   0.11318   0.00000  Uiso   1.00
H46    H     0.09613   0.19260   0.14172   0.00000  Uiso   1.00
C47    C     0.11332   0.23286   0.38155   0.00000  Uiso   1.00
H48    H     0.13615   0.25612   0.36772   0.00000  Uiso   1.00
H49    H     0.09210   0.21960   0.35439   0.00000  Uiso   1.00
H50    H     0.09612   0.25600   0.40346   0.00000  Uiso   1.00
C51    C     0.23299   0.12124   0.12070   0.00000  Uiso   1.00
H52    H     0.24217   0.14617   0.14721   0.00000  Uiso   1.00
H53    H     0.22782   0.08745   0.13656   0.00000  Uiso   1.00
H54    H     0.25983   0.11892   0.09958   0.00000  Uiso   1.00
O55    O     0.05746   0.21005   0.44956   0.00000  Uiso   1.00
H56    H     0.05584   0.19039   0.42249   0.00000  Uiso   1.00
O57    O     0.23230   0.06047   0.04692   0.00000  Uiso   1.00
H58    H     0.21378   0.05006   0.06979   0.00000  Uiso   1.00
O59    O     0.06352   0.22482   0.04042   0.00000  Uiso   1.00
H60    H     0.04572   0.24275   0.01880   0.00000  Uiso   1.00
O61    O     0.24246   0.07153   0.45720   0.00000  Uiso   1.00
H62    H     0.26217   0.05601   0.47871   0.00000  Uiso   1.00
O63    O     0.04510   0.11441   0.31411   0.00000  Uiso   1.00
H64    H     0.07176   0.12943   0.32172   0.00000  Uiso   1.00
O65    O     0.28886   0.22357   0.18872   0.00000  Uiso   1.00
H66    H     0.26066   0.21219   0.18250   0.00000  Uiso   1.00
O67    O     0.29251   0.11169   0.30870   0.00000  Uiso   1.00
H68    H     0.31204   0.09259   0.32740   0.00000  Uiso   1.00
O69    O     0.04108   0.22300   0.19209   0.00000  Uiso   1.00
H70    H     0.02169   0.24182   0.17294   0.00000  Uiso   1.00
O71    O     0.10402   0.04645   0.20348   0.00000  Uiso   1.00
H72    H     0.11469   0.07480   0.19090   0.00000  Uiso   1.00
O73    O     0.22930   0.28688   0.29653   0.00000  Uiso   1.00
H74    H     0.21862   0.25854   0.30912   0.00000  Uiso   1.00
O75    O     0.22928   0.04463   0.29646   0.00000  Uiso   1.00
H76    H     0.21893   0.07421   0.30756   0.00000  Uiso   1.00
O77    O     0.10416   0.28870   0.20338   0.00000  Uiso   1.00
H78    H     0.11460   0.25924   0.19209   0.00000  Uiso   1.00
O79    O     0.43988   0.20625   0.24999   0.00000  Uiso   1.00
O80    O     0.56012   0.12709   0.25000   0.00000  Uiso   1.00
O81    O     0.56012   0.20625   0.25000   0.00000  Uiso   1.00
O82    O     0.43988   0.12709   0.24999   0.00000  Uiso   1.00
C83    C     0.42092   0.16701   0.25023   0.00000  Uiso   1.00
C84    C     0.57909   0.16643   0.24964   0.00000  Uiso   1.00
O85    O     0.49999   0.20627   0.18513   0.00000  Uiso   1.00
O86    O     0.50001   0.12707   0.31487   0.00000  Uiso   1.00
O87    O     0.50001   0.20627   0.31487   0.00000  Uiso   1.00
O88    O     0.49999   0.12707   0.18513   0.00000  Uiso   1.00
C89    C     0.49986   0.16634   0.16459   0.00000  Uiso   1.00
C90    C     0.49939   0.16691   0.33549   0.00000  Uiso   1.00
Cu91   Cu    0.50000   0.21355   0.25000   0.00000  Uiso   1.00
Cu92   Cu    0.50000   0.11978   0.25000   0.00000  Uiso   1.00
C93    C     0.52695   0.13772   0.40846   0.00000  Uiso   1.00
C94    C     0.46426   0.18519   0.09171   0.00000  Uiso   1.00
C95    C     0.49892   0.16694   0.38417   0.00000  Uiso   1.00
C96    C     0.49788   0.16430   0.11601   0.00000  Uiso   1.00
C97    C     0.46882   0.19295   0.40588   0.00000  Uiso   1.00
C98    C     0.52747   0.13752   0.09445   0.00000  Uiso   1.00
C99    C     0.46296   0.18412   0.45127   0.00000  Uiso   1.00
C100   C     0.52240   0.13035   0.04798   0.00000  Uiso   1.00
C101   C     0.49273   0.15734   0.47619   0.00000  Uiso   1.00
C102   C     0.49230   0.15673   0.02305   0.00000  Uiso   1.00
C103   C     0.52351   0.13207   0.45450   0.00000  Uiso   1.00
C104   C     0.46211   0.18293   0.04484   0.00000  Uiso   1.00
C105   C     0.42790   0.20080   0.47270   0.00000  Uiso   1.00
C106   C     0.54680   0.09779   0.02541   0.00000  Uiso   1.00
C107   C     0.42898   0.20378   0.01931   0.00000  Uiso   1.00
C108   C     0.54960   0.10083   0.47917   0.00000  Uiso   1.00
C109   C     0.35659   0.13973   0.28158   0.00000  Uiso   1.00
C110   C     0.64359   0.19552   0.21944   0.00000  Uiso   1.00
C111   C     0.64674   0.13814   0.27946   0.00000  Uiso   1.00
C112   C     0.35342   0.19626   0.22100   0.00000  Uiso   1.00
C113   C     0.62380   0.16613   0.24877   0.00000  Uiso   1.00
C114   C     0.37627   0.16792   0.25134   0.00000  Uiso   1.00
C115   C     0.46920   0.02487   0.22760   0.00000  Uiso   1.00
C116   C     0.53080   0.30846   0.27241   0.00000  Uiso   1.00
C117   C     0.53082   0.02397   0.27233   0.00000  Uiso   1.00
C118   C     0.46921   0.30936   0.22763   0.00000  Uiso   1.00
N119   N     0.50000   0.28402   0.25000   0.00000  Uiso   1.00
N120   N     0.50000   0.04931   0.25000   0.00000  Uiso   1.00
O121   O     0.55929   0.11633   0.38812   0.00000  Uiso   1.00
H122   H     0.56784   0.13614   0.36368   0.00000  Uiso   1.00
O123   O     0.43347   0.20815   0.11318   0.00000  Uiso   1.00
H124   H     0.42947   0.19260   0.14172   0.00000  Uiso   1.00
C125   C     0.44666   0.23286   0.38155   0.00000  Uiso   1.00
H126   H     0.46948   0.25612   0.36772   0.00000  Uiso   1.00
H127   H     0.42543   0.21960   0.35439   0.00000  Uiso   1.00
H128   H     0.42945   0.25600   0.40346   0.00000  Uiso   1.00
C129   C     0.56633   0.12124   0.12070   0.00000  Uiso   1.00
H130   H     0.57550   0.14617   0.14721   0.00000  Uiso   1.00
H131   H     0.56116   0.08745   0.13656   0.00000  Uiso   1.00
H132   H     0.59316   0.11892   0.09958   0.00000  Uiso   1.00
O133   O     0.39079   0.21005   0.44956   0.00000  Uiso   1.00
H134   H     0.38917   0.19039   0.42249   0.00000  Uiso   1.00
O135   O     0.56563   0.06047   0.04692   0.00000  Uiso   1.00
H136   H     0.54711   0.05006   0.06979   0.00000  Uiso   1.00
O137   O     0.39685   0.22482   0.04042   0.00000  Uiso   1.00
H138   H     0.37905   0.24275   0.01880   0.00000  Uiso   1.00
O139   O     0.57580   0.07153   0.45720   0.00000  Uiso   1.00
H140   H     0.59550   0.05601   0.47871   0.00000  Uiso   1.00
O141   O     0.37843   0.11441   0.31411   0.00000  Uiso   1.00
H142   H     0.40509   0.12943   0.32172   0.00000  Uiso   1.00
O143   O     0.62219   0.22357   0.18872   0.00000  Uiso   1.00
H144   H     0.59399   0.21219   0.18250   0.00000  Uiso   1.00
O145   O     0.62584   0.11169   0.30870   0.00000  Uiso   1.00
H146   H     0.64537   0.09259   0.32740   0.00000  Uiso   1.00
O147   O     0.37441   0.22300   0.19209   0.00000  Uiso   1.00
H148   H     0.35502   0.24182   0.17294   0.00000  Uiso   1.00
O149   O     0.43735   0.04645   0.20348   0.00000  Uiso   1.00
H150   H     0.44802   0.07480   0.19090   0.00000  Uiso   1.00
O151   O     0.56264   0.28688   0.29653   0.00000  Uiso   1.00
H152   H     0.55196   0.25854   0.30912   0.00000  Uiso   1.00
O153   O     0.56261   0.04463   0.29646   0.00000  Uiso   1.00
H154   H     0.55227   0.07421   0.30756   0.00000  Uiso   1.00
O155   O     0.43749   0.28870   0.20338   0.00000  Uiso   1.00
H156   H     0.44793   0.25924   0.19209   0.00000  Uiso   1.00
O157   O     0.77321   0.20625   0.24999   0.00000  Uiso   1.00
O158   O     0.89345   0.12709   0.25000   0.00000  Uiso   1.00
O159   O     0.89345   0.20625   0.25000   0.00000  Uiso   1.00
O160   O     0.77321   0.12709   0.24999   0.00000  Uiso   1.00
C161   C     0.75426   0.16701   0.25023   0.00000  Uiso   1.00
C162   C     0.91243   0.16643   0.24964   0.00000  Uiso   1.00
O163   O     0.83332   0.20627   0.18513   0.00000  Uiso   1.00
O164   O     0.83334   0.12707   0.31487   0.00000  Uiso   1.00
O165   O     0.83334   0.20627   0.31487   0.00000  Uiso   1.00
O166   O     0.83332   0.12707   0.18513   0.00000  Uiso   1.00
C167   C     0.83320   0.16634   0.16459   0.00000  Uiso   1.00
C168   C     0.83273   0.16691   0.33549   0.00000  Uiso   1.00
Cu169  Cu    0.83333   0.21355   0.25000   0.00000  Uiso   1.00
Cu170  Cu    0.83333   0.11978   0.25000   0.00000  Uiso   1.00
C171   C     0.86028   0.13772   0.40846   0.00000  Uiso   1.00
C172   C     0.79759   0.18519   0.09171   0.00000  Uiso   1.00
C173   C     0.83225   0.16694   0.38417   0.00000  Uiso   1.00
C174   C     0.83121   0.16430   0.11601   0.00000  Uiso   1.00
C175   C     0.80215   0.19295   0.40588   0.00000  Uiso   1.00
C176   C     0.86080   0.13752   0.09445   0.00000  Uiso   1.00
C177   C     0.79629   0.18412   0.45127   0.00000  Uiso   1.00
C178   C     0.85573   0.13035   0.04798   0.00000  Uiso   1.00
C179   C     0.82606   0.15734   0.47619   0.00000  Uiso   1.00
C180   C     0.82563   0.15673   0.02305   0.00000  Uiso   1.00
C181   C     0.85684   0.13207   0.45450   0.00000  Uiso   1.00
C182   C     0.79544   0.18293   0.04484   0.00000  Uiso   1.00
C183   C     0.76124   0.20080   0.47270   0.00000  Uiso   1.00
C184   C     0.88014   0.09779   0.02541   0.00000  Uiso   1.00
C185   C     0.76231   0.20378   0.01931   0.00000  Uiso   1.00
C186   C     0.88294   0.10083   0.47917   0.00000  Uiso   1.00
C187   C     0.68993   0.13973   0.28158   0.00000  Uiso   1.00
C188   C     0.97693   0.19552   0.21944   0.00000  Uiso   1.00
C189   C     0.98008   0.13814   0.27946   0.00000  Uiso   1.00
C190   C     0.68675   0.19626   0.22100   0.00000  Uiso   1.00
C191   C     0.95713   0.16613   0.24877   0.00000  Uiso   1.00
C192   C     0.70961   0.16792   0.25134   0.00000  Uiso   1.00
C193   C     0.80253   0.02487   0.22760   0.00000  Uiso   1.00
C194   C     0.86413   0.30846   0.27241   0.00000  Uiso   1.00
C195   C     0.86415   0.02397   0.27233   0.00000  Uiso   1.00
C196   C     0.80254   0.30936   0.22763   0.00000  Uiso   1.00
N197   N     0.83333   0.28402   0.25000   0.00000  Uiso   1.00
N198   N     0.83333   0.04931   0.25000   0.00000  Uiso   1.00
O199   O     0.89262   0.11633   0.38812   0.00000  Uiso   1.00
H200   H     0.90117   0.13614   0.36368   0.00000  Uiso   1.00
O201   O     0.76680   0.20815   0.11318   0.00000  Uiso   1.00
H202   H     0.76280   0.19260   0.14172   0.00000  Uiso   1.00
C203   C     0.77999   0.23286   0.38155   0.00000  Uiso   1.00
H204   H     0.80282   0.25612   0.36772   0.00000  Uiso   1.00
H205   H     0.75877   0.21960   0.35439   0.00000  Uiso   1.00
H206   H     0.76279   0.25600   0.40346   0.00000  Uiso   1.00
C207   C     0.89966   0.12124   0.12070   0.00000  Uiso   1.00
H208   H     0.90884   0.14617   0.14721   0.00000  Uiso   1.00
H209   H     0.89449   0.08745   0.13656   0.00000  Uiso   1.00
H210   H     0.92650   0.11892   0.09958   0.00000  Uiso   1.00
O211   O     0.72412   0.21005   0.44956   0.00000  Uiso   1.00
H212   H     0.72251   0.19039   0.42249   0.00000  Uiso   1.00
O213   O     0.89896   0.06047   0.04692   0.00000  Uiso   1.00
H214   H     0.88045   0.05006   0.06979   0.00000  Uiso   1.00
O215   O     0.73018   0.22482   0.04042   0.00000  Uiso   1.00
H216   H     0.71239   0.24275   0.01880   0.00000  Uiso   1.00
O217   O     0.90913   0.07153   0.45720   0.00000  Uiso   1.00
H218   H     0.92884   0.05601   0.47871   0.00000  Uiso   1.00
O219   O     0.71176   0.11441   0.31411   0.00000  Uiso   1.00
H220   H     0.73842   0.12943   0.32172   0.00000  Uiso   1.00
O221   O     0.95553   0.22357   0.18872   0.00000  Uiso   1.00
H222   H     0.92733   0.21219   0.18250   0.00000  Uiso   1.00
O223   O     0.95918   0.11169   0.30870   0.00000  Uiso   1.00
H224   H     0.97871   0.09259   0.32740   0.00000  Uiso   1.00
O225   O     0.70774   0.22300   0.19209   0.00000  Uiso   1.00
H226   H     0.68835   0.24182   0.17294   0.00000  Uiso   1.00
O227   O     0.77069   0.04645   0.20348   0.00000  Uiso   1.00
H228   H     0.78136   0.07480   0.19090   0.00000  Uiso   1.00
O229   O     0.89597   0.28688   0.29653   0.00000  Uiso   1.00
H230   H     0.88529   0.25854   0.30912   0.00000  Uiso   1.00
O231   O     0.89595   0.04463   0.29646   0.00000  Uiso   1.00
H232   H     0.88560   0.07421   0.30756   0.00000  Uiso   1.00
O233   O     0.77083   0.28870   0.20338   0.00000  Uiso   1.00
H234   H     0.78126   0.25924   0.19209   0.00000  Uiso   1.00
O235   O     0.10655   0.53958   0.24999   0.00000  Uiso   1.00
O236   O     0.22679   0.46042   0.25000   0.00000  Uiso   1.00
O237   O     0.22679   0.53958   0.25000   0.00000  Uiso   1.00
O238   O     0.10655   0.46042   0.24999   0.00000  Uiso   1.00
C239   C     0.08759   0.50035   0.25023   0.00000  Uiso   1.00
C240   C     0.24576   0.49976   0.24964   0.00000  Uiso   1.00
O241   O     0.16666   0.53960   0.18513   0.00000  Uiso   1.00
O242   O     0.16668   0.46040   0.31487   0.00000  Uiso   1.00
O243   O     0.16668   0.53960   0.31487   0.00000  Uiso   1.00
O244   O     0.16666   0.46040   0.18513   0.00000  Uiso   1.00
C245   C     0.16653   0.49967   0.16459   0.00000  Uiso   1.00
C246   C     0.16606   0.50024   0.33549   0.00000  Uiso   1.00
Cu247  Cu    0.16667   0.54689   0.25000   0.00000  Uiso   1.00
Cu248  Cu    0.16667   0.45311   0.25000   0.00000  Uiso   1.00
C249   C     0.19362   0.47105   0.40846   0.00000  Uiso   1.00
C250   C     0.13093   0.51852   0.09171   0.00000  Uiso   1.00
C251   C     0.16558   0.50028   0.38417   0.00000  Uiso   1.00
C252   C     0.16454   0.49764   0.11601   0.00000  Uiso   1.00
C253   C     0.13549   0.52628   0.40588   0.00000  Uiso   1.00
C254   C     0.19413   0.47085   0.09445   0.00000  Uiso   1.00
C255   C     0.12962   0.51746   0.45127   0.00000  Uiso   1.00
C256   C     0.18907   0.46369   0.04798   0.00000  Uiso   1.00
C257   C     0.15939   0.49067   0.47619   0.00000  Uiso   1.00
C258   C     0.15896   0.49007   0.02305   0.00000  Uiso   1.00
C259   C     0.19018   0.46541   0.45450   0.00000  Uiso   1.00
C260   C     0.12877   0.51627   0.04484   0.00000  Uiso   1.00
C261   C     0.09457   0.53413   0.47270   0.00000  Uiso   1.00
C262   C     0.21347   0.43112   0.02541   0.00000  Uiso   1.00
C263   C     0.09565   0.53712   0.01931   0.00000  Uiso   1.00
C264   C     0.21627   0.43416   0.47917   0.00000  Uiso   1.00
C265   C     0.02326   0.47306   0.28158   0.00000  Uiso   1.00
C266   C     0.31026   0.52885   0.21944   0.00000  Uiso   1.00
C267   C     0.31341   0.47147   0.27946   0.00000  Uiso   1.00
C268   C     0.02009   0.52959   0.22100   0.00000  Uiso   1.00
C269   C     0.29047   0.49946   0.24877   0.00000  Uiso   1.00
C270   C     0.04294   0.50125   0.25134   0.00000  Uiso   1.00
C271   C     0.13586   0.35820   0.22760   0.00000  Uiso   1.00
C272   C     0.19747   0.64180   0.27241   0.00000  Uiso   1.00
C273   C     0.19749   0.35730   0.27233   0.00000  Uiso   1.00
C274   C     0.13587   0.64270   0.22763   0.00000  Uiso   1.00
N275   N     0.16667   0.61736   0.25000   0.00000  Uiso   1.00
N276   N     0.16667   0.38264   0.25000   0.00000  Uiso   1.00
O277   O     0.22596   0.44966   0.38812   0.00000  Uiso   1.00
H278   H     0.23450   0.46947   0.36368   0.00000  Uiso   1.00
O279   O     0.10014   0.54148   0.11318   0.00000  Uiso   1.00
H280   H     0.09613   0.52593   0.14172   0.00000  Uiso   1.00
C281   C     0.11332   0.56620   0.38155   0.00000  Uiso   1.00
H282   H     0.13615   0.58945   0.36772   0.00000  Uiso   1.00
H283   H     0.09210   0.55293   0.35439   0.00000  Uiso   1.00
H284   H     0.09612   0.58934   0.40346   0.00000  Uiso   1.00
C285   C     0.23299   0.45457   0.12070   0.00000  Uiso   1.00
H286   H     0.24217   0.47950   0.14721   0.00000  Uiso   1.00
H287   H     0.22782   0.42079   0.13656   0.00000  Uiso   1.00
H288   H     0.25983   0.45226   0.09958   0.00000  Uiso   1.00
O289   O     0.05746   0.54338   0.44956   0.00000  Uiso   1.00
H290   H     0.05584   0.52372   0.42249   0.00000  Uiso   1.00
O291   O     0.23230   0.39380   0.04692   0.00000  Uiso   1.00
H292   H     0.21378   0.38339   0.06979   0.00000  Uiso   1.00
O293   O     0.06352   0.55815   0.04042   0.00000  Uiso   1.00
H294   H     0.04572   0.57608   0.01880   0.00000  Uiso   1.00
O295   O     0.24246   0.40486   0.45720   0.00000  Uiso   1.00
H296   H     0.26217   0.38934   0.47871   0.00000  Uiso   1.00
O297   O     0.04510   0.44775   0.31411   0.00000  Uiso   1.00
H298   H     0.07176   0.46276   0.32172   0.00000  Uiso   1.00
O299   O     0.28886   0.55690   0.18872   0.00000  Uiso   1.00
H300   H     0.26066   0.54552   0.18250   0.00000  Uiso   1.00
O301   O     0.29251   0.44503   0.30870   0.00000  Uiso   1.00
H302   H     0.31204   0.42592   0.32740   0.00000  Uiso   1.00
O303   O     0.04108   0.55633   0.19209   0.00000  Uiso   1.00
H304   H     0.02169   0.57515   0.17294   0.00000  Uiso   1.00
O305   O     0.10402   0.37979   0.20348   0.00000  Uiso   1.00
H306   H     0.11469   0.40813   0.19090   0.00000  Uiso   1.00
O307   O     0.22930   0.62021   0.29653   0.00000  Uiso   1.00
H308   H     0.21862   0.59187   0.30912   0.00000  Uiso   1.00
O309   O     0.22928   0.37796   0.29646   0.00000  Uiso   1.00
H310   H     0.21893   0.40754   0.30756   0.00000  Uiso   1.00
O311   O     0.10416   0.62204   0.20338   0.00000  Uiso   1.00
H312   H     0.11460   0.59257   0.19209   0.00000  Uiso   1.00
O313   O     0.43988   0.53958   0.24999   0.00000  Uiso   1.00
O314   O     0.56012   0.46042   0.25000   0.00000  Uiso   1.00
O315   O     0.56012   0.53958   0.25000   0.00000  Uiso   1.00
O316   O     0.43988   0.46042   0.24999   0.00000  Uiso   1.00
C317   C     0.42092   0.50035   0.25023   0.00000  Uiso   1.00
C318   C     0.57909   0.49976   0.24964   0.00000  Uiso   1.00
O319   O     0.49999   0.53960   0.18513   0.00000  Uiso   1.00
O320   O     0.50001   0.46040   0.31487   0.00000  Uiso   1.00
O321   O     0.50001   0.53960   0.31487   0.00000  Uiso   1.00
O322   O     0.49999   0.46040   0.18513   0.00000  Uiso   1.00
C323   C     0.49986   0.49967   0.16459   0.00000  Uiso   1.00
C324   C     0.49939   0.50024   0.33549   0.00000  Uiso   1.00
Cu325  Cu    0.50000   0.54689   0.25000   0.00000  Uiso   1.00
Cu326  Cu    0.50000   0.45311   0.25000   0.00000  Uiso   1.00
C327   C     0.52695   0.47105   0.40846   0.00000  Uiso   1.00
C328   C     0.46426   0.51852   0.09171   0.00000  Uiso   1.00
C329   C     0.49892   0.50028   0.38417   0.00000  Uiso   1.00
C330   C     0.49788   0.49764   0.11601   0.00000  Uiso   1.00
C331   C     0.46882   0.52628   0.40588   0.00000  Uiso   1.00
C332   C     0.52747   0.47085   0.09445   0.00000  Uiso   1.00
C333   C     0.46296   0.51746   0.45127   0.00000  Uiso   1.00
C334   C     0.52240   0.46369   0.04798   0.00000  Uiso   1.00
C335   C     0.49273   0.49067   0.47619   0.00000  Uiso   1.00
C336   C     0.49230   0.49007   0.02305   0.00000  Uiso   1.00
C337   C     0.52351   0.46541   0.45450   0.00000  Uiso   1.00
C338   C     0.46211   0.51627   0.04484   0.00000  Uiso   1.00
C339   C     0.42790   0.53413   0.47270   0.00000  Uiso   1.00
C340   C     0.54680   0.43112   0.02541   0.00000  Uiso   1.00
C341   C     0.42898   0.53712   0.01931   0.00000  Uiso   1.00
C342   C     0.54960   0.43416   0.47917   0.00000  Uiso   1.00
C343   C     0.35659   0.47306   0.28158   0.00000  Uiso   1.00
C344   C     0.64359   0.52885   0.21944   0.00000  Uiso   1.00
C345   C     0.64674   0.47147   0.27946   0.00000  Uiso   1.00
C346   C     0.35342   0.52959   0.22100   0.00000  Uiso   1.00
C347   C     0.62380   0.49946   0.24877   0.00000  Uiso   1.00
C348   C     0.37627   0.50125   0.25134   0.00000  Uiso   1.00
C349   C     0.46920   0.35820   0.22760   0.00000  Uiso   1.00
C350   C     0.53080   0.64180   0.27241   0.00000  Uiso   1.00
C351   C     0.53082   0.35730   0.27233   0.00000  Uiso   1.00
C352   C     0.46921   0.64270   0.22763   0.00000  Uiso   1.00
N353   N     0.50000   0.61736   0.25000   0.00000  Uiso   1.00
N354   N     0.50000   0.38264   0.25000   0.00000  Uiso   1.00
O355   O     0.55929   0.44966   0.38812   0.00000  Uiso   1.00
H356   H     0.56784   0.46947   0.36368   0.00000  Uiso   1.00
O357   O     0.43347   0.54148   0.11318   0.00000  Uiso   1.00
H358   H     0.42947   0.52593   0.14172   0.00000  Uiso   1.00
C359   C     0.44666   0.56620   0.38155   0.00000  Uiso   1.00
H360   H     0.46948   0.58945   0.36772   0.00000  Uiso   1.00
H361   H     0.42543   0.55293   0.35439   0.00000  Uiso   1.00
H362   H     0.42945   0.58934   0.40346   0.00000  Uiso   1.00
C363   C     0.56633   0.45457   0.12070   0.00000  Uiso   1.00
H364   H     0.57550   0.47950   0.14721   0.00000  Uiso   1.00
H365   H     0.56116   0.42079   0.13656   0.00000  Uiso   1.00
H366   H     0.59316   0.45226   0.09958   0.00000  Uiso   1.00
O367   O     0.39079   0.54338   0.44956   0.00000  Uiso   1.00
H368   H     0.38917   0.52372   0.42249   0.00000  Uiso   1.00
O369   O     0.56563   0.39380   0.04692   0.00000  Uiso   1.00
H370   H     0.54711   0.38339   0.06979   0.00000  Uiso   1.00
O371   O     0.39685   0.55815   0.04042   0.00000  Uiso   1.00
H372   H     0.37905   0.57608   0.01880   0.00000  Uiso   1.00
O373   O     0.57580   0.40486   0.45720   0.00000  Uiso   1.00
H374   H     0.59550   0.38934   0.47871   0.00000  Uiso   1.00
O375   O     0.37843   0.44775   0.31411   0.00000  Uiso   1.00
H376   H     0.40509   0.46276   0.32172   0.00000  Uiso   1.00
O377   O     0.62219   0.55690   0.18872   0.00000  Uiso   1.00
H378   H     0.59399   0.54552   0.18250   0.00000  Uiso   1.00
O379   O     0.62584   0.44503   0.30870   0.00000  Uiso   1.00
H380   H     0.64537   0.42592   0.32740   0.00000  Uiso   1.00
O381   O     0.37441   0.55633   0.19209   0.00000  Uiso   1.00
H382   H     0.35502   0.57515   0.17294   0.00000  Uiso   1.00
O383   O     0.43735   0.37979   0.20348   0.00000  Uiso   1.00
H384   H     0.44802   0.40813   0.19090   0.00000  Uiso   1.00
O385   O     0.56264   0.62021   0.29653   0.00000  Uiso   1.00
H386   H     0.55196   0.59187   0.30912   0.00000  Uiso   1.00
O387   O     0.56261   0.37796   0.29646   0.00000  Uiso   1.00
H388   H     0.55227   0.40754   0.30756   0.00000  Uiso   1.00
O389   O     0.43749   0.62204   0.20338   0.00000  Uiso   1.00
H390   H     0.44793   0.59257   0.19209   0.00000  Uiso   1.00
O391   O     0.77321   0.53958   0.24999   0.00000  Uiso   1.00
O392   O     0.89345   0.46042   0.25000   0.00000  Uiso   1.00
O393   O     0.89345   0.53958   0.25000   0.00000  Uiso   1.00
O394   O     0.77321   0.46042   0.24999   0.00000  Uiso   1.00
C395   C     0.75426   0.50035   0.25023   0.00000  Uiso   1.00
C396   C     0.91243   0.49976   0.24964   0.00000  Uiso   1.00
O397   O     0.83332   0.53960   0.18513   0.00000  Uiso   1.00
O398   O     0.83334   0.46040   0.31487   0.00000  Uiso   1.00
O399   O     0.83334   0.53960   0.31487   0.00000  Uiso   1.00
O400   O     0.83332   0.46040   0.18513   0.00000  Uiso   1.00
C401   C     0.83320   0.49967   0.16459   0.00000  Uiso   1.00
C402   C     0.83273   0.50024   0.33549   0.00000  Uiso   1.00
Cu403  Cu    0.83333   0.54689   0.25000   0.00000  Uiso   1.00
Cu404  Cu    0.83333   0.45311   0.25000   0.00000  Uiso   1.00
C405   C     0.86028   0.47105   0.40846   0.00000  Uiso   1.00
C406   C     0.79759   0.51852   0.09171   0.00000  Uiso   1.00
C407   C     0.83225   0.50028   0.38417   0.00000  Uiso   1.00
C408   C     0.83121   0.49764   0.11601   0.00000  Uiso   1.00
C409   C     0.80215   0.52628   0.40588   0.00000  Uiso   1.00
C410   C     0.86080   0.47085   0.09445   0.00000  Uiso   1.00
C411   C     0.79629   0.51746   0.45127   0.00000  Uiso   1.00
C412   C     0.85573   0.46369   0.04798   0.00000  Uiso   1.00
C413   C     0.82606   0.49067   0.47619   0.00000  Uiso   1.00
C414   C     0.82563   0.49007   0.02305   0.00000  Uiso   1.00
C415   C     0.85684   0.46541   0.45450   0.00000  Uiso   1.00
C416   C     0.79544   0.51627   0.04484   0.00000  Uiso   1.00
C417   C     0.76124   0.53413   0.47270   0.00000  Uiso   1.00
C418   C     0.88014   0.43112   0.02541   0.00000  Uiso   1.00
C419   C     0.76231   0.53712   0.01931   0.00000  Uiso   1.00
C420   C     0.88294   0.43416   0.47917   0.00000  Uiso   1.00
C421   C     0.68993   0.47306   0.28158   0.00000  Uiso   1.00
C422   C     0.97693   0.52885   0.21944   0.00000  Uiso   1.00
C423   C     0.98008   0.47147   0.27946   0.00000  Uiso   1.00
C424   C     0.68675   0.52959   0.22100   0.00000  Uiso   1.00
C425   C     0.95713   0.49946   0.24877   0.00000  Uiso   1.00
C426   C     0.70961   0.50125   0.25134   0.00000  Uiso   1.00
C427   C     0.80253   0.35820   0.22760   0.00000  Uiso   1.00
C428   C     0.86413   0.64180   0.27241   0.00000  Uiso   1.00
C429   C     0.86415   0.35730   0.27233   0.00000  Uiso   1.00
C430   C     0.80254   0.64270   0.22763   0.00000  Uiso   1.00
N431   N     0.83333   0.61736   0.25000   0.00000  Uiso   1.00
N432   N     0.83333   0.38264   0.25000   0.00000  Uiso   1.00
O433   O     0.89262   0.44966   0.38812   0.00000  Uiso   1.00
H434   H     0.90117   0.46947   0.36368   0.00000  Uiso   1.00
O435   O     0.76680   0.54148   0.11318   0.00000  Uiso   1.00
H436   H     0.76280   0.52593   0.14172   0.00000  Uiso   1.00
C437   C     0.77999   0.56620   0.38155   0.00000  Uiso   1.00
H438   H     0.80282   0.58945   0.36772   0.00000  Uiso   1.00
H439   H     0.75877   0.55293   0.35439   0.00000  Uiso   1.00
H440   H     0.76279   0.58934   0.40346   0.00000  Uiso   1.00
C441   C     0.89966   0.45457   0.12070   0.00000  Uiso   1.00
H442   H     0.90884   0.47950   0.14721   0.00000  Uiso   1.00
H443   H     0.89449   0.42079   0.13656   0.00000  Uiso   1.00
H444   H     0.92650   0.45226   0.09958   0.00000  Uiso   1.00
O445   O     0.72412   0.54338   0.44956   0.00000  Uiso   1.00
H446   H     0.72251   0.52372   0.42249   0.00000  Uiso   1.00
O447   O     0.89896   0.39380   0.04692   0.00000  Uiso   1.00
H448   H     0.88045   0.38339   0.06979   0.00000  Uiso   1.00
O449   O     0.73018   0.55815   0.04042   0.00000  Uiso   1.00
H450   H     0.71239   0.57608   0.01880   0.00000  Uiso   1.00
O451   O     0.90913   0.40486   0.45720   0.00000  Uiso   1.00
H452   H     0.92884   0.38934   0.47871   0.00000  Uiso   1.00
O453   O     0.71176   0.44775   0.31411   0.00000  Uiso   1.00
H454   H     0.73842   0.46276   0.32172   0.00000  Uiso   1.00
O455   O     0.95553   0.55690   0.18872   0.00000  Uiso   1.00
H456   H     0.92733   0.54552   0.18250   0.00000  Uiso   1.00
O457   O     0.95918   0.44503   0.30870   0.00000  Uiso   1.00
H458   H     0.97871   0.42592   0.32740   0.00000  Uiso   1.00
O459   O     0.70774   0.55633   0.19209   0.00000  Uiso   1.00
H460   H     0.68835   0.57515   0.17294   0.00000  Uiso   1.00
O461   O     0.77069   0.37979   0.20348   0.00000  Uiso   1.00
H462   H     0.78136   0.40813   0.19090   0.00000  Uiso   1.00
O463   O     0.89597   0.62021   0.29653   0.00000  Uiso   1.00
H464   H     0.88529   0.59187   0.30912   0.00000  Uiso   1.00
O465   O     0.89595   0.37796   0.29646   0.00000  Uiso   1.00
H466   H     0.88560   0.40754   0.30756   0.00000  Uiso   1.00
O467   O     0.77083   0.62204   0.20338   0.00000  Uiso   1.00
H468   H     0.78126   0.59257   0.19209   0.00000  Uiso   1.00
O469   O     0.10655   0.87291   0.24999   0.00000  Uiso   1.00
O470   O     0.22679   0.79375   0.25000   0.00000  Uiso   1.00
O471   O     0.22679   0.87291   0.25000   0.00000  Uiso   1.00
O472   O     0.10655   0.79375   0.24999   0.00000  Uiso   1.00
C473   C     0.08759   0.83368   0.25023   0.00000  Uiso   1.00
C474   C     0.24576   0.83309   0.24964   0.00000  Uiso   1.00
O475   O     0.16666   0.87293   0.18513   0.00000  Uiso   1.00
O476   O     0.16668   0.79373   0.31487   0.00000  Uiso   1.00
O477   O     0.16668   0.87293   0.31487   0.00000  Uiso   1.00
O478   O     0.16666   0.79373   0.18513   0.00000  Uiso   1.00
C479   C     0.16653   0.83301   0.16459   0.00000  Uiso   1.00
C480   C     0.16606   0.83357   0.33549   0.00000  Uiso   1.00
Cu481  Cu    0.16667   0.88022   0.25000   0.00000  Uiso   1.00
Cu482  Cu    0.16667   0.78645   0.25000   0.00000  Uiso   1.00
C483   C     0.19362   0.80438   0.40846   0.00000  Uiso   1.00
C484   C     0.13093   0.85186   0.09171   0.00000  Uiso   1.00
C485   C     0.16558   0.83361   0.38417   0.00000  Uiso   1.00
C486   C     0.16454   0.83097   0.11601   0.00000  Uiso   1.00
C487   C     0.13549   0.85962   0.40588   0.00000  Uiso   1.00
C488   C     0.19413   0.80418   0.09445   0.00000  Uiso   1.00
C489   C     0.12962   0.85079   0.45127   0.00000  Uiso   1.00
C490   C     0.18907   0.79702   0.04798   0.00000  Uiso   1.00
C491   C     0.15939   0.82400   0.47619   0.00000  Uiso   1.00
C492   C     0.15896   0.82340   0.02305   0.00000  Uiso   1.00
C493   C     0.19018   0.79874   0.45450   0.00000  Uiso   1.00
C494   C     0.12877   0.84960   0.04484   0.00000  Uiso   1.00
C495   C     0.09457   0.86746   0.47270   0.00000  Uiso   1.00
C496   C     0.21347   0.76445   0.02541   0.00000  Uiso   1.00
C497   C     0.09565   0.87045   0.01931   0.00000  Uiso   1.00
C498   C     0.21627   0.76750   0.47917   0.00000  Uiso   1.00
C499   C     0.02326   0.80640   0.28158   0.00000  Uiso   1.00
C500   C     0.31026   0.86219   0.21944   0.00000  Uiso   1.00
C501   C     0.31341   0.80480   0.27946   0.00000  Uiso   1.00
C502   C     0.02009   0.86293   0.22100   0.00000  Uiso   1.00
C503   C     0.29047   0.83279   0.24877   0.00000  Uiso   1.00
C504   C     0.04294   0.83458   0.25134   0.00000  Uiso   1.00
C505   C     0.13586   0.69153   0.22760   0.00000  Uiso   1.00
C506   C     0.19747   0.97513   0.27241   0.00000  Uiso   1.00
C507   C     0.19749   0.69063   0.27233   0.00000  Uiso   1.00
C508   C     0.13587   0.97603   0.22763   0.00000  Uiso   1.00
N509   N     0.16667   0.95069   0.25000   0.00000  Uiso   1.00
N510   N     0.16667   0.71598   0.25000   0.00000  Uiso   1.00
O511   O     0.22596   0.78300   0.38812   0.00000  Uiso   1.00
H512   H     0.23450   0.80281   0.36368   0.00000  Uiso   1.00
O513   O     0.10014   0.87482   0.11318   0.00000  Uiso   1.00
H514   H     0.09613   0.85927   0.14172   0.00000  Uiso   1.00
C515   C     0.11332   0.89953   0.38155   0.00000  Uiso   1.00
H516   H     0.13615   0.92278   0.36772   0.00000  Uiso   1.00
H517   H     0.09210   0.88627   0.35439   0.00000  Uiso   1.00
H518   H     0.09612   0.92267   0.40346   0.00000  Uiso   1.00
C519   C     0.23299   0.78791   0.12070   0.00000  Uiso   1.00
H520   H     0.24217   0.81284   0.14721   0.00000  Uiso   1.00
H521   H     0.22782   0.75412   0.13656   0.00000  Uiso   1.00
H522   H     0.25983   0.78559   0.09958   0.00000  Uiso   1.00
O523   O     0.05746   0.87671   0.44956   0.00000  Uiso   1.00
H524   H     0.05584   0.85706   0.42249   0.00000  Uiso   1.00
O525   O     0.23230   0.72714   0.04692   0.00000  Uiso   1.00
H526   H     0.21378   0.71672   0.06979   0.00000  Uiso   1.00
O527   O     0.06352   0.89148   0.04042   0.00000  Uiso   1.00
H528   H     0.04572   0.90941   0.01880   0.00000  Uiso   1.00
O529   O     0.24246   0.73819   0.45720   0.00000  Uiso   1.00
H530   H     0.26217   0.72267   0.47871   0.00000  Uiso   1.00
O531   O     0.04510   0.78108   0.31411   0.00000  Uiso   1.00
H532   H     0.07176   0.79610   0.32172   0.00000  Uiso   1.00
O533   O     0.28886   0.89024   0.18872   0.00000  Uiso   1.00
H534   H     0.26066   0.87885   0.18250   0.00000  Uiso   1.00
O535   O     0.29251   0.77836   0.30870   0.00000  Uiso   1.00
H536   H     0.31204   0.75925   0.32740   0.00000  Uiso   1.00
O537   O     0.04108   0.88966   0.19209   0.00000  Uiso   1.00
H538   H     0.02169   0.90848   0.17294   0.00000  Uiso   1.00
O539   O     0.10402   0.71312   0.20348   0.00000  Uiso   1.00
H540   H     0.11469   0.74146   0.19090   0.00000  Uiso   1.00
O541   O     0.22930   0.95354   0.29653   0.00000  Uiso   1.00
H542   H     0.21862   0.92521   0.30912   0.00000  Uiso   1.00
O543   O     0.22928   0.71129   0.29646   0.00000  Uiso   1.00
H544   H     0.21893   0.74087   0.30756   0.00000  Uiso   1.00
O545   O     0.10416   0.95537   0.20338   0.00000  Uiso   1.00
H546   H     0.11460   0.92590   0.19209   0.00000  Uiso   1.00
O547   O     0.43988   0.87291   0.24999   0.00000  Uiso   1.00
O548   O     0.56012   0.79375   0.25000   0.00000  Uiso   1.00
O549   O     0.56012   0.87291   0.25000   0.00000  Uiso   1.00
O550   O     0.43988   0.79375   0.24999   0.00000  Uiso   1.00
C551   C     0.42092   0.83368   0.25023   0.00000  Uiso   1.00
C552   C     0.57909   0.83309   0.24964   0.00000  Uiso   1.00
O553   O     0.49999   0.87293   0.18513   0.00000  Uiso   1.00
O554   O     0.50001   0.79373   0.31487   0.00000  Uiso   1.00
O555   O     0.50001   0.87293   0.31487   0.00000  Uiso   1.00
O556   O     0.49999   0.79373   0.18513   0.00000  Uiso   1.00
C557   C     0.49986   0.83301   0.16459   0.00000  Uiso   1.00
C558   C     0.49939   0.83357   0.33549   0.00000  Uiso   1.00
Cu559  Cu    0.50000   0.88022   0.25000   0.00000  Uiso   1.00
Cu560  Cu    0.50000   0.78645   0.25000   0.00000  Uiso   1.00
C561   C     0.52695   0.80438   0.40846   0.00000  Uiso   1.00
C562   C     0.46426   0.85186   0.09171   0.00000  Uiso   1.00
C563   C     0.49892   0.83361   0.38417   0.00000  Uiso   1.00
C564   C     0.49788   0.83097   0.11601   0.00000  Uiso   1.00
C565   C     0.46882   0.85962   0.40588   0.00000  Uiso   1.00
C566   C     0.52747   0.80418   0.09445   0.00000  Uiso   1.00
C567   C     0.46296   0.85079   0.45127   0.00000  Uiso   1.00
C568   C     0.52240   0.79702   0.04798   0.00000  Uiso   1.00
C569   C     0.49273   0.82400   0.47619   0.00000  Uiso   1.00
C570   C     0.49230   0.82340   0.02305   0.00000  Uiso   1.00
C571   C     0.52351   0.79874   0.45450   0.00000  Uiso   1.00
C572   C     0.46211   0.84960   0.04484   0.00000  Uiso   1.00
C573   C     0.42790   0.86746   0.47270   0.00000  Uiso   1.00
C574   C     0.54680   0.76445   0.02541   0.00000  Uiso   1.00
C575   C     0.42898   0.87045   0.01931   0.00000  Uiso   1.00
C576   C     0.54960   0.76750   0.47917   0.00000  Uiso   1.00
C577   C     0.35659   0.80640   0.28158   0.00000  Uiso   1.00
C578   C     0.64359   0.86219   0.21944   0.00000  Uiso   1.00
C579   C     0.64674   0.80480   0.27946   0.00000  Uiso   1.00
C580   C     0.35342   0.86293   0.22100   0.00000  Uiso   1.00
C581   C     0.62380   0.83279   0.24877   0.00000  Uiso   1.00
C582   C     0.37627   0.83458   0.25134   0.00000  Uiso   1.00
C583   C     0.46920   0.69153   0.22760   0.00000  Uiso   1.00
C584   C     0.53080   0.97513   0.27241   0.00000  Uiso   1.00
C585   C     0.53082   0.69063   0.27233   0.00000  Uiso   1.00
C586   C     0.46921   0.97603   0.22763   0.00000  Uiso   1.00
N587   N     0.50000   0.95069   0.25000   0.00000  Uiso   1.00
N588   N     0.50000   0.71598   0.25000   0.00000  Uiso   1.00
O589   O     0.55929   0.78300   0.38812   0.00000  Uiso   1.00
H590   H     0.56784   0.80281   0.36368   0.00000  Uiso   1.00
O591   O     0.43347   0.87482   0.11318   0.00000  Uiso   1.00
H592   H     0.42947   0.85927   0.14172   0.00000  Uiso   1.00
C593   C     0.44666   0.89953   0.38155   0.00000  Uiso   1.00
H594   H     0.46948   0.92278   0.36772   0.00000  Uiso   1.00
H595   H     0.42543   0.88627   0.35439   0.00000  Uiso   1.00
H596   H     0.42945   0.92267   0.40346   0.00000  Uiso   1.00
C597   C     0.56633   0.78791   0.12070   0.00000  Uiso   1.00
H598   H     0.57550   0.81284   0.14721   0.00000  Uiso   1.00
H599   H     0.56116   0.75412   0.13656   0.00000  Uiso   1.00
H600   H     0.59316   0.78559   0.09958   0.00000  Uiso   1.00
O601   O     0.39079   0.87671   0.44956   0.00000  Uiso   1.00
H602   H     0.38917   0.85706   0.42249   0.00000  Uiso   1.00
O603   O     0.56563   0.72714   0.04692   0.00000  Uiso   1.00
H604   H     0.54711   0.71672   0.06979   0.00000  Uiso   1.00
O605   O     0.39685   0.89148   0.04042   0.00000  Uiso   1.00
H606   H     0.37905   0.90941   0.01880   0.00000  Uiso   1.00
O607   O     0.57580   0.73819   0.45720   0.00000  Uiso   1.00
H608   H     0.59550   0.72267   0.47871   0.00000  Uiso   1.00
O609   O     0.37843   0.78108   0.31411   0.00000  Uiso   1.00
H610   H     0.40509   0.79610   0.32172   0.00000  Uiso   1.00
O611   O     0.62219   0.89024   0.18872   0.00000  Uiso   1.00
H612   H     0.59399   0.87885   0.18250   0.00000  Uiso   1.00
O613   O     0.62584   0.77836   0.30870   0.00000  Uiso   1.00
H614   H     0.64537   0.75925   0.32740   0.00000  Uiso   1.00
O615   O     0.37441   0.88966   0.19209   0.00000  Uiso   1.00
H616   H     0.35502   0.90848   0.17294   0.00000  Uiso   1.00
O617   O     0.43735   0.71312   0.20348   0.00000  Uiso   1.00
H618   H     0.44802   0.74146   0.19090   0.00000  Uiso   1.00
O619   O     0.56264   0.95354   0.29653   0.00000  Uiso   1.00
H620   H     0.55196   0.92521   0.30912   0.00000  Uiso   1.00
O621   O     0.56261   0.71129   0.29646   0.00000  Uiso   1.00
H622   H     0.55227   0.74087   0.30756   0.00000  Uiso   1.00
O623   O     0.43749   0.95537   0.20338   0.00000  Uiso   1.00
H624   H     0.44793   0.92590   0.19209   0.00000  Uiso   1.00
O625   O     0.77321   0.87291   0.24999   0.00000  Uiso   1.00
O626   O     0.89345   0.79375   0.25000   0.00000  Uiso   1.00
O627   O     0.89345   0.87291   0.25000   0.00000  Uiso   1.00
O628   O     0.77321   0.79375   0.24999   0.00000  Uiso   1.00
C629   C     0.75426   0.83368   0.25023   0.00000  Uiso   1.00
C630   C     0.91243   0.83309   0.24964   0.00000  Uiso   1.00
O631   O     0.83332   0.87293   0.18513   0.00000  Uiso   1.00
O632   O     0.83334   0.79373   0.31487   0.00000  Uiso   1.00
O633   O     0.83334   0.87293   0.31487   0.00000  Uiso   1.00
O634   O     0.83332   0.79373   0.18513   0.00000  Uiso   1.00
C635   C     0.83320   0.83301   0.16459   0.00000  Uiso   1.00
C636   C     0.83273   0.83357   0.33549   0.00000  Uiso   1.00
Cu637  Cu    0.83333   0.88022   0.25000   0.00000  Uiso   1.00
Cu638  Cu    0.83333   0.78645   0.25000   0.00000  Uiso   1.00
C639   C     0.86028   0.80438   0.40846   0.00000  Uiso   1.00
C640   C     0.79759   0.85186   0.09171   0.00000  Uiso   1.00
C641   C     0.83225   0.83361   0.38417   0.00000  Uiso   1.00
C642   C     0.83121   0.83097   0.11601   0.00000  Uiso   1.00
C643   C     0.80215   0.85962   0.40588   0.00000  Uiso   1.00
C644   C     0.86080   0.80418   0.09445   0.00000  Uiso   1.00
C645   C     0.79629   0.85079   0.45127   0.00000  Uiso   1.00
C646   C     0.85573   0.79702   0.04798   0.00000  Uiso   1.00
C647   C     0.82606   0.82400   0.47619   0.00000  Uiso   1.00
C648   C     0.82563   0.82340   0.02305   0.00000  Uiso   1.00
C649   C     0.85684   0.79874   0.45450   0.00000  Uiso   1.00
C650   C     0.79544   0.84960   0.04484   0.00000  Uiso   1.00
C651   C     0.76124   0.86746   0.47270   0.00000  Uiso   1.00
C652   C     0.88014   0.76445   0.02541   0.00000  Uiso   1.00
C653   C     0.76231   0.87045   0.01931   0.00000  Uiso   1.00
C654   C     0.88294   0.76750   0.47917   0.00000  Uiso   1.00
C655   C     0.68993   0.80640   0.28158   0.00000  Uiso   1.00
C656   C     0.97693   0.86219   0.21944   0.00000  Uiso   1.00
C657   C     0.98008   0.80480   0.27946   0.00000  Uiso   1.00
C658   C     0.68675   0.86293   0.22100   0.00000  Uiso   1.00
C659   C     0.95713   0.83279   0.24877   0.00000  Uiso   1.00
C660   C     0.70961   0.83458   0.25134   0.00000  Uiso   1.00
C661   C     0.80253   0.69153   0.22760   0.00000  Uiso   1.00
C662   C     0.86413   0.97513   0.27241   0.00000  Uiso   1.00
C663   C     0.86415   0.69063   0.27233   0.00000  Uiso   1.00
C664   C     0.80254   0.97603   0.22763   0.00000  Uiso   1.00
N665   N     0.83333   0.95069   0.25000   0.00000  Uiso   1.00
N666   N     0.83333   0.71598   0.25000   0.00000  Uiso   1.00
O667   O     0.89262   0.78300   0.38812   0.00000  Uiso   1.00
H668   H     0.90117   0.80281   0.36368   0.00000  Uiso   1.00
O669   O     0.76680   0.87482   0.11318   0.00000  Uiso   1.00
H670   H     0.76280   0.85927   0.14172   0.00000  Uiso   1.00
C671   C     0.77999   0.89953   0.38155   0.00000  Uiso   1.00
H672   H     0.80282   0.92278   0.36772   0.00000  Uiso   1.00
H673   H     0.75877   0.88627   0.35439   0.00000  Uiso   1.00
H674   H     0.76279   0.92267   0.40346   0.00000  Uiso   1.00
C675   C     0.89966   0.78791   0.12070   0.00000  Uiso   1.00
H676   H     0.90884   0.81284   0.14721   0.00000  Uiso   1.00
H677   H     0.89449   0.75412   0.13656   0.00000  Uiso   1.00
H678   H     0.92650   0.78559   0.09958   0.00000  Uiso   1.00
O679   O     0.72412   0.87671   0.44956   0.00000  Uiso   1.00
H680   H     0.72251   0.85706   0.42249   0.00000  Uiso   1.00
O681   O     0.89896   0.72714   0.04692   0.00000  Uiso   1.00
H682   H     0.88045   0.71672   0.06979   0.00000  Uiso   1.00
O683   O     0.73018   0.89148   0.04042   0.00000  Uiso   1.00
H684   H     0.71239   0.90941   0.01880   0.00000  Uiso   1.00
O685   O     0.90913   0.73819   0.45720   0.00000  Uiso   1.00
H686   H     0.92884   0.72267   0.47871   0.00000  Uiso   1.00
O687   O     0.71176   0.78108   0.31411   0.00000  Uiso   1.00
H688   H     0.73842   0.79610   0.32172   0.00000  Uiso   1.00
O689   O     0.95553   0.89024   0.18872   0.00000  Uiso   1.00
H690   H     0.92733   0.87885   0.18250   0.00000  Uiso   1.00
O691   O     0.95918   0.77836   0.30870   0.00000  Uiso   1.00
H692   H     0.97871   0.75925   0.32740   0.00000  Uiso   1.00
O693   O     0.70774   0.88966   0.19209   0.00000  Uiso   1.00
H694   H     0.68835   0.90848   0.17294   0.00000  Uiso   1.00
O695   O     0.77069   0.71312   0.20348   0.00000  Uiso   1.00
H696   H     0.78136   0.74146   0.19090   0.00000  Uiso   1.00
O697   O     0.89597   0.95354   0.29653   0.00000  Uiso   1.00
H698   H     0.88529   0.92521   0.30912   0.00000  Uiso   1.00
O699   O     0.89595   0.71129   0.29646   0.00000  Uiso   1.00
H700   H     0.88560   0.74087   0.30756   0.00000  Uiso   1.00
O701   O     0.77083   0.95537   0.20338   0.00000  Uiso   1.00
H702   H     0.78126   0.92590   0.19209   0.00000  Uiso   1.00
O703   O     0.10655   0.20625   0.74999   0.00000  Uiso   1.00
O704   O     0.22679   0.12709   0.75000   0.00000  Uiso   1.00
O705   O     0.22679   0.20625   0.75000   0.00000  Uiso   1.00
O706   O     0.10655   0.12709   0.74999   0.00000  Uiso   1.00
C707   C     0.08759   0.16701   0.75023   0.00000  Uiso   1.00
C708   C     0.24576   0.16643   0.74964   0.00000  Uiso   1.00
O709   O     0.16666   0.20627   0.68513   0.00000  Uiso   1.00
O710   O     0.16668   0.12707   0.81487   0.00000  Uiso   1.00
O711   O     0.16668   0.20627   0.81487   0.00000  Uiso   1.00
O712   O     0.16666   0.12707   0.68513   0.00000  Uiso   1.00
C713   C     0.16653   0.16634   0.66459   0.00000  Uiso   1.00
C714   C     0.16606   0.16691   0.83549   0.00000  Uiso   1.00
Cu715  Cu    0.16667   0.21355   0.75000   0.00000  Uiso   1.00
Cu716  Cu    0.16667   0.11978   0.75000   0.00000  Uiso   1.00
C717   C     0.19362   0.13772   0.90846   0.00000  Uiso   1.00
C718   C     0.13093   0.18519   0.59171   0.00000  Uiso   1.00
C719   C     0.16558   0.16694   0.88417   0.00000  Uiso   1.00
C720   C     0.16454   0.16430   0.61601   0.00000  Uiso   1.00
C721   C     0.13549   0.19295   0.90588   0.00000  Uiso   1.00
C722   C     0.19413   0.13752   0.59445   0.00000  Uiso   1.00
C723   C     0.12962   0.18412   0.95127   0.00000  Uiso   1.00
C724   C     0.18907   0.13035   0.54798   0.00000  Uiso   1.00
C725   C     0.15939   0.15734   0.97619   0.00000  Uiso   1.00
C726   C     0.15896   0.15673   0.52305   0.00000  Uiso   1.00
C727   C     0.19018   0.13207   0.95450   0.00000  Uiso   1.00
C728   C     0.12877   0.18293   0.54484   0.00000  Uiso   1.00
C729   C     0.09457   0.20080   0.97270   0.00000  Uiso   1.00
C730   C     0.21347   0.09779   0.52541   0.00000  Uiso   1.00
C731   C     0.09565   0.20378   0.51931   0.00000  Uiso   1.00
C732   C     0.21627   0.10083   0.97917   0.00000  Uiso   1.00
C733   C     0.02326   0.13973   0.78158   0.00000  Uiso   1.00
C734   C     0.31026   0.19552   0.71944   0.00000  Uiso   1.00
C735   C     0.31341   0.13814   0.77946   0.00000  Uiso   1.00
C736   C     0.02009   0.19626   0.72100   0.00000  Uiso   1.00
C737   C     0.29047   0.16613   0.74877   0.00000  Uiso   1.00
C738   C     0.04294   0.16792   0.75134   0.00000  Uiso   1.00
C739   C     0.13586   0.02487   0.72760   0.00000  Uiso   1.00
C740   C     0.19747   0.30846   0.77241   0.00000  Uiso   1.00
C741   C     0.19749   0.02397   0.77233   0.00000  Uiso   1.00
C742   C     0.13587   0.30936   0.72763   0.00000  Uiso   1.00
N743   N     0.16667   0.28402   0.75000   0.00000  Uiso   1.00
N744   N     0.16667   0.04931   0.75000   0.00000  Uiso   1.00
O745   O     0.22596   0.11633   0.88812   0.00000  Uiso   1.00
H746   H     0.23450   0.13614   0.86368   0.00000  Uiso   1.00
O747   O     0.10014   0.20815   0.61318   0.00000  Uiso   1.00
H748   H     0.09613   0.19260   0.64172   0.00000  Uiso   1.00
C749   C     0.11332   0.23286   0.88155   0.00000  Uiso   1.00
H750   H     0.13615   0.25612   0.86772   0.00000  Uiso   1.00
H751   H     0.09210   0.21960   0.85439   0.00000  Uiso   1.00
H752   H     0.09612   0.25600   0.90346   0.00000  Uiso   1.00
C753   C     0.23299   0.12124   0.62070   0.00000  Uiso   1.00
H754   H     0.24217   0.14617   0.64721   0.00000  Uiso   1.00
H755   H     0.22782   0.08745   0.63656   0.00000  Uiso   1.00
H756   H     0.25983   0.11892   0.59958   0.00000  Uiso   1.00
O757   O     0.05746   0.21005   0.94956   0.00000  Uiso   1.00
H758   H     0.05584   0.19039   0.92249   0.00000  Uiso   1.00
O759   O     0.23230   0.06047   0.54692   0.00000  Uiso   1.00
H760   H     0.21378   0.05006   0.56979   0.00000  Uiso   1.00
O761   O     0.06352   0.22482   0.54042   0.00000  Uiso   1.00
H762   H     0.04572   0.24275   0.51880   0.00000  Uiso   1.00
O763   O     0.24246   0.07153   0.95720   0.00000  Uiso   1.00
H764   H     0.26217   0.05601   0.97871   0.00000  Uiso   1.00
O765   O     0.04510   0.11441   0.81411   0.00000  Uiso   1.00
H766   H     0.07176   0.12943   0.82172   0.00000  Uiso   1.00
O767   O     0.28886   0.22357   0.68872   0.00000  Uiso   1.00
H768   H     0.26066   0.21219   0.68250   0.00000  Uiso   1.00
O769   O     0.29251   0.11169   0.80870   0.00000  Uiso   1.00
H770   H     0.31204   0.09259   0.82740   0.00000  Uiso   1.00
O771   O     0.04108   0.22300   0.69209   0.00000  Uiso   1.00
H772   H     0.02169   0.24182   0.67294   0.00000  Uiso   1.00
O773   O     0.10402   0.04645   0.70348   0.00000  Uiso   1.00
H774   H     0.11469   0.07480   0.69090   0.00000  Uiso   1.00
O775   O     0.22930   0.28688   0.79653   0.00000  Uiso   1.00
H776   H     0.21862   0.25854   0.80912   0.00000  Uiso   1.00
O777   O     0.22928   0.04463   0.79646   0.00000  Uiso   1.00
H778   H     0.21893   0.07421   0.80756   0.00000  Uiso   1.00
O779   O     0.10416   0.28870   0.70338   0.00000  Uiso   1.00
H780   H     0.11460   0.25924   0.69209   0.00000  Uiso   1.00
O781   O     0.43988   0.20625   0.74999   0.00000  Uiso   1.00
O782   O     0.56012   0.12709   0.75000   0.00000  Uiso   1.00
O783   O     0.56012   0.20625   0.75000   0.00000  Uiso   1.00
O784   O     0.43988   0.12709   0.74999   0.00000  Uiso   1.00
C785   C     0.42092   0.16701   0.75023   0.00000  Uiso   1.00
C786   C     0.57909   0.16643   0.74964   0.00000  Uiso   1.00
O787   O     0.49999   0.20627   0.68513   0.00000  Uiso   1.00
O788   O     0.50001   0.12707   0.81487   0.00000  Uiso   1.00
O789   O     0.50001   0.20627   0.81487   0.00000  Uiso   1.00
O790   O     0.49999   0.12707   0.68513   0.00000  Uiso   1.00
C791   C     0.49986   0.16634   0.66459   0.00000  Uiso   1.00
C792   C     0.49939   0.16691   0.83549   0.00000  Uiso   1.00
Cu793  Cu    0.50000   0.21355   0.75000   0.00000  Uiso   1.00
Cu794  Cu    0.50000   0.11978   0.75000   0.00000  Uiso   1.00
C795   C     0.52695   0.13772   0.90846   0.00000  Uiso   1.00
C796   C     0.46426   0.18519   0.59171   0.00000  Uiso   1.00
C797   C     0.49892   0.16694   0.88417   0.00000  Uiso   1.00
C798   C     0.49788   0.16430   0.61601   0.00000  Uiso   1.00
C799   C     0.46882   0.19295   0.90588   0.00000  Uiso   1.00
C800   C     0.52747   0.13752   0.59445   0.00000  Uiso   1.00
C801   C     0.46296   0.18412   0.95127   0.00000  Uiso   1.00
C802   C     0.52240   0.13035   0.54798   0.00000  Uiso   1.00
C803   C     0.49273   0.15734   0.97619   0.00000  Uiso   1.00
C804   C     0.49230   0.15673   0.52305   0.00000  Uiso   1.00
C805   C     0.52351   0.13207   0.95450   0.00000  Uiso   1.00
C806   C     0.46211   0.18293   0.54484   0.00000  Uiso   1.00
C807   C     0.42790   0.20080   0.97270   0.00000  Uiso   1.00
C808   C     0.54680   0.09779   0.52541   0.00000  Uiso   1.00
C809   C     0.42898   0.20378   0.51931   0.00000  Uiso   1.00
C810   C     0.54960   0.10083   0.97917   0.00000  Uiso   1.00
C811   C     0.35659   0.13973   0.78158   0.00000  Uiso   1.00
C812   C     0.64359   0.19552   0.71944   0.00000  Uiso   1.00
C813   C     0.64674   0.13814   0.77946   0.00000  Uiso   1.00
C814   C     0.35342   0.19626   0.72100   0.00000  Uiso   1.00
C815   C     0.62380   0.16613   0.74877   0.00000  Uiso   1.00
C816   C     0.37627   0.16792   0.75134   0.00000  Uiso   1.00
C817   C     0.46920   0.02487   0.72760   0.00000  Uiso   1.00
C818   C     0.53080   0.30846   0.77241   0.00000  Uiso   1.00
C819   C     0.53082   0.02397   0.77233   0.00000  Uiso   1.00
C820   C     0.46921   0.30936   0.72763   0.00000  Uiso   1.00
N821   N     0.50000   0.28402   0.75000   0.00000  Uiso   1.00
N822   N     0.50000   0.04931   0.75000   0.00000  Uiso   1.00
O823   O     0.55929   0.11633   0.88812   0.00000  Uiso   1.00
H824   H     0.56784   0.13614   0.86368   0.00000  Uiso   1.00
O825   O     0.43347   0.20815   0.61318   0.00000  Uiso   1.00
H826   H     0.42947   0.19260   0.64172   0.00000  Uiso   1.00
C827   C     0.44666   0.23286   0.88155   0.00000  Uiso   1.00
H828   H     0.46948   0.25612   0.86772   0.00000  Uiso   1.00
H829   H     0.42543   0.21960   0.85439   0.00000  Uiso   1.00
H830   H     0.42945   0.25600   0.90346   0.00000  Uiso   1.00
C831   C     0.56633   0.12124   0.62070   0.00000  Uiso   1.00
H832   H     0.57550   0.14617   0.64721   0.00000  Uiso   1.00
H833   H     0.56116   0.08745   0.63656   0.00000  Uiso   1.00
H834   H     0.59316   0.11892   0.59958   0.00000  Uiso   1.00
O835   O     0.39079   0.21005   0.94956   0.00000  Uiso   1.00
H836   H     0.38917   0.19039   0.92249   0.00000  Uiso   1.00
O837   O     0.56563   0.06047   0.54692   0.00000  Uiso   1.00
H838   H     0.54711   0.05006   0.56979   0.00000  Uiso   1.00
O839   O     0.39685   0.22482   0.54042   0.00000  Uiso   1.00
H840   H     0.37905   0.24275   0.51880   0.00000  Uiso   1.00
O841   O     0.57580   0.07153   0.95720   0.00000  Uiso   1.00
H842   H     0.59550   0.05601   0.97871   0.00000  Uiso   1.00
O843   O     0.37843   0.11441   0.81411   0.00000  Uiso   1.00
H844   H     0.40509   0.12943   0.82172   0.00000  Uiso   1.00
O845   O     0.62219   0.22357   0.68872   0.00000  Uiso   1.00
H846   H     0.59399   0.21219   0.68250   0.00000  Uiso   1.00
O847   O     0.62584   0.11169   0.80870   0.00000  Uiso   1.00
H848   H     0.64537   0.09259   0.82740   0.00000  Uiso   1.00
O849   O     0.37441   0.22300   0.69209   0.00000  Uiso   1.00
H850   H     0.35502   0.24182   0.67294   0.00000  Uiso   1.00
O851   O     0.43735   0.04645   0.70348   0.00000  Uiso   1.00
H852   H     0.44802   0.07480   0.69090   0.00000  Uiso   1.00
O853   O     0.56264   0.28688   0.79653   0.00000  Uiso   1.00
H854   H     0.55196   0.25854   0.80912   0.00000  Uiso   1.00
O855   O     0.56261   0.04463   0.79646   0.00000  Uiso   1.00
H856   H     0.55227   0.07421   0.80756   0.00000  Uiso   1.00
O857   O     0.43749   0.28870   0.70338   0.00000  Uiso   1.00
H858   H     0.44793   0.25924   0.69209   0.00000  Uiso   1.00
O859   O     0.77321   0.20625   0.74999   0.00000  Uiso   1.00
O860   O     0.89345   0.12709   0.75000   0.00000  Uiso   1.00
O861   O     0.89345   0.20625   0.75000   0.00000  Uiso   1.00
O862   O     0.77321   0.12709   0.74999   0.00000  Uiso   1.00
C863   C     0.75426   0.16701   0.75023   0.00000  Uiso   1.00
C864   C     0.91243   0.16643   0.74964   0.00000  Uiso   1.00
O865   O     0.83332   0.20627   0.68513   0.00000  Uiso   1.00
O866   O     0.83334   0.12707   0.81487   0.00000  Uiso   1.00
O867   O     0.83334   0.20627   0.81487   0.00000  Uiso   1.00
O868   O     0.83332   0.12707   0.68513   0.00000  Uiso   1.00
C869   C     0.83320   0.16634   0.66459   0.00000  Uiso   1.00
C870   C     0.83273   0.16691   0.83549   0.00000  Uiso   1.00
Cu871  Cu    0.83333   0.21355   0.75000   0.00000  Uiso   1.00
Cu872  Cu    0.83333   0.11978   0.75000   0.00000  Uiso   1.00
C873   C     0.86028   0.13772   0.90846   0.00000  Uiso   1.00
C874   C     0.79759   0.18519   0.59171   0.00000  Uiso   1.00
C875   C     0.83225   0.16694   0.88417   0.00000  Uiso   1.00
C876   C     0.83121   0.16430   0.61601   0.00000  Uiso   1.00
C877   C     0.80215   0.19295   0.90588   0.00000  Uiso   1.00
C878   C     0.86080   0.13752   0.59445   0.00000  Uiso   1.00
C879   C     0.79629   0.18412   0.95127   0.00000  Uiso   1.00
C880   C     0.85573   0.13035   0.54798   0.00000  Uiso   1.00
C881   C     0.82606   0.15734   0.97619   0.00000  Uiso   1.00
C882   C     0.82563   0.15673   0.52305   0.00000  Uiso   1.00
C883   C     0.85684   0.13207   0.95450   0.00000  Uiso   1.00
C884   C     0.79544   0.18293   0.54484   0.00000  Uiso   1.00
C885   C     0.76124   0.20080   0.97270   0.00000  Uiso   1.00
C886   C     0.88014   0.09779   0.52541   0.00000  Uiso   1.00
C887   C     0.76231   0.20378   0.51931   0.00000  Uiso   1.00
C888   C     0.88294   0.10083   0.97917   0.00000  Uiso   1.00
C889   C     0.68993   0.13973   0.78158   0.00000  Uiso   1.00
C890   C     0.97693   0.19552   0.71944   0.00000  Uiso   1.00
C891   C     0.98008   0.13814   0.77946   0.00000  Uiso   1.00
C892   C     0.68675   0.19626   0.72100   0.00000  Uiso   1.00
C893   C     0.95713   0.16613   0.74877   0.00000  Uiso   1.00
C894   C     0.70961   0.16792   0.75134   0.00000  Uiso   1.00
C895   C     0.80253   0.02487   0.72760   0.00000  Uiso   1.00
C896   C     0.86413   0.30846   0.77241   0.00000  Uiso   1.00
C897   C     0.86415   0.02397   0.77233   0.00000  Uiso   1.00
C898   C     0.80254   0.30936   0.72763   0.00000  Uiso   1.00
N899   N     0.83333   0.28402   0.75000   0.00000  Uiso   1.00
N900   N     0.83333   0.04931   0.75000   0.00000  Uiso   1.00
O901   O     0.89262   0.11633   0.88812   0.00000  Uiso   1.00
H902   H     0.90117   0.13614   0.86368   0.00000  Uiso   1.00
O903   O     0.76680   0.20815   0.61318   0.00000  Uiso   1.00
H904   H     0.76280   0.19260   0.64172   0.00000  Uiso   1.00
C905   C     0.77999   0.23286   0.88155   0.00000  Uiso   1.00
H906   H     0.80282   0.25612   0.86772   0.00000  Uiso   1.00
H907   H     0.75877   0.21960   0.85439   0.00000  Uiso   1.00
H908   H     0.76279   0.25600   0.90346   0.00000  Uiso   1.00
C909   C     0.89966   0.12124   0.62070   0.00000  Uiso   1.00
H910   H     0.90884   0.14617   0.64721   0.00000  Uiso   1.00
H911   H     0.89449   0.08745   0.63656   0.00000  Uiso   1.00
H912   H     0.92650   0.11892   0.59958   0.00000  Uiso   1.00
O913   O     0.72412   0.21005   0.94956   0.00000  Uiso   1.00
H914   H     0.72251   0.19039   0.92249   0.00000  Uiso   1.00
O915   O     0.89896   0.06047   0.54692   0.00000  Uiso   1.00
H916   H     0.88045   0.05006   0.56979   0.00000  Uiso   1.00
O917   O     0.73018   0.22482   0.54042   0.00000  Uiso   1.00
H918   H     0.71239   0.24275   0.51880   0.00000  Uiso   1.00
O919   O     0.90913   0.07153   0.95720   0.00000  Uiso   1.00
H920   H     0.92884   0.05601   0.97871   0.00000  Uiso   1.00
O921   O     0.71176   0.11441   0.81411   0.00000  Uiso   1.00
H922   H     0.73842   0.12943   0.82172   0.00000  Uiso   1.00
O923   O     0.95553   0.22357   0.68872   0.00000  Uiso   1.00
H924   H     0.92733   0.21219   0.68250   0.00000  Uiso   1.00
O925   O     0.95918   0.11169   0.80870   0.00000  Uiso   1.00
H926   H     0.97871   0.09259   0.82740   0.00000  Uiso   1.00
O927   O     0.70774   0.22300   0.69209   0.00000  Uiso   1.00
H928   H     0.68835   0.24182   0.67294   0.00000  Uiso   1.00
O929   O     0.77069   0.04645   0.70348   0.00000  Uiso   1.00
H930   H     0.78136   0.07480   0.69090   0.00000  Uiso   1.00
O931   O     0.89597   0.28688   0.79653   0.00000  Uiso   1.00
H932   H     0.88529   0.25854   0.80912   0.00000  Uiso   1.00
O933   O     0.89595   0.04463   0.79646   0.00000  Uiso   1.00
H934   H     0.88560   0.07421   0.80756   0.00000  Uiso   1.00
O935   O     0.77083   0.28870   0.70338   0.00000  Uiso   1.00
H936   H     0.78126   0.25924   0.69209   0.00000  Uiso   1.00
O937   O     0.10655   0.53958   0.74999   0.00000  Uiso   1.00
O938   O     0.22679   0.46042   0.75000   0.00000  Uiso   1.00
O939   O     0.22679   0.53958   0.75000   0.00000  Uiso   1.00
O940   O     0.10655   0.46042   0.74999   0.00000  Uiso   1.00
C941   C     0.08759   0.50035   0.75023   0.00000  Uiso   1.00
C942   C     0.24576   0.49976   0.74964   0.00000  Uiso   1.00
O943   O     0.16666   0.53960   0.68513   0.00000  Uiso   1.00
O944   O     0.16668   0.46040   0.81487   0.00000  Uiso   1.00
O945   O     0.16668   0.53960   0.81487   0.00000  Uiso   1.00
O946   O     0.16666   0.46040   0.68513   0.00000  Uiso   1.00
C947   C     0.16653   0.49967   0.66459   0.00000  Uiso   1.00
C948   C     0.16606   0.50024   0.83549   0.00000  Uiso   1.00
Cu949  Cu    0.16667   0.54689   0.75000   0.00000  Uiso   1.00
Cu950  Cu    0.16667   0.45311   0.75000   0.00000  Uiso   1.00
C951   C     0.19362   0.47105   0.90846   0.00000  Uiso   1.00
C952   C     0.13093   0.51852   0.59171   0.00000  Uiso   1.00
C953   C     0.16558   0.50028   0.88417   0.00000  Uiso   1.00
C954   C     0.16454   0.49764   0.61601   0.00000  Uiso   1.00
C955   C     0.13549   0.52628   0.90588   0.00000  Uiso   1.00
C956   C     0.19413   0.47085   0.59445   0.00000  Uiso   1.00
C957   C     0.12962   0.51746   0.95127   0.00000  Uiso   1.00
C958   C     0.18907   0.46369   0.54798   0.00000  Uiso   1.00
C959   C     0.15939   0.49067   0.97619   0.00000  Uiso   1.00
C960   C     0.15896   0.49007   0.52305   0.00000  Uiso   1.00
C961   C     0.19018   0.46541   0.95450   0.00000  Uiso   1.00
C962   C     0.12877   0.51627   0.54484   0.00000  Uiso   1.00
C963   C     0.09457   0.53413   0.97270   0.00000  Uiso   1.00
C964   C     0.21347   0.43112   0.52541   0.00000  Uiso   1.00
C965   C     0.09565   0.53712   0.51931   0.00000  Uiso   1.00
C966   C     0.21627   0.43416   0.97917   0.00000  Uiso   1.00
C967   C     0.02326   0.47306   0.78158   0.00000  Uiso   1.00
C968   C     0.31026   0.52885   0.71944   0.00000  Uiso   1.00
C969   C     0.31341   0.47147   0.77946   0.00000  Uiso   1.00
C970   C     0.02009   0.52959   0.72100   0.00000  Uiso   1.00
C971   C     0.29047   0.49946   0.74877   0.00000  Uiso   1.00
C972   C     0.04294   0.50125   0.75134   0.00000  Uiso   1.00
C973   C     0.13586   0.35820   0.72760   0.00000  Uiso   1.00
C974   C     0.19747   0.64180   0.77241   0.00000  Uiso   1.00
C975   C     0.19749   0.35730   0.77233   0.00000  Uiso   1.00
C976   C     0.13587   0.64270   0.72763   0.00000  Uiso   1.00
N977   N     0.16667   0.61736   0.75000   0.00000  Uiso   1.00
N978   N     0.16667   0.38264   0.75000   0.00000  Uiso   1.00
O979   O     0.22596   0.44966   0.88812   0.00000  Uiso   1.00
H980   H     0.23450   0.46947   0.86368   0.00000  Uiso   1.00
O981   O     0.10014   0.54148   0.61318   0.00000  Uiso   1.00
H982   H     0.09613   0.52593   0.64172   0.00000  Uiso   1.00
C983   C     0.11332   0.56620   0.88155   0.00000  Uiso   1.00
H984   H     0.13615   0.58945   0.86772   0.00000  Uiso   1.00
H985   H     0.09210   0.55293   0.85439   0.00000  Uiso   1.00
H986   H     0.09612   0.58934   0.90346   0.00000  Uiso   1.00
C987   C     0.23299   0.45457   0.62070   0.00000  Uiso   1.00
H988   H     0.24217   0.47950   0.64721   0.00000  Uiso   1.00
H989   H     0.22782   0.42079   0.63656   0.00000  Uiso   1.00
H990   H     0.25983   0.45226   0.59958   0.00000  Uiso   1.00
O991   O     0.05746   0.54338   0.94956   0.00000  Uiso   1.00
H992   H     0.05584   0.52372   0.92249   0.00000  Uiso   1.00
O993   O     0.23230   0.39380   0.54692   0.00000  Uiso   1.00
H994   H     0.21378   0.38339   0.56979   0.00000  Uiso   1.00
O995   O     0.06352   0.55815   0.54042   0.00000  Uiso   1.00
H996   H     0.04572   0.57608   0.51880   0.00000  Uiso   1.00
O997   O     0.24246   0.40486   0.95720   0.00000  Uiso   1.00
H998   H     0.26217   0.38934   0.97871   0.00000  Uiso   1.00
O999   O     0.04510   0.44775   0.81411   0.00000  Uiso   1.00
H1000  H     0.07176   0.46276   0.82172   0.00000  Uiso   1.00
O1001  O     0.28886   0.55690   0.68872   0.00000  Uiso   1.00
H1002  H     0.26066   0.54552   0.68250   0.00000  Uiso   1.00
O1003  O     0.29251   0.44503   0.80870   0.00000  Uiso   1.00
H1004  H     0.31204   0.42592   0.82740   0.00000  Uiso   1.00
O1005  O     0.04108   0.55633   0.69209   0.00000  Uiso   1.00
H1006  H     0.02169   0.57515   0.67294   0.00000  Uiso   1.00
O1007  O     0.10402   0.37979   0.70348   0.00000  Uiso   1.00
H1008  H     0.11469   0.40813   0.69090   0.00000  Uiso   1.00
O1009  O     0.22930   0.62021   0.79653   0.00000  Uiso   1.00
H1010  H     0.21862   0.59187   0.80912   0.00000  Uiso   1.00
O1011  O     0.22928   0.37796   0.79646   0.00000  Uiso   1.00
H1012  H     0.21893   0.40754   0.80756   0.00000  Uiso   1.00
O1013  O     0.10416   0.62204   0.70338   0.00000  Uiso   1.00
H1014  H     0.11460   0.59257   0.69209   0.00000  Uiso   1.00
O1015  O     0.43988   0.53958   0.74999   0.00000  Uiso   1.00
O1016  O     0.56012   0.46042   0.75000   0.00000  Uiso   1.00
O1017  O     0.56012   0.53958   0.75000   0.00000  Uiso   1.00
O1018  O     0.43988   0.46042   0.74999   0.00000  Uiso   1.00
C1019  C     0.42092   0.50035   0.75023   0.00000  Uiso   1.00
C1020  C     0.57909   0.49976   0.74964   0.00000  Uiso   1.00
O1021  O     0.49999   0.53960   0.68513   0.00000  Uiso   1.00
O1022  O     0.50001   0.46040   0.81487   0.00000  Uiso   1.00
O1023  O     0.50001   0.53960   0.81487   0.00000  Uiso   1.00
O1024  O     0.49999   0.46040   0.68513   0.00000  Uiso   1.00
C1025  C     0.49986   0.49967   0.66459   0.00000  Uiso   1.00
C1026  C     0.49939   0.50024   0.83549   0.00000  Uiso   1.00
Cu1027 Cu    0.50000   0.54689   0.75000   0.00000  Uiso   1.00
Cu1028 Cu    0.50000   0.45311   0.75000   0.00000  Uiso   1.00
C1029  C     0.52695   0.47105   0.90846   0.00000  Uiso   1.00
C1030  C     0.46426   0.51852   0.59171   0.00000  Uiso   1.00
C1031  C     0.49892   0.50028   0.88417   0.00000  Uiso   1.00
C1032  C     0.49788   0.49764   0.61601   0.00000  Uiso   1.00
C1033  C     0.46882   0.52628   0.90588   0.00000  Uiso   1.00
C1034  C     0.52747   0.47085   0.59445   0.00000  Uiso   1.00
C1035  C     0.46296   0.51746   0.95127   0.00000  Uiso   1.00
C1036  C     0.52240   0.46369   0.54798   0.00000  Uiso   1.00
C1037  C     0.49273   0.49067   0.97619   0.00000  Uiso   1.00
C1038  C     0.49230   0.49007   0.52305   0.00000  Uiso   1.00
C1039  C     0.52351   0.46541   0.95450   0.00000  Uiso   1.00
C1040  C     0.46211   0.51627   0.54484   0.00000  Uiso   1.00
C1041  C     0.42790   0.53413   0.97270   0.00000  Uiso   1.00
C1042  C     0.54680   0.43112   0.52541   0.00000  Uiso   1.00
C1043  C     0.42898   0.53712   0.51931   0.00000  Uiso   1.00
C1044  C     0.54960   0.43416   0.97917   0.00000  Uiso   1.00
C1045  C     0.35659   0.47306   0.78158   0.00000  Uiso   1.00
C1046  C     0.64359   0.52885   0.71944   0.00000  Uiso   1.00
C1047  C     0.64674   0.47147   0.77946   0.00000  Uiso   1.00
C1048  C     0.35342   0.52959   0.72100   0.00000  Uiso   1.00
C1049  C     0.62380   0.49946   0.74877   0.00000  Uiso   1.00
C1050  C     0.37627   0.50125   0.75134   0.00000  Uiso   1.00
C1051  C     0.46920   0.35820   0.72760   0.00000  Uiso   1.00
C1052  C     0.53080   0.64180   0.77241   0.00000  Uiso   1.00
C1053  C     0.53082   0.35730   0.77233   0.00000  Uiso   1.00
C1054  C     0.46921   0.64270   0.72763   0.00000  Uiso   1.00
N1055  N     0.50000   0.61736   0.75000   0.00000  Uiso   1.00
N1056  N     0.50000   0.38264   0.75000   0.00000  Uiso   1.00
O1057  O     0.55929   0.44966   0.88812   0.00000  Uiso   1.00
H1058  H     0.56784   0.46947   0.86368   0.00000  Uiso   1.00
O1059  O     0.43347   0.54148   0.61318   0.00000  Uiso   1.00
H1060  H     0.42947   0.52593   0.64172   0.00000  Uiso   1.00
C1061  C     0.44666   0.56620   0.88155   0.00000  Uiso   1.00
H1062  H     0.46948   0.58945   0.86772   0.00000  Uiso   1.00
H1063  H     0.42543   0.55293   0.85439   0.00000  Uiso   1.00
H1064  H     0.42945   0.58934   0.90346   0.00000  Uiso   1.00
C1065  C     0.56633   0.45457   0.62070   0.00000  Uiso   1.00
H1066  H     0.57550   0.47950   0.64721   0.00000  Uiso   1.00
H1067  H     0.56116   0.42079   0.63656   0.00000  Uiso   1.00
H1068  H     0.59316   0.45226   0.59958   0.00000  Uiso   1.00
O1069  O     0.39079   0.54338   0.94956   0.00000  Uiso   1.00
H1070  H     0.38917   0.52372   0.92249   0.00000  Uiso   1.00
O1071  O     0.56563   0.39380   0.54692   0.00000  Uiso   1.00
H1072  H     0.54711   0.38339   0.56979   0.00000  Uiso   1.00
O1073  O     0.39685   0.55815   0.54042   0.00000  Uiso   1.00
H1074  H     0.37905   0.57608   0.51880   0.00000  Uiso   1.00
O1075  O     0.57580   0.40486   0.95720   0.00000  Uiso   1.00
H1076  H     0.59550   0.38934   0.97871   0.00000  Uiso   1.00
O1077  O     0.37843   0.44775   0.81411   0.00000  Uiso   1.00
H1078  H     0.40509   0.46276   0.82172   0.00000  Uiso   1.00
O1079  O     0.62219   0.55690   0.68872   0.00000  Uiso   1.00
H1080  H     0.59399   0.54552   0.68250   0.00000  Uiso   1.00
O1081  O     0.62584   0.44503   0.80870   0.00000  Uiso   1.00
H1082  H     0.64537   0.42592   0.82740   0.00000  Uiso   1.00
O1083  O     0.37441   0.55633   0.69209   0.00000  Uiso   1.00
H1084  H     0.35502   0.57515   0.67294   0.00000  Uiso   1.00
O1085  O     0.43735   0.37979   0.70348   0.00000  Uiso   1.00
H1086  H     0.44802   0.40813   0.69090   0.00000  Uiso   1.00
O1087  O     0.56264   0.62021   0.79653   0.00000  Uiso   1.00
H1088  H     0.55196   0.59187   0.80912   0.00000  Uiso   1.00
O1089  O     0.56261   0.37796   0.79646   0.00000  Uiso   1.00
H1090  H     0.55227   0.40754   0.80756   0.00000  Uiso   1.00
O1091  O     0.43749   0.62204   0.70338   0.00000  Uiso   1.00
H1092  H     0.44793   0.59257   0.69209   0.00000  Uiso   1.00
O1093  O     0.77321   0.53958   0.74999   0.00000  Uiso   1.00
O1094  O     0.89345   0.46042   0.75000   0.00000  Uiso   1.00
O1095  O     0.89345   0.53958   0.75000   0.00000  Uiso   1.00
O1096  O     0.77321   0.46042   0.74999   0.00000  Uiso   1.00
C1097  C     0.75426   0.50035   0.75023   0.00000  Uiso   1.00
C1098  C     0.91243   0.49976   0.74964   0.00000  Uiso   1.00
O1099  O     0.83332   0.53960   0.68513   0.00000  Uiso   1.00
O1100  O     0.83334   0.46040   0.81487   0.00000  Uiso   1.00
O1101  O     0.83334   0.53960   0.81487   0.00000  Uiso   1.00
O1102  O     0.83332   0.46040   0.68513   0.00000  Uiso   1.00
C1103  C     0.83320   0.49967   0.66459   0.00000  Uiso   1.00
C1104  C     0.83273   0.50024   0.83549   0.00000  Uiso   1.00
Cu1105 Cu    0.83333   0.54689   0.75000   0.00000  Uiso   1.00
Cu1106 Cu    0.83333   0.45311   0.75000   0.00000  Uiso   1.00
C1107  C     0.86028   0.47105   0.90846   0.00000  Uiso   1.00
C1108  C     0.79759   0.51852   0.59171   0.00000  Uiso   1.00
C1109  C     0.83225   0.50028   0.88417   0.00000  Uiso   1.00
C1110  C     0.83121   0.49764   0.61601   0.00000  Uiso   1.00
C1111  C     0.80215   0.52628   0.90588   0.00000  Uiso   1.00
C1112  C     0.86080   0.47085   0.59445   0.00000  Uiso   1.00
C1113  C     0.79629   0.51746   0.95127   0.00000  Uiso   1.00
C1114  C     0.85573   0.46369   0.54798   0.00000  Uiso   1.00
C1115  C     0.82606   0.49067   0.97619   0.00000  Uiso   1.00
C1116  C     0.82563   0.49007   0.52305   0.00000  Uiso   1.00
C1117  C     0.85684   0.46541   0.95450   0.00000  Uiso   1.00
C1118  C     0.79544   0.51627   0.54484   0.00000  Uiso   1.00
C1119  C     0.76124   0.53413   0.97270   0.00000  Uiso   1.00
C1120  C     0.88014   0.43112   0.52541   0.00000  Uiso   1.00
C1121  C     0.76231   0.53712   0.51931   0.00000  Uiso   1.00
C1122  C     0.88294   0.43416   0.97917   0.00000  Uiso   1.00
C1123  C     0.68993   0.47306   0.78158   0.00000  Uiso   1.00
C1124  C     0.97693   0.52885   0.71944   0.00000  Uiso   1.00
C1125  C     0.98008   0.47147   0.77946   0.00000  Uiso   1.00
C1126  C     0.68675   0.52959   0.72100   0.00000  Uiso   1.00
C1127  C     0.95713   0.49946   0.74877   0.00000  Uiso   1.00
C1128  C     0.70961   0.50125   0.75134   0.00000  Uiso   1.00
C1129  C     0.80253   0.35820   0.72760   0.00000  Uiso   1.00
C1130  C     0.86413   0.64180   0.77241   0.00000  Uiso   1.00
C1131  C     0.86415   0.35730   0.77233   0.00000  Uiso   1.00
C1132  C     0.80254   0.64270   0.72763   0.00000  Uiso   1.00
N1133  N     0.83333   0.61736   0.75000   0.00000  Uiso   1.00
N1134  N     0.83333   0.38264   0.75000   0.00000  Uiso   1.00
O1135  O     0.89262   0.44966   0.88812   0.00000  Uiso   1.00
H1136  H     0.90117   0.46947   0.86368   0.00000  Uiso   1.00
O1137  O     0.76680   0.54148   0.61318   0.00000  Uiso   1.00
H1138  H     0.76280   0.52593   0.64172   0.00000  Uiso   1.00
C1139  C     0.77999   0.56620   0.88155   0.00000  Uiso   1.00
H1140  H     0.80282   0.58945   0.86772   0.00000  Uiso   1.00
H1141  H     0.75877   0.55293   0.85439   0.00000  Uiso   1.00
H1142  H     0.76279   0.58934   0.90346   0.00000  Uiso   1.00
C1143  C     0.89966   0.45457   0.62070   0.00000  Uiso   1.00
H1144  H     0.90884   0.47950   0.64721   0.00000  Uiso   1.00
H1145  H     0.89449   0.42079   0.63656   0.00000  Uiso   1.00
H1146  H     0.92650   0.45226   0.59958   0.00000  Uiso   1.00
O1147  O     0.72412   0.54338   0.94956   0.00000  Uiso   1.00
H1148  H     0.72251   0.52372   0.92249   0.00000  Uiso   1.00
O1149  O     0.89896   0.39380   0.54692   0.00000  Uiso   1.00
H1150  H     0.88045   0.38339   0.56979   0.00000  Uiso   1.00
O1151  O     0.73018   0.55815   0.54042   0.00000  Uiso   1.00
H1152  H     0.71239   0.57608   0.51880   0.00000  Uiso   1.00
O1153  O     0.90913   0.40486   0.95720   0.00000  Uiso   1.00
H1154  H     0.92884   0.38934   0.97871   0.00000  Uiso   1.00
O1155  O     0.71176   0.44775   0.81411   0.00000  Uiso   1.00
H1156  H     0.73842   0.46276   0.82172   0.00000  Uiso   1.00
O1157  O     0.95553   0.55690   0.68872   0.00000  Uiso   1.00
H1158  H     0.92733   0.54552   0.68250   0.00000  Uiso   1.00
O1159  O     0.95918   0.44503   0.80870   0.00000  Uiso   1.00
H1160  H     0.97871   0.42592   0.82740   0.00000  Uiso   1.00
O1161  O     0.70774   0.55633   0.69209   0.00000  Uiso   1.00
H1162  H     0.68835   0.57515   0.67294   0.00000  Uiso   1.00
O1163  O     0.77069   0.37979   0.70348   0.00000  Uiso   1.00
H1164  H     0.78136   0.40813   0.69090   0.00000  Uiso   1.00
O1165  O     0.89597   0.62021   0.79653   0.00000  Uiso   1.00
H1166  H     0.88529   0.59187   0.80912   0.00000  Uiso   1.00
O1167  O     0.89595   0.37796   0.79646   0.00000  Uiso   1.00
H1168  H     0.88560   0.40754   0.80756   0.00000  Uiso   1.00
O1169  O     0.77083   0.62204   0.70338   0.00000  Uiso   1.00
H1170  H     0.78126   0.59257   0.69209   0.00000  Uiso   1.00
O1171  O     0.10655   0.87291   0.74999   0.00000  Uiso   1.00
O1172  O     0.22679   0.79375   0.75000   0.00000  Uiso   1.00
O1173  O     0.22679   0.87291   0.75000   0.00000  Uiso   1.00
O1174  O     0.10655   0.79375   0.74999   0.00000  Uiso   1.00
C1175  C     0.08759   0.83368   0.75023   0.00000  Uiso   1.00
C1176  C     0.24576   0.83309   0.74964   0.00000  Uiso   1.00
O1177  O     0.16666   0.87293   0.68513   0.00000  Uiso   1.00
O1178  O     0.16668   0.79373   0.81487   0.00000  Uiso   1.00
O1179  O     0.16668   0.87293   0.81487   0.00000  Uiso   1.00
O1180  O     0.16666   0.79373   0.68513   0.00000  Uiso   1.00
C1181  C     0.16653   0.83301   0.66459   0.00000  Uiso   1.00
C1182  C     0.16606   0.83357   0.83549   0.00000  Uiso   1.00
Cu1183 Cu    0.16667   0.88022   0.75000   0.00000  Uiso   1.00
Cu1184 Cu    0.16667   0.78645   0.75000   0.00000  Uiso   1.00
C1185  C     0.19362   0.80438   0.90846   0.00000  Uiso   1.00
C1186  C     0.13093   0.85186   0.59171   0.00000  Uiso   1.00
C1187  C     0.16558   0.83361   0.88417   0.00000  Uiso   1.00
C1188  C     0.16454   0.83097   0.61601   0.00000  Uiso   1.00
C1189  C     0.13549   0.85962   0.90588   0.00000  Uiso   1.00
C1190  C     0.19413   0.80418   0.59445   0.00000  Uiso   1.00
C1191  C     0.12962   0.85079   0.95127   0.00000  Uiso   1.00
C1192  C     0.18907   0.79702   0.54798   0.00000  Uiso   1.00
C1193  C     0.15939   0.82400   0.97619   0.00000  Uiso   1.00
C1194  C     0.15896   0.82340   0.52305   0.00000  Uiso   1.00
C1195  C     0.19018   0.79874   0.95450   0.00000  Uiso   1.00
C1196  C     0.12877   0.84960   0.54484   0.00000  Uiso   1.00
C1197  C     0.09457   0.86746   0.97270   0.00000  Uiso   1.00
C1198  C     0.21347   0.76445   0.52541   0.00000  Uiso   1.00
C1199  C     0.09565   0.87045   0.51931   0.00000  Uiso   1.00
C1200  C     0.21627   0.76750   0.97917   0.00000  Uiso   1.00
C1201  C     0.02326   0.80640   0.78158   0.00000  Uiso   1.00
C1202  C     0.31026   0.86219   0.71944   0.00000  Uiso   1.00
C1203  C     0.31341   0.80480   0.77946   0.00000  Uiso   1.00
C1204  C     0.02009   0.86293   0.72100   0.00000  Uiso   1.00
C1205  C     0.29047   0.83279   0.74877   0.00000  Uiso   1.00
C1206  C     0.04294   0.83458   0.75134   0.00000  Uiso   1.00
C1207  C     0.13586   0.69153   0.72760   0.00000  Uiso   1.00
C1208  C     0.19747   0.97513   0.77241   0.00000  Uiso   1.00
C1209  C     0.19749   0.69063   0.77233   0.00000  Uiso   1.00
C1210  C     0.13587   0.97603   0.72763   0.00000  Uiso   1.00
N1211  N     0.16667   0.95069   0.75000   0.00000  Uiso   1.00
N1212  N     0.16667   0.71598   0.75000   0.00000  Uiso   1.00
O1213  O     0.22596   0.78300   0.88812   0.00000  Uiso   1.00
H1214  H     0.23450   0.80281   0.86368   0.00000  Uiso   1.00
O1215  O     0.10014   0.87482   0.61318   0.00000  Uiso   1.00
H1216  H     0.09613   0.85927   0.64172   0.00000  Uiso   1.00
C1217  C     0.11332   0.89953   0.88155   0.00000  Uiso   1.00
H1218  H     0.13615   0.92278   0.86772   0.00000  Uiso   1.00
H1219  H     0.09210   0.88627   0.85439   0.00000  Uiso   1.00
H1220  H     0.09612   0.92267   0.90346   0.00000  Uiso   1.00
C1221  C     0.23299   0.78791   0.62070   0.00000  Uiso   1.00
H1222  H     0.24217   0.81284   0.64721   0.00000  Uiso   1.00
H1223  H     0.22782   0.75412   0.63656   0.00000  Uiso   1.00
H1224  H     0.25983   0.78559   0.59958   0.00000  Uiso   1.00
O1225  O     0.05746   0.87671   0.94956   0.00000  Uiso   1.00
H1226  H     0.05584   0.85706   0.92249   0.00000  Uiso   1.00
O1227  O     0.23230   0.72714   0.54692   0.00000  Uiso   1.00
H1228  H     0.21378   0.71672   0.56979   0.00000  Uiso   1.00
O1229  O     0.06352   0.89148   0.54042   0.00000  Uiso   1.00
H1230  H     0.04572   0.90941   0.51880   0.00000  Uiso   1.00
O1231  O     0.24246   0.73819   0.95720   0.00000  Uiso   1.00
H1232  H     0.26217   0.72267   0.97871   0.00000  Uiso   1.00
O1233  O     0.04510   0.78108   0.81411   0.00000  Uiso   1.00
H1234  H     0.07176   0.79610   0.82172   0.00000  Uiso   1.00
O1235  O     0.28886   0.89024   0.68872   0.00000  Uiso   1.00
H1236  H     0.26066   0.87885   0.68250   0.00000  Uiso   1.00
O1237  O     0.29251   0.77836   0.80870   0.00000  Uiso   1.00
H1238  H     0.31204   0.75925   0.82740   0.00000  Uiso   1.00
O1239  O     0.04108   0.88966   0.69209   0.00000  Uiso   1.00
H1240  H     0.02169   0.90848   0.67294   0.00000  Uiso   1.00
O1241  O     0.10402   0.71312   0.70348   0.00000  Uiso   1.00
H1242  H     0.11469   0.74146   0.69090   0.00000  Uiso   1.00
O1243  O     0.22930   0.95354   0.79653   0.00000  Uiso   1.00
H1244  H     0.21862   0.92521   0.80912   0.00000  Uiso   1.00
O1245  O     0.22928   0.71129   0.79646   0.00000  Uiso   1.00
H1246  H     0.21893   0.74087   0.80756   0.00000  Uiso   1.00
O1247  O     0.10416   0.95537   0.70338   0.00000  Uiso   1.00
H1248  H     0.11460   0.92590   0.69209   0.00000  Uiso   1.00
O1249  O     0.43988   0.87291   0.74999   0.00000  Uiso   1.00
O1250  O     0.56012   0.79375   0.75000   0.00000  Uiso   1.00
O1251  O     0.56012   0.87291   0.75000   0.00000  Uiso   1.00
O1252  O     0.43988   0.79375   0.74999   0.00000  Uiso   1.00
C1253  C     0.42092   0.83368   0.75023   0.00000  Uiso   1.00
C1254  C     0.57909   0.83309   0.74964   0.00000  Uiso   1.00
O1255  O     0.49999   0.87293   0.68513   0.00000  Uiso   1.00
O1256  O     0.50001   0.79373   0.81487   0.00000  Uiso   1.00
O1257  O     0.50001   0.87293   0.81487   0.00000  Uiso   1.00
O1258  O     0.49999   0.79373   0.68513   0.00000  Uiso   1.00
C1259  C     0.49986   0.83301   0.66459   0.00000  Uiso   1.00
C1260  C     0.49939   0.83357   0.83549   0.00000  Uiso   1.00
Cu1261 Cu    0.50000   0.88022   0.75000   0.00000  Uiso   1.00
Cu1262 Cu    0.50000   0.78645   0.75000   0.00000  Uiso   1.00
C1263  C     0.52695   0.80438   0.90846   0.00000  Uiso   1.00
C1264  C     0.46426   0.85186   0.59171   0.00000  Uiso   1.00
C1265  C     0.49892   0.83361   0.88417   0.00000  Uiso   1.00
C1266  C     0.49788   0.83097   0.61601   0.00000  Uiso   1.00
C1267  C     0.46882   0.85962   0.90588   0.00000  Uiso   1.00
C1268  C     0.52747   0.80418   0.59445   0.00000  Uiso   1.00
C1269  C     0.46296   0.85079   0.95127   0.00000  Uiso   1.00
C1270  C     0.52240   0.79702   0.54798   0.00000  Uiso   1.00
C1271  C     0.49273   0.82400   0.97619   0.00000  Uiso   1.00
C1272  C     0.49230   0.82340   0.52305   0.00000  Uiso   1.00
C1273  C     0.52351   0.79874   0.95450   0.00000  Uiso   1.00
C1274  C     0.46211   0.84960   0.54484   0.00000  Uiso   1.00
C1275  C     0.42790   0.86746   0.97270   0.00000  Uiso   1.00
C1276  C     0.54680   0.76445   0.52541   0.00000  Uiso   1.00
C1277  C     0.42898   0.87045   0.51931   0.00000  Uiso   1.00
C1278  C     0.54960   0.76750   0.97917   0.00000  Uiso   1.00
C1279  C     0.35659   0.80640   0.78158   0.00000  Uiso   1.00
C1280  C     0.64359   0.86219   0.71944   0.00000  Uiso   1.00
C1281  C     0.64674   0.80480   0.77946   0.00000  Uiso   1.00
C1282  C     0.35342   0.86293   0.72100   0.00000  Uiso   1.00
C1283  C     0.62380   0.83279   0.74877   0.00000  Uiso   1.00
C1284  C     0.37627   0.83458   0.75134   0.00000  Uiso   1.00
C1285  C     0.46920   0.69153   0.72760   0.00000  Uiso   1.00
C1286  C     0.53080   0.97513   0.77241   0.00000  Uiso   1.00
C1287  C     0.53082   0.69063   0.77233   0.00000  Uiso   1.00
C1288  C     0.46921   0.97603   0.72763   0.00000  Uiso   1.00
N1289  N     0.50000   0.95069   0.75000   0.00000  Uiso   1.00
N1290  N     0.50000   0.71598   0.75000   0.00000  Uiso   1.00
O1291  O     0.55929   0.78300   0.88812   0.00000  Uiso   1.00
H1292  H     0.56784   0.80281   0.86368   0.00000  Uiso   1.00
O1293  O     0.43347   0.87482   0.61318   0.00000  Uiso   1.00
H1294  H     0.42947   0.85927   0.64172   0.00000  Uiso   1.00
C1295  C     0.44666   0.89953   0.88155   0.00000  Uiso   1.00
H1296  H     0.46948   0.92278   0.86772   0.00000  Uiso   1.00
H1297  H     0.42543   0.88627   0.85439   0.00000  Uiso   1.00
H1298  H     0.42945   0.92267   0.90346   0.00000  Uiso   1.00
C1299  C     0.56633   0.78791   0.62070   0.00000  Uiso   1.00
H1300  H     0.57550   0.81284   0.64721   0.00000  Uiso   1.00
H1301  H     0.56116   0.75412   0.63656   0.00000  Uiso   1.00
H1302  H     0.59316   0.78559   0.59958   0.00000  Uiso   1.00
O1303  O     0.39079   0.87671   0.94956   0.00000  Uiso   1.00
H1304  H     0.38917   0.85706   0.92249   0.00000  Uiso   1.00
O1305  O     0.56563   0.72714   0.54692   0.00000  Uiso   1.00
H1306  H     0.54711   0.71672   0.56979   0.00000  Uiso   1.00
O1307  O     0.39685   0.89148   0.54042   0.00000  Uiso   1.00
H1308  H     0.37905   0.90941   0.51880   0.00000  Uiso   1.00
O1309  O     0.57580   0.73819   0.95720   0.00000  Uiso   1.00
H1310  H     0.59550   0.72267   0.97871   0.00000  Uiso   1.00
O1311  O     0.37843   0.78108   0.81411   0.00000  Uiso   1.00
H1312  H     0.40509   0.79610   0.82172   0.00000  Uiso   1.00
O1313  O     0.62219   0.89024   0.68872   0.00000  Uiso   1.00
H1314  H     0.59399   0.87885   0.68250   0.00000  Uiso   1.00
O1315  O     0.62584   0.77836   0.80870   0.00000  Uiso   1.00
H1316  H     0.64537   0.75925   0.82740   0.00000  Uiso   1.00
O1317  O     0.37441   0.88966   0.69209   0.00000  Uiso   1.00
H1318  H     0.35502   0.90848   0.67294   0.00000  Uiso   1.00
O1319  O     0.43735   0.71312   0.70348   0.00000  Uiso   1.00
H1320  H     0.44802   0.74146   0.69090   0.00000  Uiso   1.00
O1321  O     0.56264   0.95354   0.79653   0.00000  Uiso   1.00
H1322  H     0.55196   0.92521   0.80912   0.00000  Uiso   1.00
O1323  O     0.56261   0.71129   0.79646   0.00000  Uiso   1.00
H1324  H     0.55227   0.74087   0.80756   0.00000  Uiso   1.00
O1325  O     0.43749   0.95537   0.70338   0.00000  Uiso   1.00
H1326  H     0.44793   0.92590   0.69209   0.00000  Uiso   1.00
O1327  O     0.77321   0.87291   0.74999   0.00000  Uiso   1.00
O1328  O     0.89345   0.79375   0.75000   0.00000  Uiso   1.00
O1329  O     0.89345   0.87291   0.75000   0.00000  Uiso   1.00
O1330  O     0.77321   0.79375   0.74999   0.00000  Uiso   1.00
C1331  C     0.75426   0.83368   0.75023   0.00000  Uiso   1.00
C1332  C     0.91243   0.83309   0.74964   0.00000  Uiso   1.00
O1333  O     0.83332   0.87293   0.68513   0.00000  Uiso   1.00
O1334  O     0.83334   0.79373   0.81487   0.00000  Uiso   1.00
O1335  O     0.83334   0.87293   0.81487   0.00000  Uiso   1.00
O1336  O     0.83332   0.79373   0.68513   0.00000  Uiso   1.00
C1337  C     0.83320   0.83301   0.66459   0.00000  Uiso   1.00
C1338  C     0.83273   0.83357   0.83549   0.00000  Uiso   1.00
Cu1339 Cu    0.83333   0.88022   0.75000   0.00000  Uiso   1.00
Cu1340 Cu    0.83333   0.78645   0.75000   0.00000  Uiso   1.00
C1341  C     0.86028   0.80438   0.90846   0.00000  Uiso   1.00
C1342  C     0.79759   0.85186   0.59171   0.00000  Uiso   1.00
C1343  C     0.83225   0.83361   0.88417   0.00000  Uiso   1.00
C1344  C     0.83121   0.83097   0.61601   0.00000  Uiso   1.00
C1345  C     0.80215   0.85962   0.90588   0.00000  Uiso   1.00
C1346  C     0.86080   0.80418   0.59445   0.00000  Uiso   1.00
C1347  C     0.79629   0.85079   0.95127   0.00000  Uiso   1.00
C1348  C     0.85573   0.79702   0.54798   0.00000  Uiso   1.00
C1349  C     0.82606   0.82400   0.97619   0.00000  Uiso   1.00
C1350  C     0.82563   0.82340   0.52305   0.00000  Uiso   1.00
C1351  C     0.85684   0.79874   0.95450   0.00000  Uiso   1.00
C1352  C     0.79544   0.84960   0.54484   0.00000  Uiso   1.00
C1353  C     0.76124   0.86746   0.97270   0.00000  Uiso   1.00
C1354  C     0.88014   0.76445   0.52541   0.00000  Uiso   1.00
C1355  C     0.76231   0.87045   0.51931   0.00000  Uiso   1.00
C1356  C     0.88294   0.76750   0.97917   0.00000  Uiso   1.00
C1357  C     0.68993   0.80640   0.78158   0.00000  Uiso   1.00
C1358  C     0.97693   0.86219   0.71944   0.00000  Uiso   1.00
C1359  C     0.98008   0.80480   0.77946   0.00000  Uiso   1.00
C1360  C     0.68675   0.86293   0.72100   0.00000  Uiso   1.00
C1361  C     0.95713   0.83279   0.74877   0.00000  Uiso   1.00
C1362  C     0.70961   0.83458   0.75134   0.00000  Uiso   1.00
C1363  C     0.80253   0.69153   0.72760   0.00000  Uiso   1.00
C1364  C     0.86413   0.97513   0.77241   0.00000  Uiso   1.00
C1365  C     0.86415   0.69063   0.77233   0.00000  Uiso   1.00
C1366  C     0.80254   0.97603   0.72763   0.00000  Uiso   1.00
N1367  N     0.83333   0.95069   0.75000   0.00000  Uiso   1.00
N1368  N     0.83333   0.71598   0.75000   0.00000  Uiso   1.00
O1369  O     0.89262   0.78300   0.88812   0.00000  Uiso   1.00
H1370  H     0.90117   0.80281   0.86368   0.00000  Uiso   1.00
O1371  O     0.76680   0.87482   0.61318   0.00000  Uiso   1.00
H1372  H     0.76280   0.85927   0.64172   0.00000  Uiso   1.00
C1373  C     0.77999   0.89953   0.88155   0.00000  Uiso   1.00
H1374  H     0.80282   0.92278   0.86772   0.00000  Uiso   1.00
H1375  H     0.75877   0.88627   0.85439   0.00000  Uiso   1.00
H1376  H     0.76279   0.92267   0.90346   0.00000  Uiso   1.00
C1377  C     0.89966   0.78791   0.62070   0.00000  Uiso   1.00
H1378  H     0.90884   0.81284   0.64721   0.00000  Uiso   1.00
H1379  H     0.89449   0.75412   0.63656   0.00000  Uiso   1.00
H1380  H     0.92650   0.78559   0.59958   0.00000  Uiso   1.00
O1381  O     0.72412   0.87671   0.94956   0.00000  Uiso   1.00
H1382  H     0.72251   0.85706   0.92249   0.00000  Uiso   1.00
O1383  O     0.89896   0.72714   0.54692   0.00000  Uiso   1.00
H1384  H     0.88045   0.71672   0.56979   0.00000  Uiso   1.00
O1385  O     0.73018   0.89148   0.54042   0.00000  Uiso   1.00
H1386  H     0.71239   0.90941   0.51880   0.00000  Uiso   1.00
O1387  O     0.90913   0.73819   0.95720   0.00000  Uiso   1.00
H1388  H     0.92884   0.72267   0.97871   0.00000  Uiso   1.00
O1389  O     0.71176   0.78108   0.81411   0.00000  Uiso   1.00
H1390  H     0.73842   0.79610   0.82172   0.00000  Uiso   1.00
O1391  O     0.95553   0.89024   0.68872   0.00000  Uiso   1.00
H1392  H     0.92733   0.87885   0.68250   0.00000  Uiso   1.00
O1393  O     0.95918   0.77836   0.80870   0.00000  Uiso   1.00
H1394  H     0.97871   0.75925   0.82740   0.00000  Uiso   1.00
O1395  O     0.70774   0.88966   0.69209   0.00000  Uiso   1.00
H1396  H     0.68835   0.90848   0.67294   0.00000  Uiso   1.00
O1397  O     0.77069   0.71312   0.70348   0.00000  Uiso   1.00
H1398  H     0.78136   0.74146   0.69090   0.00000  Uiso   1.00
O1399  O     0.89597   0.95354   0.79653   0.00000  Uiso   1.00
H1400  H     0.88529   0.92521   0.80912   0.00000  Uiso   1.00
O1401  O     0.89595   0.71129   0.79646   0.00000  Uiso   1.00
H1402  H     0.88560   0.74087   0.80756   0.00000  Uiso   1.00
O1403  O     0.77083   0.95537   0.70338   0.00000  Uiso   1.00
H1404  H     0.78126   0.92590   0.69209   0.00000  Uiso   1.00
loop_
_geom_bond_atom_site_label_1
_geom_bond_atom_site_label_2
_geom_bond_distance
_geom_bond_site_symmetry_2
_ccdc_geom_bond_type
O1     C5      1.300   .     A
O1     Cu13    1.968   .     S
O2     C6      1.303   .     A
O2     Cu14    1.968   .     S
O3     C6      1.299   .     A
O3     Cu13    1.962   .     S
O4     C5      1.302   .     A
O4     Cu14    1.962   .     S
C5     C36     1.453   .     S
C6     C35     1.454   .     S
O7     C11     1.308   .     A
O7     Cu13    1.965   .     S
O8     C12     1.307   .     A
O8     Cu14    1.965   .     S
O9     Cu13    1.967   .     S
O9     C12     1.302   .     A
O10    Cu14    1.967   .     S
O10    C11     1.297   .     A
C11    C18     1.463   .     S
C12    C17     1.468   .     S
Cu13   N41     2.040   .     S
Cu13   Cu14    2.714   .     S
Cu14   N42     2.040   .     S
C15    C25     1.409   .     A
C15    C17     1.411   .     A
C15    O43     1.383   .     S
C16    C26     1.411   .     A
C16    O45     1.382   .     S
C16    C18     1.411   .     A
C17    C19     1.413   .     A
C18    C20     1.411   .     A
C19    C21     1.417   .     A
C19    C47     1.522   .     S
C20    C51     1.522   .     S
C20    C22     1.415   .     A
C21    C27     1.418   .     A
C21    C23     1.415   .     A
C22    C28     1.418   .     A
C22    C24     1.416   .     A
C23    C25     1.418   .     A
C23    C726    1.413   .     S
C24    C26     1.419   .     A
C24    C725    1.413   1_554 S
C25    C30     1.415   .     A
C26    C29     1.417   .     A
C27    O55     1.382   .     S
C27    C731    1.405   .     S
C28    O57     1.380   .     S
C28    C732    1.405   1_554 S
C29    O59     1.385   .     S
C29    C729    1.405   1_554 S
C30    O61     1.385   .     S
C30    C730    1.405   .     S
C31    O63     1.384   .     S
C31    C36     1.412   .     A
C31    C189    1.403   1_455 S
C32    C35     1.417   .     A
C32    O65     1.385   .     S
C32    C112    1.401   .     S
C33    O67     1.383   .     S
C33    C35     1.407   .     A
C33    C109    1.403   .     S
C34    C36     1.405   .     A
C34    O69     1.383   .     S
C34    C188    1.401   1_455 S
C37    N42     1.378   .     A
C37    O71     1.375   .     S
C37    C508    1.414   1_545 S
C38    N41     1.378   .     A
C38    O73     1.375   .     S
C38    C273    1.414   .     S
C39    O75     1.372   .     S
C39    N42     1.379   .     A
C39    C506    1.414   1_545 S
C40    N41     1.379   .     A
C40    O77     1.372   .     S
C40    C271    1.414   .     S
O43    H44     0.990   .     S
O45    H46     0.989   .     S
C47    H49     1.111   .     S
C47    H50     1.106   .     S
C47    H48     1.109   .     S
C51    H52     1.105   .     S
C51    H53     1.110   .     S
C51    H54     1.109   .     S
O55    H56     0.992   .     S
O57    H58     0.991   .     S
O59    H60     0.990   .     S
O61    H62     0.990   .     S
O63    H64     0.990   .     S
O65    H66     0.986   .     S
O67    H68     0.989   .     S
O69    H70     0.990   .     S
O71    H72     0.982   .     S
O73    H74     0.982   .     S
O75    H76     0.979   .     S
O77    H78     0.980   .     S
O79    C83     1.300   .     A
O79    Cu91    1.968   .     S
O80    C84     1.303   .     A
O80    Cu92    1.968   .     S
O81    C84     1.299   .     A
O81    Cu91    1.962   .     S
O82    C83     1.302   .     A
O82    Cu92    1.962   .     S
C83    C114    1.453   .     S
C84    C113    1.454   .     S
O85    C89     1.308   .     A
O85    Cu91    1.965   .     S
O86    C90     1.307   .     A
O86    Cu92    1.965   .     S
O87    Cu91    1.967   .     S
O87    C90     1.302   .     A
O88    Cu92    1.967   .     S
O88    C89     1.297   .     A
C89    C96     1.463   .     S
C90    C95     1.468   .     S
Cu91   N119    2.040   .     S
Cu91   Cu92    2.714   .     S
Cu92   N120    2.040   .     S
C93    C103    1.409   .     A
C93    C95     1.411   .     A
C93    O121    1.383   .     S
C94    C104    1.411   .     A
C94    O123    1.382   .     S
C94    C96     1.411   .     A
C95    C97     1.413   .     A
C96    C98     1.411   .     A
C97    C99     1.417   .     A
C97    C125    1.522   .     S
C98    C129    1.522   .     S
C98    C100    1.415   .     A
C99    C105    1.418   .     A
C99    C101    1.415   .     A
C100   C106    1.418   .     A
C100   C102    1.416   .     A
C101   C103    1.418   .     A
C101   C804    1.413   .     S
C102   C104    1.419   .     A
C102   C803    1.413   1_554 S
C103   C108    1.415   .     A
C104   C107    1.417   .     A
C105   O133    1.382   .     S
C105   C809    1.405   .     S
C106   O135    1.380   .     S
C106   C810    1.405   1_554 S
C107   O137    1.385   .     S
C107   C807    1.405   1_554 S
C108   O139    1.385   .     S
C108   C808    1.405   .     S
C109   O141    1.384   .     S
C109   C114    1.412   .     A
C110   C113    1.417   .     A
C110   O143    1.385   .     S
C110   C190    1.401   .     S
C111   O145    1.383   .     S
C111   C113    1.407   .     A
C111   C187    1.403   .     S
C112   C114    1.405   .     A
C112   O147    1.383   .     S
C115   N120    1.378   .     A
C115   O149    1.375   .     S
C115   C586    1.414   1_545 S
C116   N119    1.378   .     A
C116   O151    1.375   .     S
C116   C351    1.414   .     S
C117   O153    1.372   .     S
C117   N120    1.379   .     A
C117   C584    1.414   1_545 S
C118   N119    1.379   .     A
C118   O155    1.372   .     S
C118   C349    1.414   .     S
O121   H122    0.990   .     S
O123   H124    0.989   .     S
C125   H127    1.111   .     S
C125   H128    1.106   .     S
C125   H126    1.109   .     S
C129   H130    1.105   .     S
C129   H131    1.110   .     S
C129   H132    1.109   .     S
O133   H134    0.992   .     S
O135   H136    0.991   .     S
O137   H138    0.990   .     S
O139   H140    0.990   .     S
O141   H142    0.990   .     S
O143   H144    0.986   .     S
O145   H146    0.989   .     S
O147   H148    0.990   .     S
O149   H150    0.982   .     S
O151   H152    0.982   .     S
O153   H154    0.979   .     S
O155   H156    0.980   .     S
O157   C161    1.300   .     A
O157   Cu169   1.968   .     S
O158   C162    1.303   .     A
O158   Cu170   1.968   .     S
O159   C162    1.299   .     A
O159   Cu169   1.962   .     S
O160   C161    1.302   .     A
O160   Cu170   1.962   .     S
C161   C192    1.453   .     S
C162   C191    1.454   .     S
O163   C167    1.308   .     A
O163   Cu169   1.965   .     S
O164   C168    1.307   .     A
O164   Cu170   1.965   .     S
O165   Cu169   1.967   .     S
O165   C168    1.302   .     A
O166   Cu170   1.967   .     S
O166   C167    1.297   .     A
C167   C174    1.463   .     S
C168   C173    1.468   .     S
Cu169  N197    2.040   .     S
Cu169  Cu170   2.714   .     S
Cu170  N198    2.040   .     S
C171   C181    1.409   .     A
C171   C173    1.411   .     A
C171   O199    1.383   .     S
C172   C182    1.411   .     A
C172   O201    1.382   .     S
C172   C174    1.411   .     A
C173   C175    1.413   .     A
C174   C176    1.411   .     A
C175   C177    1.417   .     A
C175   C203    1.522   .     S
C176   C207    1.522   .     S
C176   C178    1.415   .     A
C177   C183    1.418   .     A
C177   C179    1.415   .     A
C178   C184    1.418   .     A
C178   C180    1.416   .     A
C179   C181    1.418   .     A
C179   C882    1.413   .     S
C180   C182    1.419   .     A
C180   C881    1.413   1_554 S
C181   C186    1.415   .     A
C182   C185    1.417   .     A
C183   O211    1.382   .     S
C183   C887    1.405   .     S
C184   O213    1.380   .     S
C184   C888    1.405   1_554 S
C185   O215    1.385   .     S
C185   C885    1.405   1_554 S
C186   O217    1.385   .     S
C186   C886    1.405   .     S
C187   O219    1.384   .     S
C187   C192    1.412   .     A
C188   C191    1.417   .     A
C188   O221    1.385   .     S
C188   C34     1.401   1_655 S
C189   O223    1.383   .     S
C189   C191    1.407   .     A
C189   C31     1.403   1_655 S
C190   C192    1.405   .     A
C190   O225    1.383   .     S
C193   N198    1.378   .     A
C193   O227    1.375   .     S
C193   C664    1.414   1_545 S
C194   N197    1.378   .     A
C194   O229    1.375   .     S
C194   C429    1.414   .     S
C195   O231    1.372   .     S
C195   N198    1.379   .     A
C195   C662    1.414   1_545 S
C196   N197    1.379   .     A
C196   O233    1.372   .     S
C196   C427    1.414   .     S
O199   H200    0.990   .     S
O201   H202    0.989   .     S
C203   H205    1.111   .     S
C203   H206    1.106   .     S
C203   H204    1.109   .     S
C207   H208    1.105   .     S
C207   H209    1.110   .     S
C207   H210    1.109   .     S
O211   H212    0.992   .     S
O213   H214    0.991   .     S
O215   H216    0.990   .     S
O217   H218    0.990   .     S
O219   H220    0.990   .     S
O221   H222    0.986   .     S
O223   H224    0.989   .     S
O225   H226    0.990   .     S
O227   H228    0.982   .     S
O229   H230    0.982   .     S
O231   H232    0.979   .     S
O233   H234    0.980   .     S
O235   C239    1.300   .     A
O235   Cu247   1.968   .     S
O236   C240    1.303   .     A
O236   Cu248   1.968   .     S
O237   C240    1.299   .     A
O237   Cu247   1.962   .     S
O238   C239    1.302   .     A
O238   Cu248   1.962   .     S
C239   C270    1.453   .     S
C240   C269    1.454   .     S
O241   C245    1.308   .     A
O241   Cu247   1.965   .     S
O242   C246    1.307   .     A
O242   Cu248   1.965   .     S
O243   Cu247   1.967   .     S
O243   C246    1.302   .     A
O244   Cu248   1.967   .     S
O244   C245    1.297   .     A
C245   C252    1.463   .     S
C246   C251    1.468   .     S
Cu247  N275    2.040   .     S
Cu247  Cu248   2.714   .     S
Cu248  N276    2.040   .     S
C249   C259    1.409   .     A
C249   C251    1.411   .     A
C249   O277    1.383   .     S
C250   C260    1.411   .     A
C250   O279    1.382   .     S
C250   C252    1.411   .     A
C251   C253    1.413   .     A
C252   C254    1.411   .     A
C253   C255    1.417   .     A
C253   C281    1.522   .     S
C254   C285    1.522   .     S
C254   C256    1.415   .     A
C255   C261    1.418   .     A
C255   C257    1.415   .     A
C256   C262    1.418   .     A
C256   C258    1.416   .     A
C257   C259    1.418   .     A
C257   C960    1.413   .     S
C258   C260    1.419   .     A
C258   C959    1.413   1_554 S
C259   C264    1.415   .     A
C260   C263    1.417   .     A
C261   O289    1.382   .     S
C261   C965    1.405   .     S
C262   O291    1.380   .     S
C262   C966    1.405   1_554 S
C263   O293    1.385   .     S
C263   C963    1.405   1_554 S
C264   O295    1.385   .     S
C264   C964    1.405   .     S
C265   O297    1.384   .     S
C265   C270    1.412   .     A
C265   C423    1.403   1_455 S
C266   C269    1.417   .     A
C266   O299    1.385   .     S
C266   C346    1.401   .     S
C267   O301    1.383   .     S
C267   C269    1.407   .     A
C267   C343    1.403   .     S
C268   C270    1.405   .     A
C268   O303    1.383   .     S
C268   C422    1.401   1_455 S
C271   N276    1.378   .     A
C271   O305    1.375   .     S
C272   N275    1.378   .     A
C272   O307    1.375   .     S
C272   C507    1.414   .     S
C273   O309    1.372   .     S
C273   N276    1.379   .     A
C274   N275    1.379   .     A
C274   O311    1.372   .     S
C274   C505    1.414   .     S
O277   H278    0.990   .     S
O279   H280    0.989   .     S
C281   H283    1.111   .     S
C281   H284    1.106   .     S
C281   H282    1.109   .     S
C285   H286    1.105   .     S
C285   H287    1.110   .     S
C285   H288    1.109   .     S
O289   H290    0.992   .     S
O291   H292    0.991   .     S
O293   H294    0.990   .     S
O295   H296    0.990   .     S
O297   H298    0.990   .     S
O299   H300    0.986   .     S
O301   H302    0.989   .     S
O303   H304    0.990   .     S
O305   H306    0.982   .     S
O307   H308    0.982   .     S
O309   H310    0.979   .     S
O311   H312    0.980   .     S
O313   C317    1.300   .     A
O313   Cu325   1.968   .     S
O314   C318    1.303   .     A
O314   Cu326   1.968   .     S
O315   C318    1.299   .     A
O315   Cu325   1.962   .     S
O316   C317    1.302   .     A
O316   Cu326   1.962   .     S
C317   C348    1.453   .     S
C318   C347    1.454   .     S
O319   C323    1.308   .     A
O319   Cu325   1.965   .     S
O320   C324    1.307   .     A
O320   Cu326   1.965   .     S
O321   Cu325   1.967   .     S
O321   C324    1.302   .     A
O322   Cu326   1.967   .     S
O322   C323    1.297   .     A
C323   C330    1.463   .     S
C324   C329    1.468   .     S
Cu325  N353    2.040   .     S
Cu325  Cu326   2.714   .     S
Cu326  N354    2.040   .     S
C327   C337    1.409   .     A
C327   C329    1.411   .     A
C327   O355    1.383   .     S
C328   C338    1.411   .     A
C328   O357    1.382   .     S
C328   C330    1.411   .     A
C329   C331    1.413   .     A
C330   C332    1.411   .     A
C331   C333    1.417   .     A
C331   C359    1.522   .     S
C332   C363    1.522   .     S
C332   C334    1.415   .     A
C333   C339    1.418   .     A
C333   C335    1.415   .     A
C334   C340    1.418   .     A
C334   C336    1.416   .     A
C335   C337    1.418   .     A
C335   C1038   1.413   .     S
C336   C338    1.419   .     A
C336   C1037   1.413   1_554 S
C337   C342    1.415   .     A
C338   C341    1.417   .     A
C339   O367    1.382   .     S
C339   C1043   1.405   .     S
C340   O369    1.380   .     S
C340   C1044   1.405   1_554 S
C341   O371    1.385   .     S
C341   C1041   1.405   1_554 S
C342   O373    1.385   .     S
C342   C1042   1.405   .     S
C343   O375    1.384   .     S
C343   C348    1.412   .     A
C344   C347    1.417   .     A
C344   O377    1.385   .     S
C344   C424    1.401   .     S
C345   O379    1.383   .     S
C345   C347    1.407   .     A
C345   C421    1.403   .     S
C346   C348    1.405   .     A
C346   O381    1.383   .     S
C349   N354    1.378   .     A
C349   O383    1.375   .     S
C350   N353    1.378   .     A
C350   O385    1.375   .     S
C350   C585    1.414   .     S
C351   O387    1.372   .     S
C351   N354    1.379   .     A
C352   N353    1.379   .     A
C352   O389    1.372   .     S
C352   C583    1.414   .     S
O355   H356    0.990   .     S
O357   H358    0.989   .     S
C359   H361    1.111   .     S
C359   H362    1.106   .     S
C359   H360    1.109   .     S
C363   H364    1.105   .     S
C363   H365    1.110   .     S
C363   H366    1.109   .     S
O367   H368    0.992   .     S
O369   H370    0.991   .     S
O371   H372    0.990   .     S
O373   H374    0.990   .     S
O375   H376    0.990   .     S
O377   H378    0.986   .     S
O379   H380    0.989   .     S
O381   H382    0.990   .     S
O383   H384    0.982   .     S
O385   H386    0.982   .     S
O387   H388    0.979   .     S
O389   H390    0.980   .     S
O391   C395    1.300   .     A
O391   Cu403   1.968   .     S
O392   C396    1.303   .     A
O392   Cu404   1.968   .     S
O393   C396    1.299   .     A
O393   Cu403   1.962   .     S
O394   C395    1.302   .     A
O394   Cu404   1.962   .     S
C395   C426    1.453   .     S
C396   C425    1.454   .     S
O397   C401    1.308   .     A
O397   Cu403   1.965   .     S
O398   C402    1.307   .     A
O398   Cu404   1.965   .     S
O399   Cu403   1.967   .     S
O399   C402    1.302   .     A
O400   Cu404   1.967   .     S
O400   C401    1.297   .     A
C401   C408    1.463   .     S
C402   C407    1.468   .     S
Cu403  N431    2.040   .     S
Cu403  Cu404   2.714   .     S
Cu404  N432    2.040   .     S
C405   C415    1.409   .     A
C405   C407    1.411   .     A
C405   O433    1.383   .     S
C406   C416    1.411   .     A
C406   O435    1.382   .     S
C406   C408    1.411   .     A
C407   C409    1.413   .     A
C408   C410    1.411   .     A
C409   C411    1.417   .     A
C409   C437    1.522   .     S
C410   C441    1.522   .     S
C410   C412    1.415   .     A
C411   C417    1.418   .     A
C411   C413    1.415   .     A
C412   C418    1.418   .     A
C412   C414    1.416   .     A
C413   C415    1.418   .     A
C413   C1116   1.413   .     S
C414   C416    1.419   .     A
C414   C1115   1.413   1_554 S
C415   C420    1.415   .     A
C416   C419    1.417   .     A
C417   O445    1.382   .     S
C417   C1121   1.405   .     S
C418   O447    1.380   .     S
C418   C1122   1.405   1_554 S
C419   O449    1.385   .     S
C419   C1119   1.405   1_554 S
C420   O451    1.385   .     S
C420   C1120   1.405   .     S
C421   O453    1.384   .     S
C421   C426    1.412   .     A
C422   C425    1.417   .     A
C422   O455    1.385   .     S
C422   C268    1.401   1_655 S
C423   O457    1.383   .     S
C423   C425    1.407   .     A
C423   C265    1.403   1_655 S
C424   C426    1.405   .     A
C424   O459    1.383   .     S
C427   N432    1.378   .     A
C427   O461    1.375   .     S
C428   N431    1.378   .     A
C428   O463    1.375   .     S
C428   C663    1.414   .     S
C429   O465    1.372   .     S
C429   N432    1.379   .     A
C430   N431    1.379   .     A
C430   O467    1.372   .     S
C430   C661    1.414   .     S
O433   H434    0.990   .     S
O435   H436    0.989   .     S
C437   H439    1.111   .     S
C437   H440    1.106   .     S
C437   H438    1.109   .     S
C441   H442    1.105   .     S
C441   H443    1.110   .     S
C441   H444    1.109   .     S
O445   H446    0.992   .     S
O447   H448    0.991   .     S
O449   H450    0.990   .     S
O451   H452    0.990   .     S
O453   H454    0.990   .     S
O455   H456    0.986   .     S
O457   H458    0.989   .     S
O459   H460    0.990   .     S
O461   H462    0.982   .     S
O463   H464    0.982   .     S
O465   H466    0.979   .     S
O467   H468    0.980   .     S
O469   C473    1.300   .     A
O469   Cu481   1.968   .     S
O470   C474    1.303   .     A
O470   Cu482   1.968   .     S
O471   C474    1.299   .     A
O471   Cu481   1.962   .     S
O472   C473    1.302   .     A
O472   Cu482   1.962   .     S
C473   C504    1.453   .     S
C474   C503    1.454   .     S
O475   C479    1.308   .     A
O475   Cu481   1.965   .     S
O476   C480    1.307   .     A
O476   Cu482   1.965   .     S
O477   Cu481   1.967   .     S
O477   C480    1.302   .     A
O478   Cu482   1.967   .     S
O478   C479    1.297   .     A
C479   C486    1.463   .     S
C480   C485    1.468   .     S
Cu481  N509    2.040   .     S
Cu481  Cu482   2.714   .     S
Cu482  N510    2.040   .     S
C483   C493    1.409   .     A
C483   C485    1.411   .     A
C483   O511    1.383   .     S
C484   C494    1.411   .     A
C484   O513    1.382   .     S
C484   C486    1.411   .     A
C485   C487    1.413   .     A
C486   C488    1.411   .     A
C487   C489    1.417   .     A
C487   C515    1.522   .     S
C488   C519    1.522   .     S
C488   C490    1.415   .     A
C489   C495    1.418   .     A
C489   C491    1.415   .     A
C490   C496    1.418   .     A
C490   C492    1.416   .     A
C491   C493    1.418   .     A
C491   C1194   1.413   .     S
C492   C494    1.419   .     A
C492   C1193   1.413   1_554 S
C493   C498    1.415   .     A
C494   C497    1.417   .     A
C495   O523    1.382   .     S
C495   C1199   1.405   .     S
C496   O525    1.380   .     S
C496   C1200   1.405   1_554 S
C497   O527    1.385   .     S
C497   C1197   1.405   1_554 S
C498   O529    1.385   .     S
C498   C1198   1.405   .     S
C499   O531    1.384   .     S
C499   C504    1.412   .     A
C499   C657    1.403   1_455 S
C500   C503    1.417   .     A
C500   O533    1.385   .     S
C500   C580    1.401   .     S
C501   O535    1.383   .     S
C501   C503    1.407   .     A
C501   C577    1.403   .     S
C502   C504    1.405   .     A
C502   O537    1.383   .     S
C502   C656    1.401   1_455 S
C505   N510    1.378   .     A
C505   O539    1.375   .     S
C506   N509    1.378   .     A
C506   O541    1.375   .     S
C506   C39     1.414   1_565 S
C507   O543    1.372   .     S
C507   N510    1.379   .     A
C508   N509    1.379   .     A
C508   O545    1.372   .     S
C508   C37     1.414   1_565 S
O511   H512    0.990   .     S
O513   H514    0.989   .     S
C515   H517    1.111   .     S
C515   H518    1.106   .     S
C515   H516    1.109   .     S
C519   H520    1.105   .     S
C519   H521    1.110   .     S
C519   H522    1.109   .     S
O523   H524    0.992   .     S
O525   H526    0.991   .     S
O527   H528    0.990   .     S
O529   H530    0.990   .     S
O531   H532    0.990   .     S
O533   H534    0.986   .     S
O535   H536    0.989   .     S
O537   H538    0.990   .     S
O539   H540    0.982   .     S
O541   H542    0.982   .     S
O543   H544    0.979   .     S
O545   H546    0.980   .     S
O547   C551    1.300   .     A
O547   Cu559   1.968   .     S
O548   C552    1.303   .     A
O548   Cu560   1.968   .     S
O549   C552    1.299   .     A
O549   Cu559   1.962   .     S
O550   C551    1.302   .     A
O550   Cu560   1.962   .     S
C551   C582    1.453   .     S
C552   C581    1.454   .     S
O553   C557    1.308   .     A
O553   Cu559   1.965   .     S
O554   C558    1.307   .     A
O554   Cu560   1.965   .     S
O555   Cu559   1.967   .     S
O555   C558    1.302   .     A
O556   Cu560   1.967   .     S
O556   C557    1.297   .     A
C557   C564    1.463   .     S
C558   C563    1.468   .     S
Cu559  N587    2.040   .     S
Cu559  Cu560   2.714   .     S
Cu560  N588    2.040   .     S
C561   C571    1.409   .     A
C561   C563    1.411   .     A
C561   O589    1.383   .     S
C562   C572    1.411   .     A
C562   O591    1.382   .     S
C562   C564    1.411   .     A
C563   C565    1.413   .     A
C564   C566    1.411   .     A
C565   C567    1.417   .     A
C565   C593    1.522   .     S
C566   C597    1.522   .     S
C566   C568    1.415   .     A
C567   C573    1.418   .     A
C567   C569    1.415   .     A
C568   C574    1.418   .     A
C568   C570    1.416   .     A
C569   C571    1.418   .     A
C569   C1272   1.413   .     S
C570   C572    1.419   .     A
C570   C1271   1.413   1_554 S
C571   C576    1.415   .     A
C572   C575    1.417   .     A
C573   O601    1.382   .     S
C573   C1277   1.405   .     S
C574   O603    1.380   .     S
C574   C1278   1.405   1_554 S
C575   O605    1.385   .     S
C575   C1275   1.405   1_554 S
C576   O607    1.385   .     S
C576   C1276   1.405   .     S
C577   O609    1.384   .     S
C577   C582    1.412   .     A
C578   C581    1.417   .     A
C578   O611    1.385   .     S
C578   C658    1.401   .     S
C579   O613    1.383   .     S
C579   C581    1.407   .     A
C579   C655    1.403   .     S
C580   C582    1.405   .     A
C580   O615    1.383   .     S
C583   N588    1.378   .     A
C583   O617    1.375   .     S
C584   N587    1.378   .     A
C584   O619    1.375   .     S
C584   C117    1.414   1_565 S
C585   O621    1.372   .     S
C585   N588    1.379   .     A
C586   N587    1.379   .     A
C586   O623    1.372   .     S
C586   C115    1.414   1_565 S
O589   H590    0.990   .     S
O591   H592    0.989   .     S
C593   H595    1.111   .     S
C593   H596    1.106   .     S
C593   H594    1.109   .     S
C597   H598    1.105   .     S
C597   H599    1.110   .     S
C597   H600    1.109   .     S
O601   H602    0.992   .     S
O603   H604    0.991   .     S
O605   H606    0.990   .     S
O607   H608    0.990   .     S
O609   H610    0.990   .     S
O611   H612    0.986   .     S
O613   H614    0.989   .     S
O615   H616    0.990   .     S
O617   H618    0.982   .     S
O619   H620    0.982   .     S
O621   H622    0.979   .     S
O623   H624    0.980   .     S
O625   C629    1.300   .     A
O625   Cu637   1.968   .     S
O626   C630    1.303   .     A
O626   Cu638   1.968   .     S
O627   C630    1.299   .     A
O627   Cu637   1.962   .     S
O628   C629    1.302   .     A
O628   Cu638   1.962   .     S
C629   C660    1.453   .     S
C630   C659    1.454   .     S
O631   C635    1.308   .     A
O631   Cu637   1.965   .     S
O632   C636    1.307   .     A
O632   Cu638   1.965   .     S
O633   Cu637   1.967   .     S
O633   C636    1.302   .     A
O634   Cu638   1.967   .     S
O634   C635    1.297   .     A
C635   C642    1.463   .     S
C636   C641    1.468   .     S
Cu637  N665    2.040   .     S
Cu637  Cu638   2.714   .     S
Cu638  N666    2.040   .     S
C639   C649    1.409   .     A
C639   C641    1.411   .     A
C639   O667    1.383   .     S
C640   C650    1.411   .     A
C640   O669    1.382   .     S
C640   C642    1.411   .     A
C641   C643    1.413   .     A
C642   C644    1.411   .     A
C643   C645    1.417   .     A
C643   C671    1.522   .     S
C644   C675    1.522   .     S
C644   C646    1.415   .     A
C645   C651    1.418   .     A
C645   C647    1.415   .     A
C646   C652    1.418   .     A
C646   C648    1.416   .     A
C647   C649    1.418   .     A
C647   C1350   1.413   .     S
C648   C650    1.419   .     A
C648   C1349   1.413   1_554 S
C649   C654    1.415   .     A
C650   C653    1.417   .     A
C651   O679    1.382   .     S
C651   C1355   1.405   .     S
C652   O681    1.380   .     S
C652   C1356   1.405   1_554 S
C653   O683    1.385   .     S
C653   C1353   1.405   1_554 S
C654   O685    1.385   .     S
C654   C1354   1.405   .     S
C655   O687    1.384   .     S
C655   C660    1.412   .     A
C656   C659    1.417   .     A
C656   O689    1.385   .     S
C656   C502    1.401   1_655 S
C657   O691    1.383   .     S
C657   C659    1.407   .     A
C657   C499    1.403   1_655 S
C658   C660    1.405   .     A
C658   O693    1.383   .     S
C661   N666    1.378   .     A
C661   O695    1.375   .     S
C662   N665    1.378   .     A
C662   O697    1.375   .     S
C662   C195    1.414   1_565 S
C663   O699    1.372   .     S
C663   N666    1.379   .     A
C664   N665    1.379   .     A
C664   O701    1.372   .     S
C664   C193    1.414   1_565 S
O667   H668    0.990   .     S
O669   H670    0.989   .     S
C671   H673    1.111   .     S
C671   H674    1.106   .     S
C671   H672    1.109   .     S
C675   H676    1.105   .     S
C675   H677    1.110   .     S
C675   H678    1.109   .     S
O679   H680    0.992   .     S
O681   H682    0.991   .     S
O683   H684    0.990   .     S
O685   H686    0.990   .     S
O687   H688    0.990   .     S
O689   H690    0.986   .     S
O691   H692    0.989   .     S
O693   H694    0.990   .     S
O695   H696    0.982   .     S
O697   H698    0.982   .     S
O699   H700    0.979   .     S
O701   H702    0.980   .     S
O703   C707    1.300   .     A
O703   Cu715   1.968   .     S
O704   C708    1.303   .     A
O704   Cu716   1.968   .     S
O705   C708    1.299   .     A
O705   Cu715   1.962   .     S
O706   C707    1.302   .     A
O706   Cu716   1.962   .     S
C707   C738    1.453   .     S
C708   C737    1.454   .     S
O709   C713    1.308   .     A
O709   Cu715   1.965   .     S
O710   C714    1.307   .     A
O710   Cu716   1.965   .     S
O711   Cu715   1.967   .     S
O711   C714    1.302   .     A
O712   Cu716   1.967   .     S
O712   C713    1.297   .     A
C713   C720    1.463   .     S
C714   C719    1.468   .     S
Cu715  N743    2.040   .     S
Cu715  Cu716   2.714   .     S
Cu716  N744    2.040   .     S
C717   C727    1.409   .     A
C717   C719    1.411   .     A
C717   O745    1.383   .     S
C718   C728    1.411   .     A
C718   O747    1.382   .     S
C718   C720    1.411   .     A
C719   C721    1.413   .     A
C720   C722    1.411   .     A
C721   C723    1.417   .     A
C721   C749    1.522   .     S
C722   C753    1.522   .     S
C722   C724    1.415   .     A
C723   C729    1.418   .     A
C723   C725    1.415   .     A
C724   C730    1.418   .     A
C724   C726    1.416   .     A
C725   C727    1.418   .     A
C725   C24     1.413   1_556 S
C726   C728    1.419   .     A
C727   C732    1.415   .     A
C728   C731    1.417   .     A
C729   O757    1.382   .     S
C729   C29     1.405   1_556 S
C730   O759    1.380   .     S
C731   O761    1.385   .     S
C732   O763    1.385   .     S
C732   C28     1.405   1_556 S
C733   O765    1.384   .     S
C733   C738    1.412   .     A
C733   C891    1.403   1_455 S
C734   C737    1.417   .     A
C734   O767    1.385   .     S
C734   C814    1.401   .     S
C735   O769    1.383   .     S
C735   C737    1.407   .     A
C735   C811    1.403   .     S
C736   C738    1.405   .     A
C736   O771    1.383   .     S
C736   C890    1.401   1_455 S
C739   N744    1.378   .     A
C739   O773    1.375   .     S
C739   C1210   1.414   1_545 S
C740   N743    1.378   .     A
C740   O775    1.375   .     S
C740   C975    1.414   .     S
C741   O777    1.372   .     S
C741   N744    1.379   .     A
C741   C1208   1.414   1_545 S
C742   N743    1.379   .     A
C742   O779    1.372   .     S
C742   C973    1.414   .     S
O745   H746    0.990   .     S
O747   H748    0.989   .     S
C749   H751    1.111   .     S
C749   H752    1.106   .     S
C749   H750    1.109   .     S
C753   H754    1.105   .     S
C753   H755    1.110   .     S
C753   H756    1.109   .     S
O757   H758    0.992   .     S
O759   H760    0.991   .     S
O761   H762    0.990   .     S
O763   H764    0.990   .     S
O765   H766    0.990   .     S
O767   H768    0.986   .     S
O769   H770    0.989   .     S
O771   H772    0.990   .     S
O773   H774    0.982   .     S
O775   H776    0.982   .     S
O777   H778    0.979   .     S
O779   H780    0.980   .     S
O781   C785    1.300   .     A
O781   Cu793   1.968   .     S
O782   C786    1.303   .     A
O782   Cu794   1.968   .     S
O783   C786    1.299   .     A
O783   Cu793   1.962   .     S
O784   C785    1.302   .     A
O784   Cu794   1.962   .     S
C785   C816    1.453   .     S
C786   C815    1.454   .     S
O787   C791    1.308   .     A
O787   Cu793   1.965   .     S
O788   C792    1.307   .     A
O788   Cu794   1.965   .     S
O789   Cu793   1.967   .     S
O789   C792    1.302   .     A
O790   Cu794   1.967   .     S
O790   C791    1.297   .     A
C791   C798    1.463   .     S
C792   C797    1.468   .     S
Cu793  N821    2.040   .     S
Cu793  Cu794   2.714   .     S
Cu794  N822    2.040   .     S
C795   C805    1.409   .     A
C795   C797    1.411   .     A
C795   O823    1.383   .     S
C796   C806    1.411   .     A
C796   O825    1.382   .     S
C796   C798    1.411   .     A
C797   C799    1.413   .     A
C798   C800    1.411   .     A
C799   C801    1.417   .     A
C799   C827    1.522   .     S
C800   C831    1.522   .     S
C800   C802    1.415   .     A
C801   C807    1.418   .     A
C801   C803    1.415   .     A
C802   C808    1.418   .     A
C802   C804    1.416   .     A
C803   C805    1.418   .     A
C803   C102    1.413   1_556 S
C804   C806    1.419   .     A
C805   C810    1.415   .     A
C806   C809    1.417   .     A
C807   O835    1.382   .     S
C807   C107    1.405   1_556 S
C808   O837    1.380   .     S
C809   O839    1.385   .     S
C810   O841    1.385   .     S
C810   C106    1.405   1_556 S
C811   O843    1.384   .     S
C811   C816    1.412   .     A
C812   C815    1.417   .     A
C812   O845    1.385   .     S
C812   C892    1.401   .     S
C813   O847    1.383   .     S
C813   C815    1.407   .     A
C813   C889    1.403   .     S
C814   C816    1.405   .     A
C814   O849    1.383   .     S
C817   N822    1.378   .     A
C817   O851    1.375   .     S
C817   C1288   1.414   1_545 S
C818   N821    1.378   .     A
C818   O853    1.375   .     S
C818   C1053   1.414   .     S
C819   O855    1.372   .     S
C819   N822    1.379   .     A
C819   C1286   1.414   1_545 S
C820   N821    1.379   .     A
C820   O857    1.372   .     S
C820   C1051   1.414   .     S
O823   H824    0.990   .     S
O825   H826    0.989   .     S
C827   H829    1.111   .     S
C827   H830    1.106   .     S
C827   H828    1.109   .     S
C831   H832    1.105   .     S
C831   H833    1.110   .     S
C831   H834    1.109   .     S
O835   H836    0.992   .     S
O837   H838    0.991   .     S
O839   H840    0.990   .     S
O841   H842    0.990   .     S
O843   H844    0.990   .     S
O845   H846    0.986   .     S
O847   H848    0.989   .     S
O849   H850    0.990   .     S
O851   H852    0.982   .     S
O853   H854    0.982   .     S
O855   H856    0.979   .     S
O857   H858    0.980   .     S
O859   C863    1.300   .     A
O859   Cu871   1.968   .     S
O860   C864    1.303   .     A
O860   Cu872   1.968   .     S
O861   C864    1.299   .     A
O861   Cu871   1.962   .     S
O862   C863    1.302   .     A
O862   Cu872   1.962   .     S
C863   C894    1.453   .     S
C864   C893    1.454   .     S
O865   C869    1.308   .     A
O865   Cu871   1.965   .     S
O866   C870    1.307   .     A
O866   Cu872   1.965   .     S
O867   Cu871   1.967   .     S
O867   C870    1.302   .     A
O868   Cu872   1.967   .     S
O868   C869    1.297   .     A
C869   C876    1.463   .     S
C870   C875    1.468   .     S
Cu871  N899    2.040   .     S
Cu871  Cu872   2.714   .     S
Cu872  N900    2.040   .     S
C873   C883    1.409   .     A
C873   C875    1.411   .     A
C873   O901    1.383   .     S
C874   C884    1.411   .     A
C874   O903    1.382   .     S
C874   C876    1.411   .     A
C875   C877    1.413   .     A
C876   C878    1.411   .     A
C877   C879    1.417   .     A
C877   C905    1.522   .     S
C878   C909    1.522   .     S
C878   C880    1.415   .     A
C879   C885    1.418   .     A
C879   C881    1.415   .     A
C880   C886    1.418   .     A
C880   C882    1.416   .     A
C881   C883    1.418   .     A
C881   C180    1.413   1_556 S
C882   C884    1.419   .     A
C883   C888    1.415   .     A
C884   C887    1.417   .     A
C885   O913    1.382   .     S
C885   C185    1.405   1_556 S
C886   O915    1.380   .     S
C887   O917    1.385   .     S
C888   O919    1.385   .     S
C888   C184    1.405   1_556 S
C889   O921    1.384   .     S
C889   C894    1.412   .     A
C890   C893    1.417   .     A
C890   O923    1.385   .     S
C890   C736    1.401   1_655 S
C891   O925    1.383   .     S
C891   C893    1.407   .     A
C891   C733    1.403   1_655 S
C892   C894    1.405   .     A
C892   O927    1.383   .     S
C895   N900    1.378   .     A
C895   O929    1.375   .     S
C895   C1366   1.414   1_545 S
C896   N899    1.378   .     A
C896   O931    1.375   .     S
C896   C1131   1.414   .     S
C897   O933    1.372   .     S
C897   N900    1.379   .     A
C897   C1364   1.414   1_545 S
C898   N899    1.379   .     A
C898   O935    1.372   .     S
C898   C1129   1.414   .     S
O901   H902    0.990   .     S
O903   H904    0.989   .     S
C905   H907    1.111   .     S
C905   H908    1.106   .     S
C905   H906    1.109   .     S
C909   H910    1.105   .     S
C909   H911    1.110   .     S
C909   H912    1.109   .     S
O913   H914    0.992   .     S
O915   H916    0.991   .     S
O917   H918    0.990   .     S
O919   H920    0.990   .     S
O921   H922    0.990   .     S
O923   H924    0.986   .     S
O925   H926    0.989   .     S
O927   H928    0.990   .     S
O929   H930    0.982   .     S
O931   H932    0.982   .     S
O933   H934    0.979   .     S
O935   H936    0.980   .     S
O937   C941    1.300   .     A
O937   Cu949   1.968   .     S
O938   C942    1.303   .     A
O938   Cu950   1.968   .     S
O939   C942    1.299   .     A
O939   Cu949   1.962   .     S
O940   C941    1.302   .     A
O940   Cu950   1.962   .     S
C941   C972    1.453   .     S
C942   C971    1.454   .     S
O943   C947    1.308   .     A
O943   Cu949   1.965   .     S
O944   C948    1.307   .     A
O944   Cu950   1.965   .     S
O945   Cu949   1.967   .     S
O945   C948    1.302   .     A
O946   Cu950   1.967   .     S
O946   C947    1.297   .     A
C947   C954    1.463   .     S
C948   C953    1.468   .     S
Cu949  N977    2.040   .     S
Cu949  Cu950   2.714   .     S
Cu950  N978    2.040   .     S
C951   C961    1.409   .     A
C951   C953    1.411   .     A
C951   O979    1.383   .     S
C952   C962    1.411   .     A
C952   O981    1.382   .     S
C952   C954    1.411   .     A
C953   C955    1.413   .     A
C954   C956    1.411   .     A
C955   C957    1.417   .     A
C955   C983    1.522   .     S
C956   C987    1.522   .     S
C956   C958    1.415   .     A
C957   C963    1.418   .     A
C957   C959    1.415   .     A
C958   C964    1.418   .     A
C958   C960    1.416   .     A
C959   C961    1.418   .     A
C959   C258    1.413   1_556 S
C960   C962    1.419   .     A
C961   C966    1.415   .     A
C962   C965    1.417   .     A
C963   O991    1.382   .     S
C963   C263    1.405   1_556 S
C964   O993    1.380   .     S
C965   O995    1.385   .     S
C966   O997    1.385   .     S
C966   C262    1.405   1_556 S
C967   O999    1.384   .     S
C967   C972    1.412   .     A
C967   C1125   1.403   1_455 S
C968   C971    1.417   .     A
C968   O1001   1.385   .     S
C968   C1048   1.401   .     S
C969   O1003   1.383   .     S
C969   C971    1.407   .     A
C969   C1045   1.403   .     S
C970   C972    1.405   .     A
C970   O1005   1.383   .     S
C970   C1124   1.401   1_455 S
C973   N978    1.378   .     A
C973   O1007   1.375   .     S
C974   N977    1.378   .     A
C974   O1009   1.375   .     S
C974   C1209   1.414   .     S
C975   O1011   1.372   .     S
C975   N978    1.379   .     A
C976   N977    1.379   .     A
C976   O1013   1.372   .     S
C976   C1207   1.414   .     S
O979   H980    0.990   .     S
O981   H982    0.989   .     S
C983   H985    1.111   .     S
C983   H986    1.106   .     S
C983   H984    1.109   .     S
C987   H988    1.105   .     S
C987   H989    1.110   .     S
C987   H990    1.109   .     S
O991   H992    0.992   .     S
O993   H994    0.991   .     S
O995   H996    0.990   .     S
O997   H998    0.990   .     S
O999   H1000   0.990   .     S
O1001  H1002   0.986   .     S
O1003  H1004   0.989   .     S
O1005  H1006   0.990   .     S
O1007  H1008   0.982   .     S
O1009  H1010   0.982   .     S
O1011  H1012   0.979   .     S
O1013  H1014   0.980   .     S
O1015  C1019   1.300   .     A
O1015  Cu1027  1.968   .     S
O1016  C1020   1.303   .     A
O1016  Cu1028  1.968   .     S
O1017  C1020   1.299   .     A
O1017  Cu1027  1.962   .     S
O1018  C1019   1.302   .     A
O1018  Cu1028  1.962   .     S
C1019  C1050   1.453   .     S
C1020  C1049   1.454   .     S
O1021  C1025   1.308   .     A
O1021  Cu1027  1.965   .     S
O1022  C1026   1.307   .     A
O1022  Cu1028  1.965   .     S
O1023  Cu1027  1.967   .     S
O1023  C1026   1.302   .     A
O1024  Cu1028  1.967   .     S
O1024  C1025   1.297   .     A
C1025  C1032   1.463   .     S
C1026  C1031   1.468   .     S
Cu1027 N1055   2.040   .     S
Cu1027 Cu1028  2.714   .     S
Cu1028 N1056   2.040   .     S
C1029  C1039   1.409   .     A
C1029  C1031   1.411   .     A
C1029  O1057   1.383   .     S
C1030  C1040   1.411   .     A
C1030  O1059   1.382   .     S
C1030  C1032   1.411   .     A
C1031  C1033   1.413   .     A
C1032  C1034   1.411   .     A
C1033  C1035   1.417   .     A
C1033  C1061   1.522   .     S
C1034  C1065   1.522   .     S
C1034  C1036   1.415   .     A
C1035  C1041   1.418   .     A
C1035  C1037   1.415   .     A
C1036  C1042   1.418   .     A
C1036  C1038   1.416   .     A
C1037  C1039   1.418   .     A
C1037  C336    1.413   1_556 S
C1038  C1040   1.419   .     A
C1039  C1044   1.415   .     A
C1040  C1043   1.417   .     A
C1041  O1069   1.382   .     S
C1041  C341    1.405   1_556 S
C1042  O1071   1.380   .     S
C1043  O1073   1.385   .     S
C1044  O1075   1.385   .     S
C1044  C340    1.405   1_556 S
C1045  O1077   1.384   .     S
C1045  C1050   1.412   .     A
C1046  C1049   1.417   .     A
C1046  O1079   1.385   .     S
C1046  C1126   1.401   .     S
C1047  O1081   1.383   .     S
C1047  C1049   1.407   .     A
C1047  C1123   1.403   .     S
C1048  C1050   1.405   .     A
C1048  O1083   1.383   .     S
C1051  N1056   1.378   .     A
C1051  O1085   1.375   .     S
C1052  N1055   1.378   .     A
C1052  O1087   1.375   .     S
C1052  C1287   1.414   .     S
C1053  O1089   1.372   .     S
C1053  N1056   1.379   .     A
C1054  N1055   1.379   .     A
C1054  O1091   1.372   .     S
C1054  C1285   1.414   .     S
O1057  H1058   0.990   .     S
O1059  H1060   0.989   .     S
C1061  H1063   1.111   .     S
C1061  H1064   1.106   .     S
C1061  H1062   1.109   .     S
C1065  H1066   1.105   .     S
C1065  H1067   1.110   .     S
C1065  H1068   1.109   .     S
O1069  H1070   0.992   .     S
O1071  H1072   0.991   .     S
O1073  H1074   0.990   .     S
O1075  H1076   0.990   .     S
O1077  H1078   0.990   .     S
O1079  H1080   0.986   .     S
O1081  H1082   0.989   .     S
O1083  H1084   0.990   .     S
O1085  H1086   0.982   .     S
O1087  H1088   0.982   .     S
O1089  H1090   0.979   .     S
O1091  H1092   0.980   .     S
O1093  C1097   1.300   .     A
O1093  Cu1105  1.968   .     S
O1094  C1098   1.303   .     A
O1094  Cu1106  1.968   .     S
O1095  C1098   1.299   .     A
O1095  Cu1105  1.962   .     S
O1096  C1097   1.302   .     A
O1096  Cu1106  1.962   .     S
C1097  C1128   1.453   .     S
C1098  C1127   1.454   .     S
O1099  C1103   1.308   .     A
O1099  Cu1105  1.965   .     S
O1100  C1104   1.307   .     A
O1100  Cu1106  1.965   .     S
O1101  Cu1105  1.967   .     S
O1101  C1104   1.302   .     A
O1102  Cu1106  1.967   .     S
O1102  C1103   1.297   .     A
C1103  C1110   1.463   .     S
C1104  C1109   1.468   .     S
Cu1105 N1133   2.040   .     S
Cu1105 Cu1106  2.714   .     S
Cu1106 N1134   2.040   .     S
C1107  C1117   1.409   .     A
C1107  C1109   1.411   .     A
C1107  O1135   1.383   .     S
C1108  C1118   1.411   .     A
C1108  O1137   1.382   .     S
C1108  C1110   1.411   .     A
C1109  C1111   1.413   .     A
C1110  C1112   1.411   .     A
C1111  C1113   1.417   .     A
C1111  C1139   1.522   .     S
C1112  C1143   1.522   .     S
C1112  C1114   1.415   .     A
C1113  C1119   1.418   .     A
C1113  C1115   1.415   .     A
C1114  C1120   1.418   .     A
C1114  C1116   1.416   .     A
C1115  C1117   1.418   .     A
C1115  C414    1.413   1_556 S
C1116  C1118   1.419   .     A
C1117  C1122   1.415   .     A
C1118  C1121   1.417   .     A
C1119  O1147   1.382   .     S
C1119  C419    1.405   1_556 S
C1120  O1149   1.380   .     S
C1121  O1151   1.385   .     S
C1122  O1153   1.385   .     S
C1122  C418    1.405   1_556 S
C1123  O1155   1.384   .     S
C1123  C1128   1.412   .     A
C1124  C1127   1.417   .     A
C1124  O1157   1.385   .     S
C1124  C970    1.401   1_655 S
C1125  O1159   1.383   .     S
C1125  C1127   1.407   .     A
C1125  C967    1.403   1_655 S
C1126  C1128   1.405   .     A
C1126  O1161   1.383   .     S
C1129  N1134   1.378   .     A
C1129  O1163   1.375   .     S
C1130  N1133   1.378   .     A
C1130  O1165   1.375   .     S
C1130  C1365   1.414   .     S
C1131  O1167   1.372   .     S
C1131  N1134   1.379   .     A
C1132  N1133   1.379   .     A
C1132  O1169   1.372   .     S
C1132  C1363   1.414   .     S
O1135  H1136   0.990   .     S
O1137  H1138   0.989   .     S
C1139  H1141   1.111   .     S
C1139  H1142   1.106   .     S
C1139  H1140   1.109   .     S
C1143  H1144   1.105   .     S
C1143  H1145   1.110   .     S
C1143  H1146   1.109   .     S
O1147  H1148   0.992   .     S
O1149  H1150   0.991   .     S
O1151  H1152   0.990   .     S
O1153  H1154   0.990   .     S
O1155  H1156   0.990   .     S
O1157  H1158   0.986   .     S
O1159  H1160   0.989   .     S
O1161  H1162   0.990   .     S
O1163  H1164   0.982   .     S
O1165  H1166   0.982   .     S
O1167  H1168   0.979   .     S
O1169  H1170   0.980   .     S
O1171  C1175   1.300   .     A
O1171  Cu1183  1.968   .     S
O1172  C1176   1.303   .     A
O1172  Cu1184  1.968   .     S
O1173  C1176   1.299   .     A
O1173  Cu1183  1.962   .     S
O1174  C1175   1.302   .     A
O1174  Cu1184  1.962   .     S
C1175  C1206   1.453   .     S
C1176  C1205   1.454   .     S
O1177  C1181   1.308   .     A
O1177  Cu1183  1.965   .     S
O1178  C1182   1.307   .     A
O1178  Cu1184  1.965   .     S
O1179  Cu1183  1.967   .     S
O1179  C1182   1.302   .     A
O1180  Cu1184  1.967   .     S
O1180  C1181   1.297   .     A
C1181  C1188   1.463   .     S
C1182  C1187   1.468   .     S
Cu1183 N1211   2.040   .     S
Cu1183 Cu1184  2.714   .     S
Cu1184 N1212   2.040   .     S
C1185  C1195   1.409   .     A
C1185  C1187   1.411   .     A
C1185  O1213   1.383   .     S
C1186  C1196   1.411   .     A
C1186  O1215   1.382   .     S
C1186  C1188   1.411   .     A
C1187  C1189   1.413   .     A
C1188  C1190   1.411   .     A
C1189  C1191   1.417   .     A
C1189  C1217   1.522   .     S
C1190  C1221   1.522   .     S
C1190  C1192   1.415   .     A
C1191  C1197   1.418   .     A
C1191  C1193   1.415   .     A
C1192  C1198   1.418   .     A
C1192  C1194   1.416   .     A
C1193  C1195   1.418   .     A
C1193  C492    1.413   1_556 S
C1194  C1196   1.419   .     A
C1195  C1200   1.415   .     A
C1196  C1199   1.417   .     A
C1197  O1225   1.382   .     S
C1197  C497    1.405   1_556 S
C1198  O1227   1.380   .     S
C1199  O1229   1.385   .     S
C1200  O1231   1.385   .     S
C1200  C496    1.405   1_556 S
C1201  O1233   1.384   .     S
C1201  C1206   1.412   .     A
C1201  C1359   1.403   1_455 S
C1202  C1205   1.417   .     A
C1202  O1235   1.385   .     S
C1202  C1282   1.401   .     S
C1203  O1237   1.383   .     S
C1203  C1205   1.407   .     A
C1203  C1279   1.403   .     S
C1204  C1206   1.405   .     A
C1204  O1239   1.383   .     S
C1204  C1358   1.401   1_455 S
C1207  N1212   1.378   .     A
C1207  O1241   1.375   .     S
C1208  N1211   1.378   .     A
C1208  O1243   1.375   .     S
C1208  C741    1.414   1_565 S
C1209  O1245   1.372   .     S
C1209  N1212   1.379   .     A
C1210  N1211   1.379   .     A
C1210  O1247   1.372   .     S
C1210  C739    1.414   1_565 S
O1213  H1214   0.990   .     S
O1215  H1216   0.989   .     S
C1217  H1219   1.111   .     S
C1217  H1220   1.106   .     S
C1217  H1218   1.109   .     S
C1221  H1222   1.105   .     S
C1221  H1223   1.110   .     S
C1221  H1224   1.109   .     S
O1225  H1226   0.992   .     S
O1227  H1228   0.991   .     S
O1229  H1230   0.990   .     S
O1231  H1232   0.990   .     S
O1233  H1234   0.990   .     S
O1235  H1236   0.986   .     S
O1237  H1238   0.989   .     S
O1239  H1240   0.990   .     S
O1241  H1242   0.982   .     S
O1243  H1244   0.982   .     S
O1245  H1246   0.979   .     S
O1247  H1248   0.980   .     S
O1249  C1253   1.300   .     A
O1249  Cu1261  1.968   .     S
O1250  C1254   1.303   .     A
O1250  Cu1262  1.968   .     S
O1251  C1254   1.299   .     A
O1251  Cu1261  1.962   .     S
O1252  C1253   1.302   .     A
O1252  Cu1262  1.962   .     S
C1253  C1284   1.453   .     S
C1254  C1283   1.454   .     S
O1255  C1259   1.308   .     A
O1255  Cu1261  1.965   .     S
O1256  C1260   1.307   .     A
O1256  Cu1262  1.965   .     S
O1257  Cu1261  1.967   .     S
O1257  C1260   1.302   .     A
O1258  Cu1262  1.967   .     S
O1258  C1259   1.297   .     A
C1259  C1266   1.463   .     S
C1260  C1265   1.468   .     S
Cu1261 N1289   2.040   .     S
Cu1261 Cu1262  2.714   .     S
Cu1262 N1290   2.040   .     S
C1263  C1273   1.409   .     A
C1263  C1265   1.411   .     A
C1263  O1291   1.383   .     S
C1264  C1274   1.411   .     A
C1264  O1293   1.382   .     S
C1264  C1266   1.411   .     A
C1265  C1267   1.413   .     A
C1266  C1268   1.411   .     A
C1267  C1269   1.417   .     A
C1267  C1295   1.522   .     S
C1268  C1299   1.522   .     S
C1268  C1270   1.415   .     A
C1269  C1275   1.418   .     A
C1269  C1271   1.415   .     A
C1270  C1276   1.418   .     A
C1270  C1272   1.416   .     A
C1271  C1273   1.418   .     A
C1271  C570    1.413   1_556 S
C1272  C1274   1.419   .     A
C1273  C1278   1.415   .     A
C1274  C1277   1.417   .     A
C1275  O1303   1.382   .     S
C1275  C575    1.405   1_556 S
C1276  O1305   1.380   .     S
C1277  O1307   1.385   .     S
C1278  O1309   1.385   .     S
C1278  C574    1.405   1_556 S
C1279  O1311   1.384   .     S
C1279  C1284   1.412   .     A
C1280  C1283   1.417   .     A
C1280  O1313   1.385   .     S
C1280  C1360   1.401   .     S
C1281  O1315   1.383   .     S
C1281  C1283   1.407   .     A
C1281  C1357   1.403   .     S
C1282  C1284   1.405   .     A
C1282  O1317   1.383   .     S
C1285  N1290   1.378   .     A
C1285  O1319   1.375   .     S
C1286  N1289   1.378   .     A
C1286  O1321   1.375   .     S
C1286  C819    1.414   1_565 S
C1287  O1323   1.372   .     S
C1287  N1290   1.379   .     A
C1288  N1289   1.379   .     A
C1288  O1325   1.372   .     S
C1288  C817    1.414   1_565 S
O1291  H1292   0.990   .     S
O1293  H1294   0.989   .     S
C1295  H1297   1.111   .     S
C1295  H1298   1.106   .     S
C1295  H1296   1.109   .     S
C1299  H1300   1.105   .     S
C1299  H1301   1.110   .     S
C1299  H1302   1.109   .     S
O1303  H1304   0.992   .     S
O1305  H1306   0.991   .     S
O1307  H1308   0.990   .     S
O1309  H1310   0.990   .     S
O1311  H1312   0.990   .     S
O1313  H1314   0.986   .     S
O1315  H1316   0.989   .     S
O1317  H1318   0.990   .     S
O1319  H1320   0.982   .     S
O1321  H1322   0.982   .     S
O1323  H1324   0.979   .     S
O1325  H1326   0.980   .     S
O1327  C1331   1.300   .     A
O1327  Cu1339  1.968   .     S
O1328  C1332   1.303   .     A
O1328  Cu1340  1.968   .     S
O1329  C1332   1.299   .     A
O1329  Cu1339  1.962   .     S
O1330  C1331   1.302   .     A
O1330  Cu1340  1.962   .     S
C1331  C1362   1.453   .     S
C1332  C1361   1.454   .     S
O1333  C1337   1.308   .     A
O1333  Cu1339  1.965   .     S
O1334  C1338   1.307   .     A
O1334  Cu1340  1.965   .     S
O1335  Cu1339  1.967   .     S
O1335  C1338   1.302   .     A
O1336  Cu1340  1.967   .     S
O1336  C1337   1.297   .     A
C1337  C1344   1.463   .     S
C1338  C1343   1.468   .     S
Cu1339 N1367   2.040   .     S
Cu1339 Cu1340  2.714   .     S
Cu1340 N1368   2.040   .     S
C1341  C1351   1.409   .     A
C1341  C1343   1.411   .     A
C1341  O1369   1.383   .     S
C1342  C1352   1.411   .     A
C1342  O1371   1.382   .     S
C1342  C1344   1.411   .     A
C1343  C1345   1.413   .     A
C1344  C1346   1.411   .     A
C1345  C1347   1.417   .     A
C1345  C1373   1.522   .     S
C1346  C1377   1.522   .     S
C1346  C1348   1.415   .     A
C1347  C1353   1.418   .     A
C1347  C1349   1.415   .     A
C1348  C1354   1.418   .     A
C1348  C1350   1.416   .     A
C1349  C1351   1.418   .     A
C1349  C648    1.413   1_556 S
C1350  C1352   1.419   .     A
C1351  C1356   1.415   .     A
C1352  C1355   1.417   .     A
C1353  O1381   1.382   .     S
C1353  C653    1.405   1_556 S
C1354  O1383   1.380   .     S
C1355  O1385   1.385   .     S
C1356  O1387   1.385   .     S
C1356  C652    1.405   1_556 S
C1357  O1389   1.384   .     S
C1357  C1362   1.412   .     A
C1358  C1361   1.417   .     A
C1358  O1391   1.385   .     S
C1358  C1204   1.401   1_655 S
C1359  O1393   1.383   .     S
C1359  C1361   1.407   .     A
C1359  C1201   1.403   1_655 S
C1360  C1362   1.405   .     A
C1360  O1395   1.383   .     S
C1363  N1368   1.378   .     A
C1363  O1397   1.375   .     S
C1364  N1367   1.378   .     A
C1364  O1399   1.375   .     S
C1364  C897    1.414   1_565 S
C1365  O1401   1.372   .     S
C1365  N1368   1.379   .     A
C1366  N1367   1.379   .     A
C1366  O1403   1.372   .     S
C1366  C895    1.414   1_565 S
O1369  H1370   0.990   .     S
O1371  H1372   0.989   .     S
C1373  H1375   1.111   .     S
C1373  H1376   1.106   .     S
C1373  H1374   1.109   .     S
C1377  H1378   1.105   .     S
C1377  H1379   1.110   .     S
C1377  H1380   1.109   .     S
O1381  H1382   0.992   .     S
O1383  H1384   0.991   .     S
O1385  H1386   0.990   .     S
O1387  H1388   0.990   .     S
O1389  H1390   0.990   .     S
O1391  H1392   0.986   .     S
O1393  H1394   0.989   .     S
O1395  H1396   0.990   .     S
O1397  H1398   0.982   .     S
O1399  H1400   0.982   .     S
O1401  H1402   0.979   .     S
O1403  H1404   0.980   .     S
