data_str_m2_o1_o16_pcu_sym.22
_audit_creation_date              2020-01-03
_audit_creation_method            'Materials Studio'
_symmetry_space_group_name_H-M    'P1'
_symmetry_Int_Tables_number       1
_symmetry_cell_setting            triclinic
loop_
_symmetry_equiv_pos_as_xyz
  x,y,z
_cell_length_a                    28.6291
_cell_length_b                    32.3464
_cell_length_c                    26.7873
_cell_angle_alpha                 90.0297
_cell_angle_beta                  73.2729
_cell_angle_gamma                 89.9141
loop_
_atom_site_label
_atom_site_type_symbol
_atom_site_fract_x
_atom_site_fract_y
_atom_site_fract_z
_atom_site_U_iso_or_equiv
_atom_site_adp_type
_atom_site_occupancy
C1     C     0.16676   0.24591   0.24956   0.00000  Uiso   1.00
C2     C     0.12796   0.14811   0.40486   0.00000  Uiso   1.00
C3     C     0.20945   0.31155   0.22149   0.00000  Uiso   1.00
C4     C     0.14128   0.16089   0.34930   0.00000  Uiso   1.00
C5     C     0.20934   0.02111   0.21890   0.00000  Uiso   1.00
C6     C     0.16715   0.04281   0.24691   0.00000  Uiso   1.00
C7     C     0.12454   0.02155   0.27278   0.00000  Uiso   1.00
C8     C     0.12427   0.31215   0.27288   0.00000  Uiso   1.00
C9     C     0.16693   0.29051   0.24817   0.00000  Uiso   1.00
C10    C     0.30029   0.19392   0.28004   0.00000  Uiso   1.00
C11    C     0.01647   0.19346   0.28136   0.00000  Uiso   1.00
C12    C     0.14867   0.14141   0.48717   0.00000  Uiso   1.00
C13    C     0.03375   0.13935   0.21879   0.00000  Uiso   1.00
C14    C     0.31650   0.13945   0.21978   0.00000  Uiso   1.00
C15    C     0.16686   0.08744   0.24919   0.00000  Uiso   1.00
C16    C     0.19256   0.16612   0.15000   0.00000  Uiso   1.00
C17    C     0.26930   0.15997   0.01029   0.00000  Uiso   1.00
C18    C     0.20723   0.16223   0.09319   0.00000  Uiso   1.00
C19    C     0.07868   0.14170   0.43191   0.00000  Uiso   1.00
C20    C     0.06504   0.13241   0.48489   0.00000  Uiso   1.00
C21    C     0.09894   0.13437   0.01287   0.00000  Uiso   1.00
C22    C     0.24557   0.05681   0.14354   0.00000  Uiso   1.00
C23    C     0.16372   0.14213   0.43194   0.00000  Uiso   1.00
C24    C     0.26483   0.02568   0.09933   0.00000  Uiso   1.00
C25    C     0.26376   0.04377   0.04703   0.00000  Uiso   1.00
C26    C     0.00495   0.22500   0.36235   0.00000  Uiso   1.00
C27    C     0.31730   0.26837   0.37435   0.00000  Uiso   1.00
C28    C     0.05320   0.08348   0.15766   0.00000  Uiso   1.00
C29    C     0.03162   0.04587   0.19070   0.00000  Uiso   1.00
C30    C     0.18419   0.14749   0.01415   0.00000  Uiso   1.00
C31    C     0.23416   0.14938   0.48561   0.00000  Uiso   1.00
C32    C     0.24853   0.14029   0.43270   0.00000  Uiso   1.00
C33    C     0.21380   0.13588   0.40629   0.00000  Uiso   1.00
C34    C     0.17153   0.15404   0.06814   0.00000  Uiso   1.00
C35    C     0.25618   0.16572   0.06396   0.00000  Uiso   1.00
Cu36   Cu    0.11978   0.16666   0.25000   0.00000  Uiso   1.00
Cu37   Cu    0.21355   0.16667   0.25000   0.00000  Uiso   1.00
H38    H     0.28418   0.17305   0.08245   0.00000  Uiso   1.00
H39    H     0.08554   0.12863   0.05414   0.00000  Uiso   1.00
H40    H     0.02785   0.12441   0.00514   0.00000  Uiso   1.00
H41    H     0.22717   0.12615   0.36620   0.00000  Uiso   1.00
H42    H     0.24225   0.29472   0.20141   0.00000  Uiso   1.00
H43    H     0.26748   0.08554   0.13384   0.00000  Uiso   1.00
H44    H     0.20729   0.06564   0.14588   0.00000  Uiso   1.00
H45    H     0.30296   0.01705   0.09717   0.00000  Uiso   1.00
H46    H     0.24204   0.33066   0.10724   0.00000  Uiso   1.00
H47    H     0.22600   0.05293   0.04832   0.00000  Uiso   1.00
H48    H     0.27691   0.02029   0.01587   0.00000  Uiso   1.00
H49    H     0.09170   0.03799   0.29363   0.00000  Uiso   1.00
H50    H     0.28788   0.07126   0.03735   0.00000  Uiso   1.00
H51    H     0.02899   0.21887   0.38750   0.00000  Uiso   1.00
H52    H     0.30818   0.20210   0.37374   0.00000  Uiso   1.00
H53    H     0.29370   0.27596   0.34921   0.00000  Uiso   1.00
H54    H     0.29519   0.27026   0.41581   0.00000  Uiso   1.00
H55    H     0.01392   0.29135   0.36741   0.00000  Uiso   1.00
H56    H     0.08582   0.07253   0.12686   0.00000  Uiso   1.00
H57    H     0.02890   0.09635   0.13586   0.00000  Uiso   1.00
H58    H     0.01988   0.02272   0.16619   0.00000  Uiso   1.00
H59    H     0.05959   0.03153   0.20656   0.00000  Uiso   1.00
H60    H     0.09121   0.29603   0.29337   0.00000  Uiso   1.00
H61    H     0.33308   0.05464   0.22370   0.00000  Uiso   1.00
H62    H     0.27487   0.21624   0.30296   0.00000  Uiso   1.00
H63    H     0.30227   0.11821   0.19694   0.00000  Uiso   1.00
H64    H     0.28679   0.13695   0.41155   0.00000  Uiso   1.00
H65    H     0.30665   0.16468   0.48755   0.00000  Uiso   1.00
H66    H     0.13394   0.15369   0.09134   0.00000  Uiso   1.00
H67    H     0.05077   0.14301   0.41193   0.00000  Uiso   1.00
N68    N     0.04931   0.16666   0.24999   0.00000  Uiso   1.00
N69    N     0.28402   0.16669   0.25000   0.00000  Uiso   1.00
O70    O     0.12708   0.22678   0.25001   0.00000  Uiso   1.00
O71    O     0.03371   0.22267   0.30965   0.00000  Uiso   1.00
O72    O     0.06938   0.11338   0.18740   0.00000  Uiso   1.00
O73    O     0.20627   0.22679   0.25001   0.00000  Uiso   1.00
O74    O     0.10775   0.16665   0.32549   0.00000  Uiso   1.00
O75    O     0.18694   0.16666   0.32549   0.00000  Uiso   1.00
O76    O     0.12706   0.10654   0.25000   0.00000  Uiso   1.00
O77    O     0.20625   0.10655   0.25000   0.00000  Uiso   1.00
O78    O     0.14640   0.16667   0.17451   0.00000  Uiso   1.00
O79    O     0.22559   0.16668   0.17451   0.00000  Uiso   1.00
O80    O     0.25134   0.04128   0.19091   0.00000  Uiso   1.00
C81    C     0.50009   0.24591   0.24956   0.00000  Uiso   1.00
C82    C     0.46130   0.14811   0.40486   0.00000  Uiso   1.00
C83    C     0.54279   0.31155   0.22149   0.00000  Uiso   1.00
C84    C     0.47462   0.16089   0.34930   0.00000  Uiso   1.00
C85    C     0.54267   0.02111   0.21890   0.00000  Uiso   1.00
C86    C     0.50048   0.04281   0.24691   0.00000  Uiso   1.00
C87    C     0.45787   0.02155   0.27278   0.00000  Uiso   1.00
C88    C     0.45761   0.31215   0.27288   0.00000  Uiso   1.00
C89    C     0.50027   0.29051   0.24817   0.00000  Uiso   1.00
C90    C     0.63362   0.19392   0.28004   0.00000  Uiso   1.00
C91    C     0.34981   0.19346   0.28136   0.00000  Uiso   1.00
C92    C     0.48200   0.14141   0.48717   0.00000  Uiso   1.00
C93    C     0.36709   0.13935   0.21879   0.00000  Uiso   1.00
C94    C     0.64983   0.13945   0.21978   0.00000  Uiso   1.00
C95    C     0.50019   0.08744   0.24919   0.00000  Uiso   1.00
C96    C     0.52589   0.16612   0.15000   0.00000  Uiso   1.00
C97    C     0.60263   0.15997   0.01029   0.00000  Uiso   1.00
C98    C     0.54057   0.16223   0.09319   0.00000  Uiso   1.00
C99    C     0.41201   0.14170   0.43191   0.00000  Uiso   1.00
C100   C     0.39837   0.13241   0.48489   0.00000  Uiso   1.00
C101   C     0.43227   0.13437   0.01287   0.00000  Uiso   1.00
C102   C     0.57890   0.05681   0.14354   0.00000  Uiso   1.00
C103   C     0.49706   0.14213   0.43194   0.00000  Uiso   1.00
C104   C     0.59816   0.02568   0.09933   0.00000  Uiso   1.00
C105   C     0.59709   0.04377   0.04703   0.00000  Uiso   1.00
C106   C     0.33828   0.22500   0.36235   0.00000  Uiso   1.00
C107   C     0.65064   0.26837   0.37435   0.00000  Uiso   1.00
C108   C     0.38653   0.08348   0.15766   0.00000  Uiso   1.00
C109   C     0.36495   0.04587   0.19070   0.00000  Uiso   1.00
C110   C     0.51752   0.14749   0.01415   0.00000  Uiso   1.00
C111   C     0.56749   0.14938   0.48561   0.00000  Uiso   1.00
C112   C     0.58187   0.14029   0.43270   0.00000  Uiso   1.00
C113   C     0.54713   0.13588   0.40629   0.00000  Uiso   1.00
C114   C     0.50486   0.15404   0.06814   0.00000  Uiso   1.00
C115   C     0.58951   0.16572   0.06396   0.00000  Uiso   1.00
Cu116  Cu    0.45311   0.16666   0.25000   0.00000  Uiso   1.00
Cu117  Cu    0.54689   0.16667   0.25000   0.00000  Uiso   1.00
H118   H     0.61751   0.17305   0.08245   0.00000  Uiso   1.00
H119   H     0.41887   0.12863   0.05414   0.00000  Uiso   1.00
H120   H     0.36119   0.12441   0.00514   0.00000  Uiso   1.00
H121   H     0.56051   0.12615   0.36620   0.00000  Uiso   1.00
H122   H     0.57559   0.29472   0.20141   0.00000  Uiso   1.00
H123   H     0.60081   0.08554   0.13384   0.00000  Uiso   1.00
H124   H     0.54062   0.06564   0.14588   0.00000  Uiso   1.00
H125   H     0.63629   0.01705   0.09717   0.00000  Uiso   1.00
H126   H     0.57537   0.33066   0.10724   0.00000  Uiso   1.00
H127   H     0.55934   0.05293   0.04832   0.00000  Uiso   1.00
H128   H     0.61024   0.02029   0.01587   0.00000  Uiso   1.00
H129   H     0.42503   0.03799   0.29363   0.00000  Uiso   1.00
H130   H     0.62122   0.07126   0.03735   0.00000  Uiso   1.00
H131   H     0.36233   0.21887   0.38750   0.00000  Uiso   1.00
H132   H     0.64151   0.20210   0.37374   0.00000  Uiso   1.00
H133   H     0.62703   0.27596   0.34921   0.00000  Uiso   1.00
H134   H     0.62852   0.27026   0.41581   0.00000  Uiso   1.00
H135   H     0.34726   0.29135   0.36741   0.00000  Uiso   1.00
H136   H     0.41915   0.07253   0.12686   0.00000  Uiso   1.00
H137   H     0.36223   0.09635   0.13586   0.00000  Uiso   1.00
H138   H     0.35321   0.02272   0.16619   0.00000  Uiso   1.00
H139   H     0.39293   0.03153   0.20656   0.00000  Uiso   1.00
H140   H     0.42454   0.29603   0.29337   0.00000  Uiso   1.00
H141   H     0.66641   0.05464   0.22370   0.00000  Uiso   1.00
H142   H     0.60820   0.21624   0.30296   0.00000  Uiso   1.00
H143   H     0.63561   0.11821   0.19694   0.00000  Uiso   1.00
H144   H     0.62013   0.13695   0.41155   0.00000  Uiso   1.00
H145   H     0.63998   0.16468   0.48755   0.00000  Uiso   1.00
H146   H     0.46728   0.15369   0.09134   0.00000  Uiso   1.00
H147   H     0.38410   0.14301   0.41193   0.00000  Uiso   1.00
N148   N     0.38265   0.16666   0.24999   0.00000  Uiso   1.00
N149   N     0.61735   0.16669   0.25000   0.00000  Uiso   1.00
O150   O     0.46042   0.22678   0.25001   0.00000  Uiso   1.00
O151   O     0.36704   0.22267   0.30965   0.00000  Uiso   1.00
O152   O     0.40271   0.11338   0.18740   0.00000  Uiso   1.00
O153   O     0.53961   0.22679   0.25001   0.00000  Uiso   1.00
O154   O     0.44108   0.16665   0.32549   0.00000  Uiso   1.00
O155   O     0.52027   0.16666   0.32549   0.00000  Uiso   1.00
O156   O     0.46039   0.10654   0.25000   0.00000  Uiso   1.00
O157   O     0.53958   0.10655   0.25000   0.00000  Uiso   1.00
O158   O     0.47973   0.16667   0.17451   0.00000  Uiso   1.00
O159   O     0.55892   0.16668   0.17451   0.00000  Uiso   1.00
O160   O     0.58468   0.04128   0.19091   0.00000  Uiso   1.00
C161   C     0.83343   0.24591   0.24956   0.00000  Uiso   1.00
C162   C     0.79463   0.14811   0.40486   0.00000  Uiso   1.00
C163   C     0.87612   0.31155   0.22149   0.00000  Uiso   1.00
C164   C     0.80795   0.16089   0.34930   0.00000  Uiso   1.00
C165   C     0.87600   0.02111   0.21890   0.00000  Uiso   1.00
C166   C     0.83382   0.04281   0.24691   0.00000  Uiso   1.00
C167   C     0.79120   0.02155   0.27278   0.00000  Uiso   1.00
C168   C     0.79094   0.31215   0.27288   0.00000  Uiso   1.00
C169   C     0.83360   0.29051   0.24817   0.00000  Uiso   1.00
C170   C     0.96696   0.19392   0.28004   0.00000  Uiso   1.00
C171   C     0.68314   0.19346   0.28136   0.00000  Uiso   1.00
C172   C     0.81533   0.14141   0.48717   0.00000  Uiso   1.00
C173   C     0.70042   0.13935   0.21879   0.00000  Uiso   1.00
C174   C     0.98317   0.13945   0.21978   0.00000  Uiso   1.00
C175   C     0.83352   0.08744   0.24919   0.00000  Uiso   1.00
C176   C     0.85923   0.16612   0.15000   0.00000  Uiso   1.00
C177   C     0.93596   0.15997   0.01029   0.00000  Uiso   1.00
C178   C     0.87390   0.16223   0.09319   0.00000  Uiso   1.00
C179   C     0.74535   0.14170   0.43191   0.00000  Uiso   1.00
C180   C     0.73170   0.13241   0.48489   0.00000  Uiso   1.00
C181   C     0.76561   0.13437   0.01287   0.00000  Uiso   1.00
C182   C     0.91224   0.05681   0.14354   0.00000  Uiso   1.00
C183   C     0.83039   0.14213   0.43194   0.00000  Uiso   1.00
C184   C     0.93150   0.02568   0.09933   0.00000  Uiso   1.00
C185   C     0.93043   0.04377   0.04703   0.00000  Uiso   1.00
C186   C     0.67162   0.22500   0.36235   0.00000  Uiso   1.00
C187   C     0.98397   0.26837   0.37435   0.00000  Uiso   1.00
C188   C     0.71986   0.08348   0.15766   0.00000  Uiso   1.00
C189   C     0.69828   0.04587   0.19070   0.00000  Uiso   1.00
C190   C     0.85086   0.14749   0.01415   0.00000  Uiso   1.00
C191   C     0.90082   0.14938   0.48561   0.00000  Uiso   1.00
C192   C     0.91520   0.14029   0.43270   0.00000  Uiso   1.00
C193   C     0.88047   0.13588   0.40629   0.00000  Uiso   1.00
C194   C     0.83820   0.15404   0.06814   0.00000  Uiso   1.00
C195   C     0.92285   0.16572   0.06396   0.00000  Uiso   1.00
Cu196  Cu    0.78645   0.16666   0.25000   0.00000  Uiso   1.00
Cu197  Cu    0.88022   0.16667   0.25000   0.00000  Uiso   1.00
H198   H     0.95084   0.17305   0.08245   0.00000  Uiso   1.00
H199   H     0.75221   0.12863   0.05414   0.00000  Uiso   1.00
H200   H     0.69452   0.12441   0.00514   0.00000  Uiso   1.00
H201   H     0.89384   0.12615   0.36620   0.00000  Uiso   1.00
H202   H     0.90892   0.29472   0.20141   0.00000  Uiso   1.00
H203   H     0.93415   0.08554   0.13384   0.00000  Uiso   1.00
H204   H     0.87395   0.06564   0.14588   0.00000  Uiso   1.00
H205   H     0.96962   0.01705   0.09717   0.00000  Uiso   1.00
H206   H     0.90871   0.33066   0.10724   0.00000  Uiso   1.00
H207   H     0.89267   0.05293   0.04832   0.00000  Uiso   1.00
H208   H     0.94358   0.02029   0.01587   0.00000  Uiso   1.00
H209   H     0.75836   0.03799   0.29363   0.00000  Uiso   1.00
H210   H     0.95455   0.07126   0.03735   0.00000  Uiso   1.00
H211   H     0.69566   0.21887   0.38750   0.00000  Uiso   1.00
H212   H     0.97485   0.20210   0.37374   0.00000  Uiso   1.00
H213   H     0.96037   0.27596   0.34921   0.00000  Uiso   1.00
H214   H     0.96185   0.27026   0.41581   0.00000  Uiso   1.00
H215   H     0.68059   0.29135   0.36741   0.00000  Uiso   1.00
H216   H     0.75248   0.07253   0.12686   0.00000  Uiso   1.00
H217   H     0.69556   0.09635   0.13586   0.00000  Uiso   1.00
H218   H     0.68655   0.02272   0.16619   0.00000  Uiso   1.00
H219   H     0.72626   0.03153   0.20656   0.00000  Uiso   1.00
H220   H     0.75787   0.29603   0.29337   0.00000  Uiso   1.00
H221   H     0.99974   0.05464   0.22370   0.00000  Uiso   1.00
H222   H     0.94154   0.21624   0.30296   0.00000  Uiso   1.00
H223   H     0.96894   0.11821   0.19694   0.00000  Uiso   1.00
H224   H     0.95346   0.13695   0.41155   0.00000  Uiso   1.00
H225   H     0.97331   0.16468   0.48755   0.00000  Uiso   1.00
H226   H     0.80061   0.15369   0.09134   0.00000  Uiso   1.00
H227   H     0.71744   0.14301   0.41193   0.00000  Uiso   1.00
N228   N     0.71598   0.16666   0.24999   0.00000  Uiso   1.00
N229   N     0.95069   0.16669   0.25000   0.00000  Uiso   1.00
O230   O     0.79375   0.22678   0.25001   0.00000  Uiso   1.00
O231   O     0.70037   0.22267   0.30965   0.00000  Uiso   1.00
O232   O     0.73604   0.11338   0.18740   0.00000  Uiso   1.00
O233   O     0.87294   0.22679   0.25001   0.00000  Uiso   1.00
O234   O     0.77441   0.16665   0.32549   0.00000  Uiso   1.00
O235   O     0.85360   0.16666   0.32549   0.00000  Uiso   1.00
O236   O     0.79373   0.10654   0.25000   0.00000  Uiso   1.00
O237   O     0.87292   0.10655   0.25000   0.00000  Uiso   1.00
O238   O     0.81306   0.16667   0.17451   0.00000  Uiso   1.00
O239   O     0.89225   0.16668   0.17451   0.00000  Uiso   1.00
O240   O     0.91801   0.04128   0.19091   0.00000  Uiso   1.00
C241   C     0.16676   0.57925   0.24956   0.00000  Uiso   1.00
C242   C     0.12796   0.48145   0.40486   0.00000  Uiso   1.00
C243   C     0.20945   0.64488   0.22149   0.00000  Uiso   1.00
C244   C     0.14128   0.49422   0.34930   0.00000  Uiso   1.00
C245   C     0.20934   0.35444   0.21890   0.00000  Uiso   1.00
C246   C     0.16715   0.37615   0.24691   0.00000  Uiso   1.00
C247   C     0.12454   0.35488   0.27278   0.00000  Uiso   1.00
C248   C     0.12427   0.64549   0.27288   0.00000  Uiso   1.00
C249   C     0.16693   0.62384   0.24817   0.00000  Uiso   1.00
C250   C     0.30029   0.52726   0.28004   0.00000  Uiso   1.00
C251   C     0.01647   0.52679   0.28136   0.00000  Uiso   1.00
C252   C     0.14867   0.47474   0.48717   0.00000  Uiso   1.00
C253   C     0.03375   0.47268   0.21879   0.00000  Uiso   1.00
C254   C     0.31650   0.47278   0.21978   0.00000  Uiso   1.00
C255   C     0.16686   0.42077   0.24919   0.00000  Uiso   1.00
C256   C     0.19256   0.49946   0.15000   0.00000  Uiso   1.00
C257   C     0.26930   0.49330   0.01029   0.00000  Uiso   1.00
C258   C     0.20723   0.49557   0.09319   0.00000  Uiso   1.00
C259   C     0.07868   0.47504   0.43191   0.00000  Uiso   1.00
C260   C     0.06504   0.46574   0.48489   0.00000  Uiso   1.00
C261   C     0.09894   0.46770   0.01287   0.00000  Uiso   1.00
C262   C     0.24557   0.39014   0.14354   0.00000  Uiso   1.00
C263   C     0.16372   0.47546   0.43194   0.00000  Uiso   1.00
C264   C     0.26483   0.35902   0.09933   0.00000  Uiso   1.00
C265   C     0.26376   0.37711   0.04703   0.00000  Uiso   1.00
C266   C     0.00495   0.55833   0.36235   0.00000  Uiso   1.00
C267   C     0.31730   0.60171   0.37435   0.00000  Uiso   1.00
C268   C     0.05320   0.41681   0.15766   0.00000  Uiso   1.00
C269   C     0.03162   0.37920   0.19070   0.00000  Uiso   1.00
C270   C     0.18419   0.48082   0.01415   0.00000  Uiso   1.00
C271   C     0.23416   0.48272   0.48561   0.00000  Uiso   1.00
C272   C     0.24853   0.47362   0.43270   0.00000  Uiso   1.00
C273   C     0.21380   0.46921   0.40629   0.00000  Uiso   1.00
C274   C     0.17153   0.48738   0.06814   0.00000  Uiso   1.00
C275   C     0.25618   0.49906   0.06396   0.00000  Uiso   1.00
Cu276  Cu    0.11978   0.49999   0.25000   0.00000  Uiso   1.00
Cu277  Cu    0.21355   0.50001   0.25000   0.00000  Uiso   1.00
H278   H     0.28418   0.50638   0.08245   0.00000  Uiso   1.00
H279   H     0.08554   0.46196   0.05414   0.00000  Uiso   1.00
H280   H     0.02785   0.45774   0.00514   0.00000  Uiso   1.00
H281   H     0.22717   0.45949   0.36620   0.00000  Uiso   1.00
H282   H     0.24225   0.62805   0.20141   0.00000  Uiso   1.00
H283   H     0.26748   0.41887   0.13384   0.00000  Uiso   1.00
H284   H     0.20729   0.39897   0.14588   0.00000  Uiso   1.00
H285   H     0.30296   0.35039   0.09717   0.00000  Uiso   1.00
H286   H     0.24204   0.66399   0.10724   0.00000  Uiso   1.00
H287   H     0.22600   0.38627   0.04832   0.00000  Uiso   1.00
H288   H     0.27691   0.35362   0.01587   0.00000  Uiso   1.00
H289   H     0.09170   0.37133   0.29363   0.00000  Uiso   1.00
H290   H     0.28788   0.40459   0.03735   0.00000  Uiso   1.00
H291   H     0.02899   0.55221   0.38750   0.00000  Uiso   1.00
H292   H     0.30818   0.53544   0.37374   0.00000  Uiso   1.00
H293   H     0.29370   0.60929   0.34921   0.00000  Uiso   1.00
H294   H     0.29519   0.60359   0.41581   0.00000  Uiso   1.00
H295   H     0.01392   0.62469   0.36741   0.00000  Uiso   1.00
H296   H     0.08582   0.40586   0.12686   0.00000  Uiso   1.00
H297   H     0.02890   0.42968   0.13586   0.00000  Uiso   1.00
H298   H     0.01988   0.35605   0.16619   0.00000  Uiso   1.00
H299   H     0.05959   0.36486   0.20656   0.00000  Uiso   1.00
H300   H     0.09121   0.62936   0.29337   0.00000  Uiso   1.00
H301   H     0.33308   0.38797   0.22370   0.00000  Uiso   1.00
H302   H     0.27487   0.54957   0.30296   0.00000  Uiso   1.00
H303   H     0.30227   0.45154   0.19694   0.00000  Uiso   1.00
H304   H     0.28679   0.47029   0.41155   0.00000  Uiso   1.00
H305   H     0.30665   0.49801   0.48755   0.00000  Uiso   1.00
H306   H     0.13394   0.48702   0.09134   0.00000  Uiso   1.00
H307   H     0.05077   0.47634   0.41193   0.00000  Uiso   1.00
N308   N     0.04931   0.49999   0.24999   0.00000  Uiso   1.00
N309   N     0.28402   0.50002   0.25000   0.00000  Uiso   1.00
O310   O     0.12708   0.56011   0.25001   0.00000  Uiso   1.00
O311   O     0.03371   0.55600   0.30965   0.00000  Uiso   1.00
O312   O     0.06938   0.44672   0.18740   0.00000  Uiso   1.00
O313   O     0.20627   0.56012   0.25001   0.00000  Uiso   1.00
O314   O     0.10775   0.49998   0.32549   0.00000  Uiso   1.00
O315   O     0.18694   0.49999   0.32549   0.00000  Uiso   1.00
O316   O     0.12706   0.43988   0.25000   0.00000  Uiso   1.00
O317   O     0.20625   0.43989   0.25000   0.00000  Uiso   1.00
O318   O     0.14640   0.50001   0.17451   0.00000  Uiso   1.00
O319   O     0.22559   0.50002   0.17451   0.00000  Uiso   1.00
O320   O     0.25134   0.37461   0.19091   0.00000  Uiso   1.00
C321   C     0.50009   0.57925   0.24956   0.00000  Uiso   1.00
C322   C     0.46130   0.48145   0.40486   0.00000  Uiso   1.00
C323   C     0.54279   0.64488   0.22149   0.00000  Uiso   1.00
C324   C     0.47462   0.49422   0.34930   0.00000  Uiso   1.00
C325   C     0.54267   0.35444   0.21890   0.00000  Uiso   1.00
C326   C     0.50048   0.37615   0.24691   0.00000  Uiso   1.00
C327   C     0.45787   0.35488   0.27278   0.00000  Uiso   1.00
C328   C     0.45761   0.64549   0.27288   0.00000  Uiso   1.00
C329   C     0.50027   0.62384   0.24817   0.00000  Uiso   1.00
C330   C     0.63362   0.52726   0.28004   0.00000  Uiso   1.00
C331   C     0.34981   0.52679   0.28136   0.00000  Uiso   1.00
C332   C     0.48200   0.47474   0.48717   0.00000  Uiso   1.00
C333   C     0.36709   0.47268   0.21879   0.00000  Uiso   1.00
C334   C     0.64983   0.47278   0.21978   0.00000  Uiso   1.00
C335   C     0.50019   0.42077   0.24919   0.00000  Uiso   1.00
C336   C     0.52589   0.49946   0.15000   0.00000  Uiso   1.00
C337   C     0.60263   0.49330   0.01029   0.00000  Uiso   1.00
C338   C     0.54057   0.49557   0.09319   0.00000  Uiso   1.00
C339   C     0.41201   0.47504   0.43191   0.00000  Uiso   1.00
C340   C     0.39837   0.46574   0.48489   0.00000  Uiso   1.00
C341   C     0.43227   0.46770   0.01287   0.00000  Uiso   1.00
C342   C     0.57890   0.39014   0.14354   0.00000  Uiso   1.00
C343   C     0.49706   0.47546   0.43194   0.00000  Uiso   1.00
C344   C     0.59816   0.35902   0.09933   0.00000  Uiso   1.00
C345   C     0.59709   0.37711   0.04703   0.00000  Uiso   1.00
C346   C     0.33828   0.55833   0.36235   0.00000  Uiso   1.00
C347   C     0.65064   0.60171   0.37435   0.00000  Uiso   1.00
C348   C     0.38653   0.41681   0.15766   0.00000  Uiso   1.00
C349   C     0.36495   0.37920   0.19070   0.00000  Uiso   1.00
C350   C     0.51752   0.48082   0.01415   0.00000  Uiso   1.00
C351   C     0.56749   0.48272   0.48561   0.00000  Uiso   1.00
C352   C     0.58187   0.47362   0.43270   0.00000  Uiso   1.00
C353   C     0.54713   0.46921   0.40629   0.00000  Uiso   1.00
C354   C     0.50486   0.48738   0.06814   0.00000  Uiso   1.00
C355   C     0.58951   0.49906   0.06396   0.00000  Uiso   1.00
Cu356  Cu    0.45311   0.49999   0.25000   0.00000  Uiso   1.00
Cu357  Cu    0.54689   0.50001   0.25000   0.00000  Uiso   1.00
H358   H     0.61751   0.50638   0.08245   0.00000  Uiso   1.00
H359   H     0.41887   0.46196   0.05414   0.00000  Uiso   1.00
H360   H     0.36119   0.45774   0.00514   0.00000  Uiso   1.00
H361   H     0.56051   0.45949   0.36620   0.00000  Uiso   1.00
H362   H     0.57559   0.62805   0.20141   0.00000  Uiso   1.00
H363   H     0.60081   0.41887   0.13384   0.00000  Uiso   1.00
H364   H     0.54062   0.39897   0.14588   0.00000  Uiso   1.00
H365   H     0.63629   0.35039   0.09717   0.00000  Uiso   1.00
H366   H     0.57537   0.66399   0.10724   0.00000  Uiso   1.00
H367   H     0.55934   0.38627   0.04832   0.00000  Uiso   1.00
H368   H     0.61024   0.35362   0.01587   0.00000  Uiso   1.00
H369   H     0.42503   0.37133   0.29363   0.00000  Uiso   1.00
H370   H     0.62122   0.40459   0.03735   0.00000  Uiso   1.00
H371   H     0.36233   0.55221   0.38750   0.00000  Uiso   1.00
H372   H     0.64151   0.53544   0.37374   0.00000  Uiso   1.00
H373   H     0.62703   0.60929   0.34921   0.00000  Uiso   1.00
H374   H     0.62852   0.60359   0.41581   0.00000  Uiso   1.00
H375   H     0.34726   0.62469   0.36741   0.00000  Uiso   1.00
H376   H     0.41915   0.40586   0.12686   0.00000  Uiso   1.00
H377   H     0.36223   0.42968   0.13586   0.00000  Uiso   1.00
H378   H     0.35321   0.35605   0.16619   0.00000  Uiso   1.00
H379   H     0.39293   0.36486   0.20656   0.00000  Uiso   1.00
H380   H     0.42454   0.62936   0.29337   0.00000  Uiso   1.00
H381   H     0.66641   0.38797   0.22370   0.00000  Uiso   1.00
H382   H     0.60820   0.54957   0.30296   0.00000  Uiso   1.00
H383   H     0.63561   0.45154   0.19694   0.00000  Uiso   1.00
H384   H     0.62013   0.47029   0.41155   0.00000  Uiso   1.00
H385   H     0.63998   0.49801   0.48755   0.00000  Uiso   1.00
H386   H     0.46728   0.48702   0.09134   0.00000  Uiso   1.00
H387   H     0.38410   0.47634   0.41193   0.00000  Uiso   1.00
N388   N     0.38265   0.49999   0.24999   0.00000  Uiso   1.00
N389   N     0.61735   0.50002   0.25000   0.00000  Uiso   1.00
O390   O     0.46042   0.56011   0.25001   0.00000  Uiso   1.00
O391   O     0.36704   0.55600   0.30965   0.00000  Uiso   1.00
O392   O     0.40271   0.44672   0.18740   0.00000  Uiso   1.00
O393   O     0.53961   0.56012   0.25001   0.00000  Uiso   1.00
O394   O     0.44108   0.49998   0.32549   0.00000  Uiso   1.00
O395   O     0.52027   0.49999   0.32549   0.00000  Uiso   1.00
O396   O     0.46039   0.43988   0.25000   0.00000  Uiso   1.00
O397   O     0.53958   0.43989   0.25000   0.00000  Uiso   1.00
O398   O     0.47973   0.50001   0.17451   0.00000  Uiso   1.00
O399   O     0.55892   0.50002   0.17451   0.00000  Uiso   1.00
O400   O     0.58468   0.37461   0.19091   0.00000  Uiso   1.00
C401   C     0.83343   0.57925   0.24956   0.00000  Uiso   1.00
C402   C     0.79463   0.48145   0.40486   0.00000  Uiso   1.00
C403   C     0.87612   0.64488   0.22149   0.00000  Uiso   1.00
C404   C     0.80795   0.49422   0.34930   0.00000  Uiso   1.00
C405   C     0.87600   0.35444   0.21890   0.00000  Uiso   1.00
C406   C     0.83382   0.37615   0.24691   0.00000  Uiso   1.00
C407   C     0.79120   0.35488   0.27278   0.00000  Uiso   1.00
C408   C     0.79094   0.64549   0.27288   0.00000  Uiso   1.00
C409   C     0.83360   0.62384   0.24817   0.00000  Uiso   1.00
C410   C     0.96696   0.52726   0.28004   0.00000  Uiso   1.00
C411   C     0.68314   0.52679   0.28136   0.00000  Uiso   1.00
C412   C     0.81533   0.47474   0.48717   0.00000  Uiso   1.00
C413   C     0.70042   0.47268   0.21879   0.00000  Uiso   1.00
C414   C     0.98317   0.47278   0.21978   0.00000  Uiso   1.00
C415   C     0.83352   0.42077   0.24919   0.00000  Uiso   1.00
C416   C     0.85923   0.49946   0.15000   0.00000  Uiso   1.00
C417   C     0.93596   0.49330   0.01029   0.00000  Uiso   1.00
C418   C     0.87390   0.49557   0.09319   0.00000  Uiso   1.00
C419   C     0.74535   0.47504   0.43191   0.00000  Uiso   1.00
C420   C     0.73170   0.46574   0.48489   0.00000  Uiso   1.00
C421   C     0.76561   0.46770   0.01287   0.00000  Uiso   1.00
C422   C     0.91224   0.39014   0.14354   0.00000  Uiso   1.00
C423   C     0.83039   0.47546   0.43194   0.00000  Uiso   1.00
C424   C     0.93150   0.35902   0.09933   0.00000  Uiso   1.00
C425   C     0.93043   0.37711   0.04703   0.00000  Uiso   1.00
C426   C     0.67162   0.55833   0.36235   0.00000  Uiso   1.00
C427   C     0.98397   0.60171   0.37435   0.00000  Uiso   1.00
C428   C     0.71986   0.41681   0.15766   0.00000  Uiso   1.00
C429   C     0.69828   0.37920   0.19070   0.00000  Uiso   1.00
C430   C     0.85086   0.48082   0.01415   0.00000  Uiso   1.00
C431   C     0.90082   0.48272   0.48561   0.00000  Uiso   1.00
C432   C     0.91520   0.47362   0.43270   0.00000  Uiso   1.00
C433   C     0.88047   0.46921   0.40629   0.00000  Uiso   1.00
C434   C     0.83820   0.48738   0.06814   0.00000  Uiso   1.00
C435   C     0.92285   0.49906   0.06396   0.00000  Uiso   1.00
Cu436  Cu    0.78645   0.49999   0.25000   0.00000  Uiso   1.00
Cu437  Cu    0.88022   0.50001   0.25000   0.00000  Uiso   1.00
H438   H     0.95084   0.50638   0.08245   0.00000  Uiso   1.00
H439   H     0.75221   0.46196   0.05414   0.00000  Uiso   1.00
H440   H     0.69452   0.45774   0.00514   0.00000  Uiso   1.00
H441   H     0.89384   0.45949   0.36620   0.00000  Uiso   1.00
H442   H     0.90892   0.62805   0.20141   0.00000  Uiso   1.00
H443   H     0.93415   0.41887   0.13384   0.00000  Uiso   1.00
H444   H     0.87395   0.39897   0.14588   0.00000  Uiso   1.00
H445   H     0.96962   0.35039   0.09717   0.00000  Uiso   1.00
H446   H     0.90871   0.66399   0.10724   0.00000  Uiso   1.00
H447   H     0.89267   0.38627   0.04832   0.00000  Uiso   1.00
H448   H     0.94358   0.35362   0.01587   0.00000  Uiso   1.00
H449   H     0.75836   0.37133   0.29363   0.00000  Uiso   1.00
H450   H     0.95455   0.40459   0.03735   0.00000  Uiso   1.00
H451   H     0.69566   0.55221   0.38750   0.00000  Uiso   1.00
H452   H     0.97485   0.53544   0.37374   0.00000  Uiso   1.00
H453   H     0.96037   0.60929   0.34921   0.00000  Uiso   1.00
H454   H     0.96185   0.60359   0.41581   0.00000  Uiso   1.00
H455   H     0.68059   0.62469   0.36741   0.00000  Uiso   1.00
H456   H     0.75248   0.40586   0.12686   0.00000  Uiso   1.00
H457   H     0.69556   0.42968   0.13586   0.00000  Uiso   1.00
H458   H     0.68655   0.35605   0.16619   0.00000  Uiso   1.00
H459   H     0.72626   0.36486   0.20656   0.00000  Uiso   1.00
H460   H     0.75787   0.62936   0.29337   0.00000  Uiso   1.00
H461   H     0.99974   0.38797   0.22370   0.00000  Uiso   1.00
H462   H     0.94154   0.54957   0.30296   0.00000  Uiso   1.00
H463   H     0.96894   0.45154   0.19694   0.00000  Uiso   1.00
H464   H     0.95346   0.47029   0.41155   0.00000  Uiso   1.00
H465   H     0.97331   0.49801   0.48755   0.00000  Uiso   1.00
H466   H     0.80061   0.48702   0.09134   0.00000  Uiso   1.00
H467   H     0.71744   0.47634   0.41193   0.00000  Uiso   1.00
N468   N     0.71598   0.49999   0.24999   0.00000  Uiso   1.00
N469   N     0.95069   0.50002   0.25000   0.00000  Uiso   1.00
O470   O     0.79375   0.56011   0.25001   0.00000  Uiso   1.00
O471   O     0.70037   0.55600   0.30965   0.00000  Uiso   1.00
O472   O     0.73604   0.44672   0.18740   0.00000  Uiso   1.00
O473   O     0.87294   0.56012   0.25001   0.00000  Uiso   1.00
O474   O     0.77441   0.49998   0.32549   0.00000  Uiso   1.00
O475   O     0.85360   0.49999   0.32549   0.00000  Uiso   1.00
O476   O     0.79373   0.43988   0.25000   0.00000  Uiso   1.00
O477   O     0.87292   0.43989   0.25000   0.00000  Uiso   1.00
O478   O     0.81306   0.50001   0.17451   0.00000  Uiso   1.00
O479   O     0.89225   0.50002   0.17451   0.00000  Uiso   1.00
O480   O     0.91801   0.37461   0.19091   0.00000  Uiso   1.00
C481   C     0.16676   0.91258   0.24956   0.00000  Uiso   1.00
C482   C     0.12796   0.81478   0.40486   0.00000  Uiso   1.00
C483   C     0.20945   0.97822   0.22149   0.00000  Uiso   1.00
C484   C     0.14128   0.82755   0.34930   0.00000  Uiso   1.00
C485   C     0.20934   0.68778   0.21890   0.00000  Uiso   1.00
C486   C     0.16715   0.70948   0.24691   0.00000  Uiso   1.00
C487   C     0.12454   0.68821   0.27278   0.00000  Uiso   1.00
C488   C     0.12427   0.97882   0.27288   0.00000  Uiso   1.00
C489   C     0.16693   0.95717   0.24817   0.00000  Uiso   1.00
C490   C     0.30029   0.86059   0.28004   0.00000  Uiso   1.00
C491   C     0.01647   0.86013   0.28136   0.00000  Uiso   1.00
C492   C     0.14867   0.80807   0.48717   0.00000  Uiso   1.00
C493   C     0.03375   0.80602   0.21879   0.00000  Uiso   1.00
C494   C     0.31650   0.80612   0.21978   0.00000  Uiso   1.00
C495   C     0.16686   0.75410   0.24919   0.00000  Uiso   1.00
C496   C     0.19256   0.83279   0.15000   0.00000  Uiso   1.00
C497   C     0.26930   0.82663   0.01029   0.00000  Uiso   1.00
C498   C     0.20723   0.82890   0.09319   0.00000  Uiso   1.00
C499   C     0.07868   0.80837   0.43191   0.00000  Uiso   1.00
C500   C     0.06504   0.79907   0.48489   0.00000  Uiso   1.00
C501   C     0.09894   0.80104   0.01287   0.00000  Uiso   1.00
C502   C     0.24557   0.72347   0.14354   0.00000  Uiso   1.00
C503   C     0.16372   0.80879   0.43194   0.00000  Uiso   1.00
C504   C     0.26483   0.69235   0.09933   0.00000  Uiso   1.00
C505   C     0.26376   0.71044   0.04703   0.00000  Uiso   1.00
C506   C     0.00495   0.89167   0.36235   0.00000  Uiso   1.00
C507   C     0.31730   0.93504   0.37435   0.00000  Uiso   1.00
C508   C     0.05320   0.75014   0.15766   0.00000  Uiso   1.00
C509   C     0.03162   0.71253   0.19070   0.00000  Uiso   1.00
C510   C     0.18419   0.81415   0.01415   0.00000  Uiso   1.00
C511   C     0.23416   0.81605   0.48561   0.00000  Uiso   1.00
C512   C     0.24853   0.80695   0.43270   0.00000  Uiso   1.00
C513   C     0.21380   0.80255   0.40629   0.00000  Uiso   1.00
C514   C     0.17153   0.82071   0.06814   0.00000  Uiso   1.00
C515   C     0.25618   0.83239   0.06396   0.00000  Uiso   1.00
Cu516  Cu    0.11978   0.83333   0.25000   0.00000  Uiso   1.00
Cu517  Cu    0.21355   0.83334   0.25000   0.00000  Uiso   1.00
H518   H     0.28418   0.83972   0.08245   0.00000  Uiso   1.00
H519   H     0.08554   0.79529   0.05414   0.00000  Uiso   1.00
H520   H     0.02785   0.79108   0.00514   0.00000  Uiso   1.00
H521   H     0.22717   0.79282   0.36620   0.00000  Uiso   1.00
H522   H     0.24225   0.96139   0.20141   0.00000  Uiso   1.00
H523   H     0.26748   0.75220   0.13384   0.00000  Uiso   1.00
H524   H     0.20729   0.73230   0.14588   0.00000  Uiso   1.00
H525   H     0.30296   0.68372   0.09717   0.00000  Uiso   1.00
H526   H     0.24204   0.99732   0.10724   0.00000  Uiso   1.00
H527   H     0.22600   0.71960   0.04832   0.00000  Uiso   1.00
H528   H     0.27691   0.68696   0.01587   0.00000  Uiso   1.00
H529   H     0.09170   0.70466   0.29363   0.00000  Uiso   1.00
H530   H     0.28788   0.73792   0.03735   0.00000  Uiso   1.00
H531   H     0.02899   0.88554   0.38750   0.00000  Uiso   1.00
H532   H     0.30818   0.86877   0.37374   0.00000  Uiso   1.00
H533   H     0.29370   0.94263   0.34921   0.00000  Uiso   1.00
H534   H     0.29519   0.93692   0.41581   0.00000  Uiso   1.00
H535   H     0.01392   0.95802   0.36741   0.00000  Uiso   1.00
H536   H     0.08582   0.73919   0.12686   0.00000  Uiso   1.00
H537   H     0.02890   0.76301   0.13586   0.00000  Uiso   1.00
H538   H     0.01988   0.68938   0.16619   0.00000  Uiso   1.00
H539   H     0.05959   0.69819   0.20656   0.00000  Uiso   1.00
H540   H     0.09121   0.96270   0.29337   0.00000  Uiso   1.00
H541   H     0.33308   0.72131   0.22370   0.00000  Uiso   1.00
H542   H     0.27487   0.88290   0.30296   0.00000  Uiso   1.00
H543   H     0.30227   0.78488   0.19694   0.00000  Uiso   1.00
H544   H     0.28679   0.80362   0.41155   0.00000  Uiso   1.00
H545   H     0.30665   0.83135   0.48755   0.00000  Uiso   1.00
H546   H     0.13394   0.82035   0.09134   0.00000  Uiso   1.00
H547   H     0.05077   0.80968   0.41193   0.00000  Uiso   1.00
N548   N     0.04931   0.83332   0.24999   0.00000  Uiso   1.00
N549   N     0.28402   0.83335   0.25000   0.00000  Uiso   1.00
O550   O     0.12708   0.89345   0.25001   0.00000  Uiso   1.00
O551   O     0.03371   0.88933   0.30965   0.00000  Uiso   1.00
O552   O     0.06938   0.78005   0.18740   0.00000  Uiso   1.00
O553   O     0.20627   0.89346   0.25001   0.00000  Uiso   1.00
O554   O     0.10775   0.83332   0.32549   0.00000  Uiso   1.00
O555   O     0.18694   0.83333   0.32549   0.00000  Uiso   1.00
O556   O     0.12706   0.77321   0.25000   0.00000  Uiso   1.00
O557   O     0.20625   0.77322   0.25000   0.00000  Uiso   1.00
O558   O     0.14640   0.83334   0.17451   0.00000  Uiso   1.00
O559   O     0.22559   0.83335   0.17451   0.00000  Uiso   1.00
O560   O     0.25134   0.70794   0.19091   0.00000  Uiso   1.00
C561   C     0.50009   0.91258   0.24956   0.00000  Uiso   1.00
C562   C     0.46130   0.81478   0.40486   0.00000  Uiso   1.00
C563   C     0.54279   0.97822   0.22149   0.00000  Uiso   1.00
C564   C     0.47462   0.82755   0.34930   0.00000  Uiso   1.00
C565   C     0.54267   0.68778   0.21890   0.00000  Uiso   1.00
C566   C     0.50048   0.70948   0.24691   0.00000  Uiso   1.00
C567   C     0.45787   0.68821   0.27278   0.00000  Uiso   1.00
C568   C     0.45761   0.97882   0.27288   0.00000  Uiso   1.00
C569   C     0.50027   0.95717   0.24817   0.00000  Uiso   1.00
C570   C     0.63362   0.86059   0.28004   0.00000  Uiso   1.00
C571   C     0.34981   0.86013   0.28136   0.00000  Uiso   1.00
C572   C     0.48200   0.80807   0.48717   0.00000  Uiso   1.00
C573   C     0.36709   0.80602   0.21879   0.00000  Uiso   1.00
C574   C     0.64983   0.80612   0.21978   0.00000  Uiso   1.00
C575   C     0.50019   0.75410   0.24919   0.00000  Uiso   1.00
C576   C     0.52589   0.83279   0.15000   0.00000  Uiso   1.00
C577   C     0.60263   0.82663   0.01029   0.00000  Uiso   1.00
C578   C     0.54057   0.82890   0.09319   0.00000  Uiso   1.00
C579   C     0.41201   0.80837   0.43191   0.00000  Uiso   1.00
C580   C     0.39837   0.79907   0.48489   0.00000  Uiso   1.00
C581   C     0.43227   0.80104   0.01287   0.00000  Uiso   1.00
C582   C     0.57890   0.72347   0.14354   0.00000  Uiso   1.00
C583   C     0.49706   0.80879   0.43194   0.00000  Uiso   1.00
C584   C     0.59816   0.69235   0.09933   0.00000  Uiso   1.00
C585   C     0.59709   0.71044   0.04703   0.00000  Uiso   1.00
C586   C     0.33828   0.89167   0.36235   0.00000  Uiso   1.00
C587   C     0.65064   0.93504   0.37435   0.00000  Uiso   1.00
C588   C     0.38653   0.75014   0.15766   0.00000  Uiso   1.00
C589   C     0.36495   0.71253   0.19070   0.00000  Uiso   1.00
C590   C     0.51752   0.81415   0.01415   0.00000  Uiso   1.00
C591   C     0.56749   0.81605   0.48561   0.00000  Uiso   1.00
C592   C     0.58187   0.80695   0.43270   0.00000  Uiso   1.00
C593   C     0.54713   0.80255   0.40629   0.00000  Uiso   1.00
C594   C     0.50486   0.82071   0.06814   0.00000  Uiso   1.00
C595   C     0.58951   0.83239   0.06396   0.00000  Uiso   1.00
Cu596  Cu    0.45311   0.83333   0.25000   0.00000  Uiso   1.00
Cu597  Cu    0.54689   0.83334   0.25000   0.00000  Uiso   1.00
H598   H     0.61751   0.83972   0.08245   0.00000  Uiso   1.00
H599   H     0.41887   0.79529   0.05414   0.00000  Uiso   1.00
H600   H     0.36119   0.79108   0.00514   0.00000  Uiso   1.00
H601   H     0.56051   0.79282   0.36620   0.00000  Uiso   1.00
H602   H     0.57559   0.96139   0.20141   0.00000  Uiso   1.00
H603   H     0.60081   0.75220   0.13384   0.00000  Uiso   1.00
H604   H     0.54062   0.73230   0.14588   0.00000  Uiso   1.00
H605   H     0.63629   0.68372   0.09717   0.00000  Uiso   1.00
H606   H     0.57537   0.99732   0.10724   0.00000  Uiso   1.00
H607   H     0.55934   0.71960   0.04832   0.00000  Uiso   1.00
H608   H     0.61024   0.68696   0.01587   0.00000  Uiso   1.00
H609   H     0.42503   0.70466   0.29363   0.00000  Uiso   1.00
H610   H     0.62122   0.73792   0.03735   0.00000  Uiso   1.00
H611   H     0.36233   0.88554   0.38750   0.00000  Uiso   1.00
H612   H     0.64151   0.86877   0.37374   0.00000  Uiso   1.00
H613   H     0.62703   0.94263   0.34921   0.00000  Uiso   1.00
H614   H     0.62852   0.93692   0.41581   0.00000  Uiso   1.00
H615   H     0.34726   0.95802   0.36741   0.00000  Uiso   1.00
H616   H     0.41915   0.73919   0.12686   0.00000  Uiso   1.00
H617   H     0.36223   0.76301   0.13586   0.00000  Uiso   1.00
H618   H     0.35321   0.68938   0.16619   0.00000  Uiso   1.00
H619   H     0.39293   0.69819   0.20656   0.00000  Uiso   1.00
H620   H     0.42454   0.96270   0.29337   0.00000  Uiso   1.00
H621   H     0.66641   0.72131   0.22370   0.00000  Uiso   1.00
H622   H     0.60820   0.88290   0.30296   0.00000  Uiso   1.00
H623   H     0.63561   0.78488   0.19694   0.00000  Uiso   1.00
H624   H     0.62013   0.80362   0.41155   0.00000  Uiso   1.00
H625   H     0.63998   0.83135   0.48755   0.00000  Uiso   1.00
H626   H     0.46728   0.82035   0.09134   0.00000  Uiso   1.00
H627   H     0.38410   0.80968   0.41193   0.00000  Uiso   1.00
N628   N     0.38265   0.83332   0.24999   0.00000  Uiso   1.00
N629   N     0.61735   0.83335   0.25000   0.00000  Uiso   1.00
O630   O     0.46042   0.89345   0.25001   0.00000  Uiso   1.00
O631   O     0.36704   0.88933   0.30965   0.00000  Uiso   1.00
O632   O     0.40271   0.78005   0.18740   0.00000  Uiso   1.00
O633   O     0.53961   0.89346   0.25001   0.00000  Uiso   1.00
O634   O     0.44108   0.83332   0.32549   0.00000  Uiso   1.00
O635   O     0.52027   0.83333   0.32549   0.00000  Uiso   1.00
O636   O     0.46039   0.77321   0.25000   0.00000  Uiso   1.00
O637   O     0.53958   0.77322   0.25000   0.00000  Uiso   1.00
O638   O     0.47973   0.83334   0.17451   0.00000  Uiso   1.00
O639   O     0.55892   0.83335   0.17451   0.00000  Uiso   1.00
O640   O     0.58468   0.70794   0.19091   0.00000  Uiso   1.00
C641   C     0.83343   0.91258   0.24956   0.00000  Uiso   1.00
C642   C     0.79463   0.81478   0.40486   0.00000  Uiso   1.00
C643   C     0.87612   0.97822   0.22149   0.00000  Uiso   1.00
C644   C     0.80795   0.82755   0.34930   0.00000  Uiso   1.00
C645   C     0.87600   0.68778   0.21890   0.00000  Uiso   1.00
C646   C     0.83382   0.70948   0.24691   0.00000  Uiso   1.00
C647   C     0.79120   0.68821   0.27278   0.00000  Uiso   1.00
C648   C     0.79094   0.97882   0.27288   0.00000  Uiso   1.00
C649   C     0.83360   0.95717   0.24817   0.00000  Uiso   1.00
C650   C     0.96696   0.86059   0.28004   0.00000  Uiso   1.00
C651   C     0.68314   0.86013   0.28136   0.00000  Uiso   1.00
C652   C     0.81533   0.80807   0.48717   0.00000  Uiso   1.00
C653   C     0.70042   0.80602   0.21879   0.00000  Uiso   1.00
C654   C     0.98317   0.80612   0.21978   0.00000  Uiso   1.00
C655   C     0.83352   0.75410   0.24919   0.00000  Uiso   1.00
C656   C     0.85923   0.83279   0.15000   0.00000  Uiso   1.00
C657   C     0.93596   0.82663   0.01029   0.00000  Uiso   1.00
C658   C     0.87390   0.82890   0.09319   0.00000  Uiso   1.00
C659   C     0.74535   0.80837   0.43191   0.00000  Uiso   1.00
C660   C     0.73170   0.79907   0.48489   0.00000  Uiso   1.00
C661   C     0.76561   0.80104   0.01287   0.00000  Uiso   1.00
C662   C     0.91224   0.72347   0.14354   0.00000  Uiso   1.00
C663   C     0.83039   0.80879   0.43194   0.00000  Uiso   1.00
C664   C     0.93150   0.69235   0.09933   0.00000  Uiso   1.00
C665   C     0.93043   0.71044   0.04703   0.00000  Uiso   1.00
C666   C     0.67162   0.89167   0.36235   0.00000  Uiso   1.00
C667   C     0.98397   0.93504   0.37435   0.00000  Uiso   1.00
C668   C     0.71986   0.75014   0.15766   0.00000  Uiso   1.00
C669   C     0.69828   0.71253   0.19070   0.00000  Uiso   1.00
C670   C     0.85086   0.81415   0.01415   0.00000  Uiso   1.00
C671   C     0.90082   0.81605   0.48561   0.00000  Uiso   1.00
C672   C     0.91520   0.80695   0.43270   0.00000  Uiso   1.00
C673   C     0.88047   0.80255   0.40629   0.00000  Uiso   1.00
C674   C     0.83820   0.82071   0.06814   0.00000  Uiso   1.00
C675   C     0.92285   0.83239   0.06396   0.00000  Uiso   1.00
Cu676  Cu    0.78645   0.83333   0.25000   0.00000  Uiso   1.00
Cu677  Cu    0.88022   0.83334   0.25000   0.00000  Uiso   1.00
H678   H     0.95084   0.83972   0.08245   0.00000  Uiso   1.00
H679   H     0.75221   0.79529   0.05414   0.00000  Uiso   1.00
H680   H     0.69452   0.79108   0.00514   0.00000  Uiso   1.00
H681   H     0.89384   0.79282   0.36620   0.00000  Uiso   1.00
H682   H     0.90892   0.96139   0.20141   0.00000  Uiso   1.00
H683   H     0.93415   0.75220   0.13384   0.00000  Uiso   1.00
H684   H     0.87395   0.73230   0.14588   0.00000  Uiso   1.00
H685   H     0.96962   0.68372   0.09717   0.00000  Uiso   1.00
H686   H     0.90871   0.99732   0.10724   0.00000  Uiso   1.00
H687   H     0.89267   0.71960   0.04832   0.00000  Uiso   1.00
H688   H     0.94358   0.68696   0.01587   0.00000  Uiso   1.00
H689   H     0.75836   0.70466   0.29363   0.00000  Uiso   1.00
H690   H     0.95455   0.73792   0.03735   0.00000  Uiso   1.00
H691   H     0.69566   0.88554   0.38750   0.00000  Uiso   1.00
H692   H     0.97485   0.86877   0.37374   0.00000  Uiso   1.00
H693   H     0.96037   0.94263   0.34921   0.00000  Uiso   1.00
H694   H     0.96185   0.93692   0.41581   0.00000  Uiso   1.00
H695   H     0.68059   0.95802   0.36741   0.00000  Uiso   1.00
H696   H     0.75248   0.73919   0.12686   0.00000  Uiso   1.00
H697   H     0.69556   0.76301   0.13586   0.00000  Uiso   1.00
H698   H     0.68655   0.68938   0.16619   0.00000  Uiso   1.00
H699   H     0.72626   0.69819   0.20656   0.00000  Uiso   1.00
H700   H     0.75787   0.96270   0.29337   0.00000  Uiso   1.00
H701   H     0.99974   0.72131   0.22370   0.00000  Uiso   1.00
H702   H     0.94154   0.88290   0.30296   0.00000  Uiso   1.00
H703   H     0.96894   0.78488   0.19694   0.00000  Uiso   1.00
H704   H     0.95346   0.80362   0.41155   0.00000  Uiso   1.00
H705   H     0.97331   0.83135   0.48755   0.00000  Uiso   1.00
H706   H     0.80061   0.82035   0.09134   0.00000  Uiso   1.00
H707   H     0.71744   0.80968   0.41193   0.00000  Uiso   1.00
N708   N     0.71598   0.83332   0.24999   0.00000  Uiso   1.00
N709   N     0.95069   0.83335   0.25000   0.00000  Uiso   1.00
O710   O     0.79375   0.89345   0.25001   0.00000  Uiso   1.00
O711   O     0.70037   0.88933   0.30965   0.00000  Uiso   1.00
O712   O     0.73604   0.78005   0.18740   0.00000  Uiso   1.00
O713   O     0.87294   0.89346   0.25001   0.00000  Uiso   1.00
O714   O     0.77441   0.83332   0.32549   0.00000  Uiso   1.00
O715   O     0.85360   0.83333   0.32549   0.00000  Uiso   1.00
O716   O     0.79373   0.77321   0.25000   0.00000  Uiso   1.00
O717   O     0.87292   0.77322   0.25000   0.00000  Uiso   1.00
O718   O     0.81306   0.83334   0.17451   0.00000  Uiso   1.00
O719   O     0.89225   0.83335   0.17451   0.00000  Uiso   1.00
O720   O     0.91801   0.70794   0.19091   0.00000  Uiso   1.00
C721   C     0.16676   0.24591   0.74956   0.00000  Uiso   1.00
C722   C     0.12796   0.14811   0.90486   0.00000  Uiso   1.00
C723   C     0.20945   0.31155   0.72149   0.00000  Uiso   1.00
C724   C     0.14128   0.16089   0.84930   0.00000  Uiso   1.00
C725   C     0.20934   0.02111   0.71890   0.00000  Uiso   1.00
C726   C     0.16715   0.04281   0.74691   0.00000  Uiso   1.00
C727   C     0.12454   0.02155   0.77278   0.00000  Uiso   1.00
C728   C     0.12427   0.31215   0.77288   0.00000  Uiso   1.00
C729   C     0.16693   0.29051   0.74817   0.00000  Uiso   1.00
C730   C     0.30029   0.19392   0.78004   0.00000  Uiso   1.00
C731   C     0.01647   0.19346   0.78136   0.00000  Uiso   1.00
C732   C     0.14867   0.14141   0.98717   0.00000  Uiso   1.00
C733   C     0.03375   0.13935   0.71879   0.00000  Uiso   1.00
C734   C     0.31650   0.13945   0.71978   0.00000  Uiso   1.00
C735   C     0.16686   0.08744   0.74919   0.00000  Uiso   1.00
C736   C     0.19256   0.16612   0.65000   0.00000  Uiso   1.00
C737   C     0.26930   0.15997   0.51029   0.00000  Uiso   1.00
C738   C     0.20723   0.16223   0.59319   0.00000  Uiso   1.00
C739   C     0.07868   0.14170   0.93191   0.00000  Uiso   1.00
C740   C     0.06504   0.13241   0.98489   0.00000  Uiso   1.00
C741   C     0.09894   0.13437   0.51287   0.00000  Uiso   1.00
C742   C     0.24557   0.05681   0.64354   0.00000  Uiso   1.00
C743   C     0.16372   0.14213   0.93194   0.00000  Uiso   1.00
C744   C     0.26483   0.02568   0.59933   0.00000  Uiso   1.00
C745   C     0.26376   0.04377   0.54703   0.00000  Uiso   1.00
C746   C     0.00495   0.22500   0.86235   0.00000  Uiso   1.00
C747   C     0.31730   0.26837   0.87435   0.00000  Uiso   1.00
C748   C     0.05320   0.08348   0.65766   0.00000  Uiso   1.00
C749   C     0.03162   0.04587   0.69070   0.00000  Uiso   1.00
C750   C     0.18419   0.14749   0.51415   0.00000  Uiso   1.00
C751   C     0.23416   0.14938   0.98561   0.00000  Uiso   1.00
C752   C     0.24853   0.14029   0.93270   0.00000  Uiso   1.00
C753   C     0.21380   0.13588   0.90629   0.00000  Uiso   1.00
C754   C     0.17153   0.15404   0.56814   0.00000  Uiso   1.00
C755   C     0.25618   0.16572   0.56396   0.00000  Uiso   1.00
Cu756  Cu    0.11978   0.16666   0.75000   0.00000  Uiso   1.00
Cu757  Cu    0.21355   0.16667   0.75000   0.00000  Uiso   1.00
H758   H     0.28418   0.17305   0.58245   0.00000  Uiso   1.00
H759   H     0.08554   0.12863   0.55414   0.00000  Uiso   1.00
H760   H     0.02785   0.12441   0.50514   0.00000  Uiso   1.00
H761   H     0.22717   0.12615   0.86620   0.00000  Uiso   1.00
H762   H     0.24225   0.29472   0.70141   0.00000  Uiso   1.00
H763   H     0.26748   0.08554   0.63384   0.00000  Uiso   1.00
H764   H     0.20729   0.06564   0.64588   0.00000  Uiso   1.00
H765   H     0.30296   0.01705   0.59717   0.00000  Uiso   1.00
H766   H     0.24204   0.33066   0.60724   0.00000  Uiso   1.00
H767   H     0.22600   0.05293   0.54832   0.00000  Uiso   1.00
H768   H     0.27691   0.02029   0.51587   0.00000  Uiso   1.00
H769   H     0.09170   0.03799   0.79363   0.00000  Uiso   1.00
H770   H     0.28788   0.07126   0.53735   0.00000  Uiso   1.00
H771   H     0.02899   0.21887   0.88750   0.00000  Uiso   1.00
H772   H     0.30818   0.20210   0.87374   0.00000  Uiso   1.00
H773   H     0.29370   0.27596   0.84921   0.00000  Uiso   1.00
H774   H     0.29519   0.27026   0.91581   0.00000  Uiso   1.00
H775   H     0.01392   0.29135   0.86741   0.00000  Uiso   1.00
H776   H     0.08582   0.07253   0.62686   0.00000  Uiso   1.00
H777   H     0.02890   0.09635   0.63586   0.00000  Uiso   1.00
H778   H     0.01988   0.02272   0.66619   0.00000  Uiso   1.00
H779   H     0.05959   0.03153   0.70656   0.00000  Uiso   1.00
H780   H     0.09121   0.29603   0.79337   0.00000  Uiso   1.00
H781   H     0.33308   0.05464   0.72370   0.00000  Uiso   1.00
H782   H     0.27487   0.21624   0.80296   0.00000  Uiso   1.00
H783   H     0.30227   0.11821   0.69694   0.00000  Uiso   1.00
H784   H     0.28679   0.13695   0.91155   0.00000  Uiso   1.00
H785   H     0.30665   0.16468   0.98755   0.00000  Uiso   1.00
H786   H     0.13394   0.15369   0.59134   0.00000  Uiso   1.00
H787   H     0.05077   0.14301   0.91193   0.00000  Uiso   1.00
N788   N     0.04931   0.16666   0.74999   0.00000  Uiso   1.00
N789   N     0.28402   0.16669   0.75000   0.00000  Uiso   1.00
O790   O     0.12708   0.22678   0.75001   0.00000  Uiso   1.00
O791   O     0.03371   0.22267   0.80965   0.00000  Uiso   1.00
O792   O     0.06938   0.11338   0.68740   0.00000  Uiso   1.00
O793   O     0.20627   0.22679   0.75001   0.00000  Uiso   1.00
O794   O     0.10775   0.16665   0.82549   0.00000  Uiso   1.00
O795   O     0.18694   0.16666   0.82549   0.00000  Uiso   1.00
O796   O     0.12706   0.10654   0.75000   0.00000  Uiso   1.00
O797   O     0.20625   0.10655   0.75000   0.00000  Uiso   1.00
O798   O     0.14640   0.16667   0.67451   0.00000  Uiso   1.00
O799   O     0.22559   0.16668   0.67451   0.00000  Uiso   1.00
O800   O     0.25134   0.04128   0.69091   0.00000  Uiso   1.00
C801   C     0.50009   0.24591   0.74956   0.00000  Uiso   1.00
C802   C     0.46130   0.14811   0.90486   0.00000  Uiso   1.00
C803   C     0.54279   0.31155   0.72149   0.00000  Uiso   1.00
C804   C     0.47462   0.16089   0.84930   0.00000  Uiso   1.00
C805   C     0.54267   0.02111   0.71890   0.00000  Uiso   1.00
C806   C     0.50048   0.04281   0.74691   0.00000  Uiso   1.00
C807   C     0.45787   0.02155   0.77278   0.00000  Uiso   1.00
C808   C     0.45761   0.31215   0.77288   0.00000  Uiso   1.00
C809   C     0.50027   0.29051   0.74817   0.00000  Uiso   1.00
C810   C     0.63362   0.19392   0.78004   0.00000  Uiso   1.00
C811   C     0.34981   0.19346   0.78136   0.00000  Uiso   1.00
C812   C     0.48200   0.14141   0.98717   0.00000  Uiso   1.00
C813   C     0.36709   0.13935   0.71879   0.00000  Uiso   1.00
C814   C     0.64983   0.13945   0.71978   0.00000  Uiso   1.00
C815   C     0.50019   0.08744   0.74919   0.00000  Uiso   1.00
C816   C     0.52589   0.16612   0.65000   0.00000  Uiso   1.00
C817   C     0.60263   0.15997   0.51029   0.00000  Uiso   1.00
C818   C     0.54057   0.16223   0.59319   0.00000  Uiso   1.00
C819   C     0.41201   0.14170   0.93191   0.00000  Uiso   1.00
C820   C     0.39837   0.13241   0.98489   0.00000  Uiso   1.00
C821   C     0.43227   0.13437   0.51287   0.00000  Uiso   1.00
C822   C     0.57890   0.05681   0.64354   0.00000  Uiso   1.00
C823   C     0.49706   0.14213   0.93194   0.00000  Uiso   1.00
C824   C     0.59816   0.02568   0.59933   0.00000  Uiso   1.00
C825   C     0.59709   0.04377   0.54703   0.00000  Uiso   1.00
C826   C     0.33828   0.22500   0.86235   0.00000  Uiso   1.00
C827   C     0.65064   0.26837   0.87435   0.00000  Uiso   1.00
C828   C     0.38653   0.08348   0.65766   0.00000  Uiso   1.00
C829   C     0.36495   0.04587   0.69070   0.00000  Uiso   1.00
C830   C     0.51752   0.14749   0.51415   0.00000  Uiso   1.00
C831   C     0.56749   0.14938   0.98561   0.00000  Uiso   1.00
C832   C     0.58187   0.14029   0.93270   0.00000  Uiso   1.00
C833   C     0.54713   0.13588   0.90629   0.00000  Uiso   1.00
C834   C     0.50486   0.15404   0.56814   0.00000  Uiso   1.00
C835   C     0.58951   0.16572   0.56396   0.00000  Uiso   1.00
Cu836  Cu    0.45311   0.16666   0.75000   0.00000  Uiso   1.00
Cu837  Cu    0.54689   0.16667   0.75000   0.00000  Uiso   1.00
H838   H     0.61751   0.17305   0.58245   0.00000  Uiso   1.00
H839   H     0.41887   0.12863   0.55414   0.00000  Uiso   1.00
H840   H     0.36119   0.12441   0.50514   0.00000  Uiso   1.00
H841   H     0.56051   0.12615   0.86620   0.00000  Uiso   1.00
H842   H     0.57559   0.29472   0.70141   0.00000  Uiso   1.00
H843   H     0.60081   0.08554   0.63384   0.00000  Uiso   1.00
H844   H     0.54062   0.06564   0.64588   0.00000  Uiso   1.00
H845   H     0.63629   0.01705   0.59717   0.00000  Uiso   1.00
H846   H     0.57537   0.33066   0.60724   0.00000  Uiso   1.00
H847   H     0.55934   0.05293   0.54832   0.00000  Uiso   1.00
H848   H     0.61024   0.02029   0.51587   0.00000  Uiso   1.00
H849   H     0.42503   0.03799   0.79363   0.00000  Uiso   1.00
H850   H     0.62122   0.07126   0.53735   0.00000  Uiso   1.00
H851   H     0.36233   0.21887   0.88750   0.00000  Uiso   1.00
H852   H     0.64151   0.20210   0.87374   0.00000  Uiso   1.00
H853   H     0.62703   0.27596   0.84921   0.00000  Uiso   1.00
H854   H     0.62852   0.27026   0.91581   0.00000  Uiso   1.00
H855   H     0.34726   0.29135   0.86741   0.00000  Uiso   1.00
H856   H     0.41915   0.07253   0.62686   0.00000  Uiso   1.00
H857   H     0.36223   0.09635   0.63586   0.00000  Uiso   1.00
H858   H     0.35321   0.02272   0.66619   0.00000  Uiso   1.00
H859   H     0.39293   0.03153   0.70656   0.00000  Uiso   1.00
H860   H     0.42454   0.29603   0.79337   0.00000  Uiso   1.00
H861   H     0.66641   0.05464   0.72370   0.00000  Uiso   1.00
H862   H     0.60820   0.21624   0.80296   0.00000  Uiso   1.00
H863   H     0.63561   0.11821   0.69694   0.00000  Uiso   1.00
H864   H     0.62013   0.13695   0.91155   0.00000  Uiso   1.00
H865   H     0.63998   0.16468   0.98755   0.00000  Uiso   1.00
H866   H     0.46728   0.15369   0.59134   0.00000  Uiso   1.00
H867   H     0.38410   0.14301   0.91193   0.00000  Uiso   1.00
N868   N     0.38265   0.16666   0.74999   0.00000  Uiso   1.00
N869   N     0.61735   0.16669   0.75000   0.00000  Uiso   1.00
O870   O     0.46042   0.22678   0.75001   0.00000  Uiso   1.00
O871   O     0.36704   0.22267   0.80965   0.00000  Uiso   1.00
O872   O     0.40271   0.11338   0.68740   0.00000  Uiso   1.00
O873   O     0.53961   0.22679   0.75001   0.00000  Uiso   1.00
O874   O     0.44108   0.16665   0.82549   0.00000  Uiso   1.00
O875   O     0.52027   0.16666   0.82549   0.00000  Uiso   1.00
O876   O     0.46039   0.10654   0.75000   0.00000  Uiso   1.00
O877   O     0.53958   0.10655   0.75000   0.00000  Uiso   1.00
O878   O     0.47973   0.16667   0.67451   0.00000  Uiso   1.00
O879   O     0.55892   0.16668   0.67451   0.00000  Uiso   1.00
O880   O     0.58468   0.04128   0.69091   0.00000  Uiso   1.00
C881   C     0.83343   0.24591   0.74956   0.00000  Uiso   1.00
C882   C     0.79463   0.14811   0.90486   0.00000  Uiso   1.00
C883   C     0.87612   0.31155   0.72149   0.00000  Uiso   1.00
C884   C     0.80795   0.16089   0.84930   0.00000  Uiso   1.00
C885   C     0.87600   0.02111   0.71890   0.00000  Uiso   1.00
C886   C     0.83382   0.04281   0.74691   0.00000  Uiso   1.00
C887   C     0.79120   0.02155   0.77278   0.00000  Uiso   1.00
C888   C     0.79094   0.31215   0.77288   0.00000  Uiso   1.00
C889   C     0.83360   0.29051   0.74817   0.00000  Uiso   1.00
C890   C     0.96696   0.19392   0.78004   0.00000  Uiso   1.00
C891   C     0.68314   0.19346   0.78136   0.00000  Uiso   1.00
C892   C     0.81533   0.14141   0.98717   0.00000  Uiso   1.00
C893   C     0.70042   0.13935   0.71879   0.00000  Uiso   1.00
C894   C     0.98317   0.13945   0.71978   0.00000  Uiso   1.00
C895   C     0.83352   0.08744   0.74919   0.00000  Uiso   1.00
C896   C     0.85923   0.16612   0.65000   0.00000  Uiso   1.00
C897   C     0.93596   0.15997   0.51029   0.00000  Uiso   1.00
C898   C     0.87390   0.16223   0.59319   0.00000  Uiso   1.00
C899   C     0.74535   0.14170   0.93191   0.00000  Uiso   1.00
C900   C     0.73170   0.13241   0.98489   0.00000  Uiso   1.00
C901   C     0.76561   0.13437   0.51287   0.00000  Uiso   1.00
C902   C     0.91224   0.05681   0.64354   0.00000  Uiso   1.00
C903   C     0.83039   0.14213   0.93194   0.00000  Uiso   1.00
C904   C     0.93150   0.02568   0.59933   0.00000  Uiso   1.00
C905   C     0.93043   0.04377   0.54703   0.00000  Uiso   1.00
C906   C     0.67162   0.22500   0.86235   0.00000  Uiso   1.00
C907   C     0.98397   0.26837   0.87435   0.00000  Uiso   1.00
C908   C     0.71986   0.08348   0.65766   0.00000  Uiso   1.00
C909   C     0.69828   0.04587   0.69070   0.00000  Uiso   1.00
C910   C     0.85086   0.14749   0.51415   0.00000  Uiso   1.00
C911   C     0.90082   0.14938   0.98561   0.00000  Uiso   1.00
C912   C     0.91520   0.14029   0.93270   0.00000  Uiso   1.00
C913   C     0.88047   0.13588   0.90629   0.00000  Uiso   1.00
C914   C     0.83820   0.15404   0.56814   0.00000  Uiso   1.00
C915   C     0.92285   0.16572   0.56396   0.00000  Uiso   1.00
Cu916  Cu    0.78645   0.16666   0.75000   0.00000  Uiso   1.00
Cu917  Cu    0.88022   0.16667   0.75000   0.00000  Uiso   1.00
H918   H     0.95084   0.17305   0.58245   0.00000  Uiso   1.00
H919   H     0.75221   0.12863   0.55414   0.00000  Uiso   1.00
H920   H     0.69452   0.12441   0.50514   0.00000  Uiso   1.00
H921   H     0.89384   0.12615   0.86620   0.00000  Uiso   1.00
H922   H     0.90892   0.29472   0.70141   0.00000  Uiso   1.00
H923   H     0.93415   0.08554   0.63384   0.00000  Uiso   1.00
H924   H     0.87395   0.06564   0.64588   0.00000  Uiso   1.00
H925   H     0.96962   0.01705   0.59717   0.00000  Uiso   1.00
H926   H     0.90871   0.33066   0.60724   0.00000  Uiso   1.00
H927   H     0.89267   0.05293   0.54832   0.00000  Uiso   1.00
H928   H     0.94358   0.02029   0.51587   0.00000  Uiso   1.00
H929   H     0.75836   0.03799   0.79363   0.00000  Uiso   1.00
H930   H     0.95455   0.07126   0.53735   0.00000  Uiso   1.00
H931   H     0.69566   0.21887   0.88750   0.00000  Uiso   1.00
H932   H     0.97485   0.20210   0.87374   0.00000  Uiso   1.00
H933   H     0.96037   0.27596   0.84921   0.00000  Uiso   1.00
H934   H     0.96185   0.27026   0.91581   0.00000  Uiso   1.00
H935   H     0.68059   0.29135   0.86741   0.00000  Uiso   1.00
H936   H     0.75248   0.07253   0.62686   0.00000  Uiso   1.00
H937   H     0.69556   0.09635   0.63586   0.00000  Uiso   1.00
H938   H     0.68655   0.02272   0.66619   0.00000  Uiso   1.00
H939   H     0.72626   0.03153   0.70656   0.00000  Uiso   1.00
H940   H     0.75787   0.29603   0.79337   0.00000  Uiso   1.00
H941   H     0.99974   0.05464   0.72370   0.00000  Uiso   1.00
H942   H     0.94154   0.21624   0.80296   0.00000  Uiso   1.00
H943   H     0.96894   0.11821   0.69694   0.00000  Uiso   1.00
H944   H     0.95346   0.13695   0.91155   0.00000  Uiso   1.00
H945   H     0.97331   0.16468   0.98755   0.00000  Uiso   1.00
H946   H     0.80061   0.15369   0.59134   0.00000  Uiso   1.00
H947   H     0.71744   0.14301   0.91193   0.00000  Uiso   1.00
N948   N     0.71598   0.16666   0.74999   0.00000  Uiso   1.00
N949   N     0.95069   0.16669   0.75000   0.00000  Uiso   1.00
O950   O     0.79375   0.22678   0.75001   0.00000  Uiso   1.00
O951   O     0.70037   0.22267   0.80965   0.00000  Uiso   1.00
O952   O     0.73604   0.11338   0.68740   0.00000  Uiso   1.00
O953   O     0.87294   0.22679   0.75001   0.00000  Uiso   1.00
O954   O     0.77441   0.16665   0.82549   0.00000  Uiso   1.00
O955   O     0.85360   0.16666   0.82549   0.00000  Uiso   1.00
O956   O     0.79373   0.10654   0.75000   0.00000  Uiso   1.00
O957   O     0.87292   0.10655   0.75000   0.00000  Uiso   1.00
O958   O     0.81306   0.16667   0.67451   0.00000  Uiso   1.00
O959   O     0.89225   0.16668   0.67451   0.00000  Uiso   1.00
O960   O     0.91801   0.04128   0.69091   0.00000  Uiso   1.00
C961   C     0.16676   0.57925   0.74956   0.00000  Uiso   1.00
C962   C     0.12796   0.48145   0.90486   0.00000  Uiso   1.00
C963   C     0.20945   0.64488   0.72149   0.00000  Uiso   1.00
C964   C     0.14128   0.49422   0.84930   0.00000  Uiso   1.00
C965   C     0.20934   0.35444   0.71890   0.00000  Uiso   1.00
C966   C     0.16715   0.37615   0.74691   0.00000  Uiso   1.00
C967   C     0.12454   0.35488   0.77278   0.00000  Uiso   1.00
C968   C     0.12427   0.64549   0.77288   0.00000  Uiso   1.00
C969   C     0.16693   0.62384   0.74817   0.00000  Uiso   1.00
C970   C     0.30029   0.52726   0.78004   0.00000  Uiso   1.00
C971   C     0.01647   0.52679   0.78136   0.00000  Uiso   1.00
C972   C     0.14867   0.47474   0.98717   0.00000  Uiso   1.00
C973   C     0.03375   0.47268   0.71879   0.00000  Uiso   1.00
C974   C     0.31650   0.47278   0.71978   0.00000  Uiso   1.00
C975   C     0.16686   0.42077   0.74919   0.00000  Uiso   1.00
C976   C     0.19256   0.49946   0.65000   0.00000  Uiso   1.00
C977   C     0.26930   0.49330   0.51029   0.00000  Uiso   1.00
C978   C     0.20723   0.49557   0.59319   0.00000  Uiso   1.00
C979   C     0.07868   0.47504   0.93191   0.00000  Uiso   1.00
C980   C     0.06504   0.46574   0.98489   0.00000  Uiso   1.00
C981   C     0.09894   0.46770   0.51287   0.00000  Uiso   1.00
C982   C     0.24557   0.39014   0.64354   0.00000  Uiso   1.00
C983   C     0.16372   0.47546   0.93194   0.00000  Uiso   1.00
C984   C     0.26483   0.35902   0.59933   0.00000  Uiso   1.00
C985   C     0.26376   0.37711   0.54703   0.00000  Uiso   1.00
C986   C     0.00495   0.55833   0.86235   0.00000  Uiso   1.00
C987   C     0.31730   0.60171   0.87435   0.00000  Uiso   1.00
C988   C     0.05320   0.41681   0.65766   0.00000  Uiso   1.00
C989   C     0.03162   0.37920   0.69070   0.00000  Uiso   1.00
C990   C     0.18419   0.48082   0.51415   0.00000  Uiso   1.00
C991   C     0.23416   0.48272   0.98561   0.00000  Uiso   1.00
C992   C     0.24853   0.47362   0.93270   0.00000  Uiso   1.00
C993   C     0.21380   0.46921   0.90629   0.00000  Uiso   1.00
C994   C     0.17153   0.48738   0.56814   0.00000  Uiso   1.00
C995   C     0.25618   0.49906   0.56396   0.00000  Uiso   1.00
Cu996  Cu    0.11978   0.49999   0.75000   0.00000  Uiso   1.00
Cu997  Cu    0.21355   0.50001   0.75000   0.00000  Uiso   1.00
H998   H     0.28418   0.50638   0.58245   0.00000  Uiso   1.00
H999   H     0.08554   0.46196   0.55414   0.00000  Uiso   1.00
H1000  H     0.02785   0.45774   0.50514   0.00000  Uiso   1.00
H1001  H     0.22717   0.45949   0.86620   0.00000  Uiso   1.00
H1002  H     0.24225   0.62805   0.70141   0.00000  Uiso   1.00
H1003  H     0.26748   0.41887   0.63384   0.00000  Uiso   1.00
H1004  H     0.20729   0.39897   0.64588   0.00000  Uiso   1.00
H1005  H     0.30296   0.35039   0.59717   0.00000  Uiso   1.00
H1006  H     0.24204   0.66399   0.60724   0.00000  Uiso   1.00
H1007  H     0.22600   0.38627   0.54832   0.00000  Uiso   1.00
H1008  H     0.27691   0.35362   0.51587   0.00000  Uiso   1.00
H1009  H     0.09170   0.37133   0.79363   0.00000  Uiso   1.00
H1010  H     0.28788   0.40459   0.53735   0.00000  Uiso   1.00
H1011  H     0.02899   0.55221   0.88750   0.00000  Uiso   1.00
H1012  H     0.30818   0.53544   0.87374   0.00000  Uiso   1.00
H1013  H     0.29370   0.60929   0.84921   0.00000  Uiso   1.00
H1014  H     0.29519   0.60359   0.91581   0.00000  Uiso   1.00
H1015  H     0.01392   0.62469   0.86741   0.00000  Uiso   1.00
H1016  H     0.08582   0.40586   0.62686   0.00000  Uiso   1.00
H1017  H     0.02890   0.42968   0.63586   0.00000  Uiso   1.00
H1018  H     0.01988   0.35605   0.66619   0.00000  Uiso   1.00
H1019  H     0.05959   0.36486   0.70656   0.00000  Uiso   1.00
H1020  H     0.09121   0.62936   0.79337   0.00000  Uiso   1.00
H1021  H     0.33308   0.38797   0.72370   0.00000  Uiso   1.00
H1022  H     0.27487   0.54957   0.80296   0.00000  Uiso   1.00
H1023  H     0.30227   0.45154   0.69694   0.00000  Uiso   1.00
H1024  H     0.28679   0.47029   0.91155   0.00000  Uiso   1.00
H1025  H     0.30665   0.49801   0.98755   0.00000  Uiso   1.00
H1026  H     0.13394   0.48702   0.59134   0.00000  Uiso   1.00
H1027  H     0.05077   0.47634   0.91193   0.00000  Uiso   1.00
N1028  N     0.04931   0.49999   0.74999   0.00000  Uiso   1.00
N1029  N     0.28402   0.50002   0.75000   0.00000  Uiso   1.00
O1030  O     0.12708   0.56011   0.75001   0.00000  Uiso   1.00
O1031  O     0.03371   0.55600   0.80965   0.00000  Uiso   1.00
O1032  O     0.06938   0.44672   0.68740   0.00000  Uiso   1.00
O1033  O     0.20627   0.56012   0.75001   0.00000  Uiso   1.00
O1034  O     0.10775   0.49998   0.82549   0.00000  Uiso   1.00
O1035  O     0.18694   0.49999   0.82549   0.00000  Uiso   1.00
O1036  O     0.12706   0.43988   0.75000   0.00000  Uiso   1.00
O1037  O     0.20625   0.43989   0.75000   0.00000  Uiso   1.00
O1038  O     0.14640   0.50001   0.67451   0.00000  Uiso   1.00
O1039  O     0.22559   0.50002   0.67451   0.00000  Uiso   1.00
O1040  O     0.25134   0.37461   0.69091   0.00000  Uiso   1.00
C1041  C     0.50009   0.57925   0.74956   0.00000  Uiso   1.00
C1042  C     0.46130   0.48145   0.90486   0.00000  Uiso   1.00
C1043  C     0.54279   0.64488   0.72149   0.00000  Uiso   1.00
C1044  C     0.47462   0.49422   0.84930   0.00000  Uiso   1.00
C1045  C     0.54267   0.35444   0.71890   0.00000  Uiso   1.00
C1046  C     0.50048   0.37615   0.74691   0.00000  Uiso   1.00
C1047  C     0.45787   0.35488   0.77278   0.00000  Uiso   1.00
C1048  C     0.45761   0.64549   0.77288   0.00000  Uiso   1.00
C1049  C     0.50027   0.62384   0.74817   0.00000  Uiso   1.00
C1050  C     0.63362   0.52726   0.78004   0.00000  Uiso   1.00
C1051  C     0.34981   0.52679   0.78136   0.00000  Uiso   1.00
C1052  C     0.48200   0.47474   0.98717   0.00000  Uiso   1.00
C1053  C     0.36709   0.47268   0.71879   0.00000  Uiso   1.00
C1054  C     0.64983   0.47278   0.71978   0.00000  Uiso   1.00
C1055  C     0.50019   0.42077   0.74919   0.00000  Uiso   1.00
C1056  C     0.52589   0.49946   0.65000   0.00000  Uiso   1.00
C1057  C     0.60263   0.49330   0.51029   0.00000  Uiso   1.00
C1058  C     0.54057   0.49557   0.59319   0.00000  Uiso   1.00
C1059  C     0.41201   0.47504   0.93191   0.00000  Uiso   1.00
C1060  C     0.39837   0.46574   0.98489   0.00000  Uiso   1.00
C1061  C     0.43227   0.46770   0.51287   0.00000  Uiso   1.00
C1062  C     0.57890   0.39014   0.64354   0.00000  Uiso   1.00
C1063  C     0.49706   0.47546   0.93194   0.00000  Uiso   1.00
C1064  C     0.59816   0.35902   0.59933   0.00000  Uiso   1.00
C1065  C     0.59709   0.37711   0.54703   0.00000  Uiso   1.00
C1066  C     0.33828   0.55833   0.86235   0.00000  Uiso   1.00
C1067  C     0.65064   0.60171   0.87435   0.00000  Uiso   1.00
C1068  C     0.38653   0.41681   0.65766   0.00000  Uiso   1.00
C1069  C     0.36495   0.37920   0.69070   0.00000  Uiso   1.00
C1070  C     0.51752   0.48082   0.51415   0.00000  Uiso   1.00
C1071  C     0.56749   0.48272   0.98561   0.00000  Uiso   1.00
C1072  C     0.58187   0.47362   0.93270   0.00000  Uiso   1.00
C1073  C     0.54713   0.46921   0.90629   0.00000  Uiso   1.00
C1074  C     0.50486   0.48738   0.56814   0.00000  Uiso   1.00
C1075  C     0.58951   0.49906   0.56396   0.00000  Uiso   1.00
Cu1076 Cu    0.45311   0.49999   0.75000   0.00000  Uiso   1.00
Cu1077 Cu    0.54689   0.50001   0.75000   0.00000  Uiso   1.00
H1078  H     0.61751   0.50638   0.58245   0.00000  Uiso   1.00
H1079  H     0.41887   0.46196   0.55414   0.00000  Uiso   1.00
H1080  H     0.36119   0.45774   0.50514   0.00000  Uiso   1.00
H1081  H     0.56051   0.45949   0.86620   0.00000  Uiso   1.00
H1082  H     0.57559   0.62805   0.70141   0.00000  Uiso   1.00
H1083  H     0.60081   0.41887   0.63384   0.00000  Uiso   1.00
H1084  H     0.54062   0.39897   0.64588   0.00000  Uiso   1.00
H1085  H     0.63629   0.35039   0.59717   0.00000  Uiso   1.00
H1086  H     0.57537   0.66399   0.60724   0.00000  Uiso   1.00
H1087  H     0.55934   0.38627   0.54832   0.00000  Uiso   1.00
H1088  H     0.61024   0.35362   0.51587   0.00000  Uiso   1.00
H1089  H     0.42503   0.37133   0.79363   0.00000  Uiso   1.00
H1090  H     0.62122   0.40459   0.53735   0.00000  Uiso   1.00
H1091  H     0.36233   0.55221   0.88750   0.00000  Uiso   1.00
H1092  H     0.64151   0.53544   0.87374   0.00000  Uiso   1.00
H1093  H     0.62703   0.60929   0.84921   0.00000  Uiso   1.00
H1094  H     0.62852   0.60359   0.91581   0.00000  Uiso   1.00
H1095  H     0.34726   0.62469   0.86741   0.00000  Uiso   1.00
H1096  H     0.41915   0.40586   0.62686   0.00000  Uiso   1.00
H1097  H     0.36223   0.42968   0.63586   0.00000  Uiso   1.00
H1098  H     0.35321   0.35605   0.66619   0.00000  Uiso   1.00
H1099  H     0.39293   0.36486   0.70656   0.00000  Uiso   1.00
H1100  H     0.42454   0.62936   0.79337   0.00000  Uiso   1.00
H1101  H     0.66641   0.38797   0.72370   0.00000  Uiso   1.00
H1102  H     0.60820   0.54957   0.80296   0.00000  Uiso   1.00
H1103  H     0.63561   0.45154   0.69694   0.00000  Uiso   1.00
H1104  H     0.62013   0.47029   0.91155   0.00000  Uiso   1.00
H1105  H     0.63998   0.49801   0.98755   0.00000  Uiso   1.00
H1106  H     0.46728   0.48702   0.59134   0.00000  Uiso   1.00
H1107  H     0.38410   0.47634   0.91193   0.00000  Uiso   1.00
N1108  N     0.38265   0.49999   0.74999   0.00000  Uiso   1.00
N1109  N     0.61735   0.50002   0.75000   0.00000  Uiso   1.00
O1110  O     0.46042   0.56011   0.75001   0.00000  Uiso   1.00
O1111  O     0.36704   0.55600   0.80965   0.00000  Uiso   1.00
O1112  O     0.40271   0.44672   0.68740   0.00000  Uiso   1.00
O1113  O     0.53961   0.56012   0.75001   0.00000  Uiso   1.00
O1114  O     0.44108   0.49998   0.82549   0.00000  Uiso   1.00
O1115  O     0.52027   0.49999   0.82549   0.00000  Uiso   1.00
O1116  O     0.46039   0.43988   0.75000   0.00000  Uiso   1.00
O1117  O     0.53958   0.43989   0.75000   0.00000  Uiso   1.00
O1118  O     0.47973   0.50001   0.67451   0.00000  Uiso   1.00
O1119  O     0.55892   0.50002   0.67451   0.00000  Uiso   1.00
O1120  O     0.58468   0.37461   0.69091   0.00000  Uiso   1.00
C1121  C     0.83343   0.57925   0.74956   0.00000  Uiso   1.00
C1122  C     0.79463   0.48145   0.90486   0.00000  Uiso   1.00
C1123  C     0.87612   0.64488   0.72149   0.00000  Uiso   1.00
C1124  C     0.80795   0.49422   0.84930   0.00000  Uiso   1.00
C1125  C     0.87600   0.35444   0.71890   0.00000  Uiso   1.00
C1126  C     0.83382   0.37615   0.74691   0.00000  Uiso   1.00
C1127  C     0.79120   0.35488   0.77278   0.00000  Uiso   1.00
C1128  C     0.79094   0.64549   0.77288   0.00000  Uiso   1.00
C1129  C     0.83360   0.62384   0.74817   0.00000  Uiso   1.00
C1130  C     0.96696   0.52726   0.78004   0.00000  Uiso   1.00
C1131  C     0.68314   0.52679   0.78136   0.00000  Uiso   1.00
C1132  C     0.81533   0.47474   0.98717   0.00000  Uiso   1.00
C1133  C     0.70042   0.47268   0.71879   0.00000  Uiso   1.00
C1134  C     0.98317   0.47278   0.71978   0.00000  Uiso   1.00
C1135  C     0.83352   0.42077   0.74919   0.00000  Uiso   1.00
C1136  C     0.85923   0.49946   0.65000   0.00000  Uiso   1.00
C1137  C     0.93596   0.49330   0.51029   0.00000  Uiso   1.00
C1138  C     0.87390   0.49557   0.59319   0.00000  Uiso   1.00
C1139  C     0.74535   0.47504   0.93191   0.00000  Uiso   1.00
C1140  C     0.73170   0.46574   0.98489   0.00000  Uiso   1.00
C1141  C     0.76561   0.46770   0.51287   0.00000  Uiso   1.00
C1142  C     0.91224   0.39014   0.64354   0.00000  Uiso   1.00
C1143  C     0.83039   0.47546   0.93194   0.00000  Uiso   1.00
C1144  C     0.93150   0.35902   0.59933   0.00000  Uiso   1.00
C1145  C     0.93043   0.37711   0.54703   0.00000  Uiso   1.00
C1146  C     0.67162   0.55833   0.86235   0.00000  Uiso   1.00
C1147  C     0.98397   0.60171   0.87435   0.00000  Uiso   1.00
C1148  C     0.71986   0.41681   0.65766   0.00000  Uiso   1.00
C1149  C     0.69828   0.37920   0.69070   0.00000  Uiso   1.00
C1150  C     0.85086   0.48082   0.51415   0.00000  Uiso   1.00
C1151  C     0.90082   0.48272   0.98561   0.00000  Uiso   1.00
C1152  C     0.91520   0.47362   0.93270   0.00000  Uiso   1.00
C1153  C     0.88047   0.46921   0.90629   0.00000  Uiso   1.00
C1154  C     0.83820   0.48738   0.56814   0.00000  Uiso   1.00
C1155  C     0.92285   0.49906   0.56396   0.00000  Uiso   1.00
Cu1156 Cu    0.78645   0.49999   0.75000   0.00000  Uiso   1.00
Cu1157 Cu    0.88022   0.50001   0.75000   0.00000  Uiso   1.00
H1158  H     0.95084   0.50638   0.58245   0.00000  Uiso   1.00
H1159  H     0.75221   0.46196   0.55414   0.00000  Uiso   1.00
H1160  H     0.69452   0.45774   0.50514   0.00000  Uiso   1.00
H1161  H     0.89384   0.45949   0.86620   0.00000  Uiso   1.00
H1162  H     0.90892   0.62805   0.70141   0.00000  Uiso   1.00
H1163  H     0.93415   0.41887   0.63384   0.00000  Uiso   1.00
H1164  H     0.87395   0.39897   0.64588   0.00000  Uiso   1.00
H1165  H     0.96962   0.35039   0.59717   0.00000  Uiso   1.00
H1166  H     0.90871   0.66399   0.60724   0.00000  Uiso   1.00
H1167  H     0.89267   0.38627   0.54832   0.00000  Uiso   1.00
H1168  H     0.94358   0.35362   0.51587   0.00000  Uiso   1.00
H1169  H     0.75836   0.37133   0.79363   0.00000  Uiso   1.00
H1170  H     0.95455   0.40459   0.53735   0.00000  Uiso   1.00
H1171  H     0.69566   0.55221   0.88750   0.00000  Uiso   1.00
H1172  H     0.97485   0.53544   0.87374   0.00000  Uiso   1.00
H1173  H     0.96037   0.60929   0.84921   0.00000  Uiso   1.00
H1174  H     0.96185   0.60359   0.91581   0.00000  Uiso   1.00
H1175  H     0.68059   0.62469   0.86741   0.00000  Uiso   1.00
H1176  H     0.75248   0.40586   0.62686   0.00000  Uiso   1.00
H1177  H     0.69556   0.42968   0.63586   0.00000  Uiso   1.00
H1178  H     0.68655   0.35605   0.66619   0.00000  Uiso   1.00
H1179  H     0.72626   0.36486   0.70656   0.00000  Uiso   1.00
H1180  H     0.75787   0.62936   0.79337   0.00000  Uiso   1.00
H1181  H     0.99974   0.38797   0.72370   0.00000  Uiso   1.00
H1182  H     0.94154   0.54957   0.80296   0.00000  Uiso   1.00
H1183  H     0.96894   0.45154   0.69694   0.00000  Uiso   1.00
H1184  H     0.95346   0.47029   0.91155   0.00000  Uiso   1.00
H1185  H     0.97331   0.49801   0.98755   0.00000  Uiso   1.00
H1186  H     0.80061   0.48702   0.59134   0.00000  Uiso   1.00
H1187  H     0.71744   0.47634   0.91193   0.00000  Uiso   1.00
N1188  N     0.71598   0.49999   0.74999   0.00000  Uiso   1.00
N1189  N     0.95069   0.50002   0.75000   0.00000  Uiso   1.00
O1190  O     0.79375   0.56011   0.75001   0.00000  Uiso   1.00
O1191  O     0.70037   0.55600   0.80965   0.00000  Uiso   1.00
O1192  O     0.73604   0.44672   0.68740   0.00000  Uiso   1.00
O1193  O     0.87294   0.56012   0.75001   0.00000  Uiso   1.00
O1194  O     0.77441   0.49998   0.82549   0.00000  Uiso   1.00
O1195  O     0.85360   0.49999   0.82549   0.00000  Uiso   1.00
O1196  O     0.79373   0.43988   0.75000   0.00000  Uiso   1.00
O1197  O     0.87292   0.43989   0.75000   0.00000  Uiso   1.00
O1198  O     0.81306   0.50001   0.67451   0.00000  Uiso   1.00
O1199  O     0.89225   0.50002   0.67451   0.00000  Uiso   1.00
O1200  O     0.91801   0.37461   0.69091   0.00000  Uiso   1.00
C1201  C     0.16676   0.91258   0.74956   0.00000  Uiso   1.00
C1202  C     0.12796   0.81478   0.90486   0.00000  Uiso   1.00
C1203  C     0.20945   0.97822   0.72149   0.00000  Uiso   1.00
C1204  C     0.14128   0.82755   0.84930   0.00000  Uiso   1.00
C1205  C     0.20934   0.68778   0.71890   0.00000  Uiso   1.00
C1206  C     0.16715   0.70948   0.74691   0.00000  Uiso   1.00
C1207  C     0.12454   0.68821   0.77278   0.00000  Uiso   1.00
C1208  C     0.12427   0.97882   0.77288   0.00000  Uiso   1.00
C1209  C     0.16693   0.95717   0.74817   0.00000  Uiso   1.00
C1210  C     0.30029   0.86059   0.78004   0.00000  Uiso   1.00
C1211  C     0.01647   0.86013   0.78136   0.00000  Uiso   1.00
C1212  C     0.14867   0.80807   0.98717   0.00000  Uiso   1.00
C1213  C     0.03375   0.80602   0.71879   0.00000  Uiso   1.00
C1214  C     0.31650   0.80612   0.71978   0.00000  Uiso   1.00
C1215  C     0.16686   0.75410   0.74919   0.00000  Uiso   1.00
C1216  C     0.19256   0.83279   0.65000   0.00000  Uiso   1.00
C1217  C     0.26930   0.82663   0.51029   0.00000  Uiso   1.00
C1218  C     0.20723   0.82890   0.59319   0.00000  Uiso   1.00
C1219  C     0.07868   0.80837   0.93191   0.00000  Uiso   1.00
C1220  C     0.06504   0.79907   0.98489   0.00000  Uiso   1.00
C1221  C     0.09894   0.80104   0.51287   0.00000  Uiso   1.00
C1222  C     0.24557   0.72347   0.64354   0.00000  Uiso   1.00
C1223  C     0.16372   0.80879   0.93194   0.00000  Uiso   1.00
C1224  C     0.26483   0.69235   0.59933   0.00000  Uiso   1.00
C1225  C     0.26376   0.71044   0.54703   0.00000  Uiso   1.00
C1226  C     0.00495   0.89167   0.86235   0.00000  Uiso   1.00
C1227  C     0.31730   0.93504   0.87435   0.00000  Uiso   1.00
C1228  C     0.05320   0.75014   0.65766   0.00000  Uiso   1.00
C1229  C     0.03162   0.71253   0.69070   0.00000  Uiso   1.00
C1230  C     0.18419   0.81415   0.51415   0.00000  Uiso   1.00
C1231  C     0.23416   0.81605   0.98561   0.00000  Uiso   1.00
C1232  C     0.24853   0.80695   0.93270   0.00000  Uiso   1.00
C1233  C     0.21380   0.80255   0.90629   0.00000  Uiso   1.00
C1234  C     0.17153   0.82071   0.56814   0.00000  Uiso   1.00
C1235  C     0.25618   0.83239   0.56396   0.00000  Uiso   1.00
Cu1236 Cu    0.11978   0.83333   0.75000   0.00000  Uiso   1.00
Cu1237 Cu    0.21355   0.83334   0.75000   0.00000  Uiso   1.00
H1238  H     0.28418   0.83972   0.58245   0.00000  Uiso   1.00
H1239  H     0.08554   0.79529   0.55414   0.00000  Uiso   1.00
H1240  H     0.02785   0.79108   0.50514   0.00000  Uiso   1.00
H1241  H     0.22717   0.79282   0.86620   0.00000  Uiso   1.00
H1242  H     0.24225   0.96139   0.70141   0.00000  Uiso   1.00
H1243  H     0.26748   0.75220   0.63384   0.00000  Uiso   1.00
H1244  H     0.20729   0.73230   0.64588   0.00000  Uiso   1.00
H1245  H     0.30296   0.68372   0.59717   0.00000  Uiso   1.00
H1246  H     0.24204   0.99732   0.60724   0.00000  Uiso   1.00
H1247  H     0.22600   0.71960   0.54832   0.00000  Uiso   1.00
H1248  H     0.27691   0.68696   0.51587   0.00000  Uiso   1.00
H1249  H     0.09170   0.70466   0.79363   0.00000  Uiso   1.00
H1250  H     0.28788   0.73792   0.53735   0.00000  Uiso   1.00
H1251  H     0.02899   0.88554   0.88750   0.00000  Uiso   1.00
H1252  H     0.30818   0.86877   0.87374   0.00000  Uiso   1.00
H1253  H     0.29370   0.94263   0.84921   0.00000  Uiso   1.00
H1254  H     0.29519   0.93692   0.91581   0.00000  Uiso   1.00
H1255  H     0.01392   0.95802   0.86741   0.00000  Uiso   1.00
H1256  H     0.08582   0.73919   0.62686   0.00000  Uiso   1.00
H1257  H     0.02890   0.76301   0.63586   0.00000  Uiso   1.00
H1258  H     0.01988   0.68938   0.66619   0.00000  Uiso   1.00
H1259  H     0.05959   0.69819   0.70656   0.00000  Uiso   1.00
H1260  H     0.09121   0.96270   0.79337   0.00000  Uiso   1.00
H1261  H     0.33308   0.72131   0.72370   0.00000  Uiso   1.00
H1262  H     0.27487   0.88290   0.80296   0.00000  Uiso   1.00
H1263  H     0.30227   0.78488   0.69694   0.00000  Uiso   1.00
H1264  H     0.28679   0.80362   0.91155   0.00000  Uiso   1.00
H1265  H     0.30665   0.83135   0.98755   0.00000  Uiso   1.00
H1266  H     0.13394   0.82035   0.59134   0.00000  Uiso   1.00
H1267  H     0.05077   0.80968   0.91193   0.00000  Uiso   1.00
N1268  N     0.04931   0.83332   0.74999   0.00000  Uiso   1.00
N1269  N     0.28402   0.83335   0.75000   0.00000  Uiso   1.00
O1270  O     0.12708   0.89345   0.75001   0.00000  Uiso   1.00
O1271  O     0.03371   0.88933   0.80965   0.00000  Uiso   1.00
O1272  O     0.06938   0.78005   0.68740   0.00000  Uiso   1.00
O1273  O     0.20627   0.89346   0.75001   0.00000  Uiso   1.00
O1274  O     0.10775   0.83332   0.82549   0.00000  Uiso   1.00
O1275  O     0.18694   0.83333   0.82549   0.00000  Uiso   1.00
O1276  O     0.12706   0.77321   0.75000   0.00000  Uiso   1.00
O1277  O     0.20625   0.77322   0.75000   0.00000  Uiso   1.00
O1278  O     0.14640   0.83334   0.67451   0.00000  Uiso   1.00
O1279  O     0.22559   0.83335   0.67451   0.00000  Uiso   1.00
O1280  O     0.25134   0.70794   0.69091   0.00000  Uiso   1.00
C1281  C     0.50009   0.91258   0.74956   0.00000  Uiso   1.00
C1282  C     0.46130   0.81478   0.90486   0.00000  Uiso   1.00
C1283  C     0.54279   0.97822   0.72149   0.00000  Uiso   1.00
C1284  C     0.47462   0.82755   0.84930   0.00000  Uiso   1.00
C1285  C     0.54267   0.68778   0.71890   0.00000  Uiso   1.00
C1286  C     0.50048   0.70948   0.74691   0.00000  Uiso   1.00
C1287  C     0.45787   0.68821   0.77278   0.00000  Uiso   1.00
C1288  C     0.45761   0.97882   0.77288   0.00000  Uiso   1.00
C1289  C     0.50027   0.95717   0.74817   0.00000  Uiso   1.00
C1290  C     0.63362   0.86059   0.78004   0.00000  Uiso   1.00
C1291  C     0.34981   0.86013   0.78136   0.00000  Uiso   1.00
C1292  C     0.48200   0.80807   0.98717   0.00000  Uiso   1.00
C1293  C     0.36709   0.80602   0.71879   0.00000  Uiso   1.00
C1294  C     0.64983   0.80612   0.71978   0.00000  Uiso   1.00
C1295  C     0.50019   0.75410   0.74919   0.00000  Uiso   1.00
C1296  C     0.52589   0.83279   0.65000   0.00000  Uiso   1.00
C1297  C     0.60263   0.82663   0.51029   0.00000  Uiso   1.00
C1298  C     0.54057   0.82890   0.59319   0.00000  Uiso   1.00
C1299  C     0.41201   0.80837   0.93191   0.00000  Uiso   1.00
C1300  C     0.39837   0.79907   0.98489   0.00000  Uiso   1.00
C1301  C     0.43227   0.80104   0.51287   0.00000  Uiso   1.00
C1302  C     0.57890   0.72347   0.64354   0.00000  Uiso   1.00
C1303  C     0.49706   0.80879   0.93194   0.00000  Uiso   1.00
C1304  C     0.59816   0.69235   0.59933   0.00000  Uiso   1.00
C1305  C     0.59709   0.71044   0.54703   0.00000  Uiso   1.00
C1306  C     0.33828   0.89167   0.86235   0.00000  Uiso   1.00
C1307  C     0.65064   0.93504   0.87435   0.00000  Uiso   1.00
C1308  C     0.38653   0.75014   0.65766   0.00000  Uiso   1.00
C1309  C     0.36495   0.71253   0.69070   0.00000  Uiso   1.00
C1310  C     0.51752   0.81415   0.51415   0.00000  Uiso   1.00
C1311  C     0.56749   0.81605   0.98561   0.00000  Uiso   1.00
C1312  C     0.58187   0.80695   0.93270   0.00000  Uiso   1.00
C1313  C     0.54713   0.80255   0.90629   0.00000  Uiso   1.00
C1314  C     0.50486   0.82071   0.56814   0.00000  Uiso   1.00
C1315  C     0.58951   0.83239   0.56396   0.00000  Uiso   1.00
Cu1316 Cu    0.45311   0.83333   0.75000   0.00000  Uiso   1.00
Cu1317 Cu    0.54689   0.83334   0.75000   0.00000  Uiso   1.00
H1318  H     0.61751   0.83972   0.58245   0.00000  Uiso   1.00
H1319  H     0.41887   0.79529   0.55414   0.00000  Uiso   1.00
H1320  H     0.36119   0.79108   0.50514   0.00000  Uiso   1.00
H1321  H     0.56051   0.79282   0.86620   0.00000  Uiso   1.00
H1322  H     0.57559   0.96139   0.70141   0.00000  Uiso   1.00
H1323  H     0.60081   0.75220   0.63384   0.00000  Uiso   1.00
H1324  H     0.54062   0.73230   0.64588   0.00000  Uiso   1.00
H1325  H     0.63629   0.68372   0.59717   0.00000  Uiso   1.00
H1326  H     0.57537   0.99732   0.60724   0.00000  Uiso   1.00
H1327  H     0.55934   0.71960   0.54832   0.00000  Uiso   1.00
H1328  H     0.61024   0.68696   0.51587   0.00000  Uiso   1.00
H1329  H     0.42503   0.70466   0.79363   0.00000  Uiso   1.00
H1330  H     0.62122   0.73792   0.53735   0.00000  Uiso   1.00
H1331  H     0.36233   0.88554   0.88750   0.00000  Uiso   1.00
H1332  H     0.64151   0.86877   0.87374   0.00000  Uiso   1.00
H1333  H     0.62703   0.94263   0.84921   0.00000  Uiso   1.00
H1334  H     0.62852   0.93692   0.91581   0.00000  Uiso   1.00
H1335  H     0.34726   0.95802   0.86741   0.00000  Uiso   1.00
H1336  H     0.41915   0.73919   0.62686   0.00000  Uiso   1.00
H1337  H     0.36223   0.76301   0.63586   0.00000  Uiso   1.00
H1338  H     0.35321   0.68938   0.66619   0.00000  Uiso   1.00
H1339  H     0.39293   0.69819   0.70656   0.00000  Uiso   1.00
H1340  H     0.42454   0.96270   0.79337   0.00000  Uiso   1.00
H1341  H     0.66641   0.72131   0.72370   0.00000  Uiso   1.00
H1342  H     0.60820   0.88290   0.80296   0.00000  Uiso   1.00
H1343  H     0.63561   0.78488   0.69694   0.00000  Uiso   1.00
H1344  H     0.62013   0.80362   0.91155   0.00000  Uiso   1.00
H1345  H     0.63998   0.83135   0.98755   0.00000  Uiso   1.00
H1346  H     0.46728   0.82035   0.59134   0.00000  Uiso   1.00
H1347  H     0.38410   0.80968   0.91193   0.00000  Uiso   1.00
N1348  N     0.38265   0.83332   0.74999   0.00000  Uiso   1.00
N1349  N     0.61735   0.83335   0.75000   0.00000  Uiso   1.00
O1350  O     0.46042   0.89345   0.75001   0.00000  Uiso   1.00
O1351  O     0.36704   0.88933   0.80965   0.00000  Uiso   1.00
O1352  O     0.40271   0.78005   0.68740   0.00000  Uiso   1.00
O1353  O     0.53961   0.89346   0.75001   0.00000  Uiso   1.00
O1354  O     0.44108   0.83332   0.82549   0.00000  Uiso   1.00
O1355  O     0.52027   0.83333   0.82549   0.00000  Uiso   1.00
O1356  O     0.46039   0.77321   0.75000   0.00000  Uiso   1.00
O1357  O     0.53958   0.77322   0.75000   0.00000  Uiso   1.00
O1358  O     0.47973   0.83334   0.67451   0.00000  Uiso   1.00
O1359  O     0.55892   0.83335   0.67451   0.00000  Uiso   1.00
O1360  O     0.58468   0.70794   0.69091   0.00000  Uiso   1.00
C1361  C     0.83343   0.91258   0.74956   0.00000  Uiso   1.00
C1362  C     0.79463   0.81478   0.90486   0.00000  Uiso   1.00
C1363  C     0.87612   0.97822   0.72149   0.00000  Uiso   1.00
C1364  C     0.80795   0.82755   0.84930   0.00000  Uiso   1.00
C1365  C     0.87600   0.68778   0.71890   0.00000  Uiso   1.00
C1366  C     0.83382   0.70948   0.74691   0.00000  Uiso   1.00
C1367  C     0.79120   0.68821   0.77278   0.00000  Uiso   1.00
C1368  C     0.79094   0.97882   0.77288   0.00000  Uiso   1.00
C1369  C     0.83360   0.95717   0.74817   0.00000  Uiso   1.00
C1370  C     0.96696   0.86059   0.78004   0.00000  Uiso   1.00
C1371  C     0.68314   0.86013   0.78136   0.00000  Uiso   1.00
C1372  C     0.81533   0.80807   0.98717   0.00000  Uiso   1.00
C1373  C     0.70042   0.80602   0.71879   0.00000  Uiso   1.00
C1374  C     0.98317   0.80612   0.71978   0.00000  Uiso   1.00
C1375  C     0.83352   0.75410   0.74919   0.00000  Uiso   1.00
C1376  C     0.85923   0.83279   0.65000   0.00000  Uiso   1.00
C1377  C     0.93596   0.82663   0.51029   0.00000  Uiso   1.00
C1378  C     0.87390   0.82890   0.59319   0.00000  Uiso   1.00
C1379  C     0.74535   0.80837   0.93191   0.00000  Uiso   1.00
C1380  C     0.73170   0.79907   0.98489   0.00000  Uiso   1.00
C1381  C     0.76561   0.80104   0.51287   0.00000  Uiso   1.00
C1382  C     0.91224   0.72347   0.64354   0.00000  Uiso   1.00
C1383  C     0.83039   0.80879   0.93194   0.00000  Uiso   1.00
C1384  C     0.93150   0.69235   0.59933   0.00000  Uiso   1.00
C1385  C     0.93043   0.71044   0.54703   0.00000  Uiso   1.00
C1386  C     0.67162   0.89167   0.86235   0.00000  Uiso   1.00
C1387  C     0.98397   0.93504   0.87435   0.00000  Uiso   1.00
C1388  C     0.71986   0.75014   0.65766   0.00000  Uiso   1.00
C1389  C     0.69828   0.71253   0.69070   0.00000  Uiso   1.00
C1390  C     0.85086   0.81415   0.51415   0.00000  Uiso   1.00
C1391  C     0.90082   0.81605   0.98561   0.00000  Uiso   1.00
C1392  C     0.91520   0.80695   0.93270   0.00000  Uiso   1.00
C1393  C     0.88047   0.80255   0.90629   0.00000  Uiso   1.00
C1394  C     0.83820   0.82071   0.56814   0.00000  Uiso   1.00
C1395  C     0.92285   0.83239   0.56396   0.00000  Uiso   1.00
Cu1396 Cu    0.78645   0.83333   0.75000   0.00000  Uiso   1.00
Cu1397 Cu    0.88022   0.83334   0.75000   0.00000  Uiso   1.00
H1398  H     0.95084   0.83972   0.58245   0.00000  Uiso   1.00
H1399  H     0.75221   0.79529   0.55414   0.00000  Uiso   1.00
H1400  H     0.69452   0.79108   0.50514   0.00000  Uiso   1.00
H1401  H     0.89384   0.79282   0.86620   0.00000  Uiso   1.00
H1402  H     0.90892   0.96139   0.70141   0.00000  Uiso   1.00
H1403  H     0.93415   0.75220   0.63384   0.00000  Uiso   1.00
H1404  H     0.87395   0.73230   0.64588   0.00000  Uiso   1.00
H1405  H     0.96962   0.68372   0.59717   0.00000  Uiso   1.00
H1406  H     0.90871   0.99732   0.60724   0.00000  Uiso   1.00
H1407  H     0.89267   0.71960   0.54832   0.00000  Uiso   1.00
H1408  H     0.94358   0.68696   0.51587   0.00000  Uiso   1.00
H1409  H     0.75836   0.70466   0.79363   0.00000  Uiso   1.00
H1410  H     0.95455   0.73792   0.53735   0.00000  Uiso   1.00
H1411  H     0.69566   0.88554   0.88750   0.00000  Uiso   1.00
H1412  H     0.97485   0.86877   0.87374   0.00000  Uiso   1.00
H1413  H     0.96037   0.94263   0.84921   0.00000  Uiso   1.00
H1414  H     0.96185   0.93692   0.91581   0.00000  Uiso   1.00
H1415  H     0.68059   0.95802   0.86741   0.00000  Uiso   1.00
H1416  H     0.75248   0.73919   0.62686   0.00000  Uiso   1.00
H1417  H     0.69556   0.76301   0.63586   0.00000  Uiso   1.00
H1418  H     0.68655   0.68938   0.66619   0.00000  Uiso   1.00
H1419  H     0.72626   0.69819   0.70656   0.00000  Uiso   1.00
H1420  H     0.75787   0.96270   0.79337   0.00000  Uiso   1.00
H1421  H     0.99974   0.72131   0.72370   0.00000  Uiso   1.00
H1422  H     0.94154   0.88290   0.80296   0.00000  Uiso   1.00
H1423  H     0.96894   0.78488   0.69694   0.00000  Uiso   1.00
H1424  H     0.95346   0.80362   0.91155   0.00000  Uiso   1.00
H1425  H     0.97331   0.83135   0.98755   0.00000  Uiso   1.00
H1426  H     0.80061   0.82035   0.59134   0.00000  Uiso   1.00
H1427  H     0.71744   0.80968   0.91193   0.00000  Uiso   1.00
N1428  N     0.71598   0.83332   0.74999   0.00000  Uiso   1.00
N1429  N     0.95069   0.83335   0.75000   0.00000  Uiso   1.00
O1430  O     0.79375   0.89345   0.75001   0.00000  Uiso   1.00
O1431  O     0.70037   0.88933   0.80965   0.00000  Uiso   1.00
O1432  O     0.73604   0.78005   0.68740   0.00000  Uiso   1.00
O1433  O     0.87294   0.89346   0.75001   0.00000  Uiso   1.00
O1434  O     0.77441   0.83332   0.82549   0.00000  Uiso   1.00
O1435  O     0.85360   0.83333   0.82549   0.00000  Uiso   1.00
O1436  O     0.79373   0.77321   0.75000   0.00000  Uiso   1.00
O1437  O     0.87292   0.77322   0.75000   0.00000  Uiso   1.00
O1438  O     0.81306   0.83334   0.67451   0.00000  Uiso   1.00
O1439  O     0.89225   0.83335   0.67451   0.00000  Uiso   1.00
O1440  O     0.91801   0.70794   0.69091   0.00000  Uiso   1.00
loop_
_geom_bond_atom_site_label_1
_geom_bond_atom_site_label_2
_geom_bond_distance
_geom_bond_site_symmetry_2
_ccdc_geom_bond_type
C1     C9      1.443   .     S
C1     O70     1.291   .     A
C1     O73     1.292   .     A
C2     C4      1.485   .     S
C2     C19     1.404   .     A
C2     C23     1.428   .     A
C3     H42     1.084   .     S
C3     C9      1.399   .     A
C3     C245    1.389   .     S
C4     O75     1.293   .     A
C4     O74     1.310   .     A
C5     C6      1.411   .     A
C5     O80     1.385   .     S
C5     C483    1.389   1_545 S
C6     C15     1.445   .     S
C6     C7      1.399   .     A
C7     H49     1.084   .     S
C7     C488    1.382   1_545 S
C8     C9      1.397   .     A
C8     H60     1.083   .     S
C8     C247    1.382   .     S
C10    H62     1.081   .     S
C10    N69     1.363   .     A
C10    C91     1.428   .     S
C11    N68     1.373   .     A
C11    O71     1.388   .     S
C11    C170    1.428   1_455 S
C12    C23     1.417   .     A
C12    C741    1.410   .     S
C12    C750    1.421   .     S
C13    O72     1.399   .     S
C13    N68     1.375   .     A
C13    C174    1.441   1_455 S
C14    N69     1.364   .     A
C14    H63     1.075   .     S
C14    C93     1.441   .     S
C15    O76     1.290   .     A
C15    O77     1.293   .     A
C16    O78     1.296   .     A
C16    O79     1.297   .     A
C16    C18     1.463   .     S
C17    C35     1.390   .     A
C17    C751    1.396   1_554 S
C17    H785    1.079   1_554 S
C18    C35     1.399   .     A
C18    C34     1.400   .     A
C19    C20     1.393   .     A
C19    H67     1.083   .     S
C20    C741    1.388   .     S
C20    H760    1.078   .     S
C21    H39     1.077   .     S
C21    C740    1.388   1_554 S
C21    C732    1.410   1_554 S
C22    H44     1.116   .     S
C22    H43     1.110   .     S
C22    C24     1.530   .     S
C22    O80     1.418   .     S
C23    C33     1.414   .     A
C24    H45     1.111   .     S
C24    C25     1.527   .     S
C24    H526    1.111   1_545 S
C25    H50     1.111   .     S
C25    H47     1.111   .     S
C25    H48     1.110   .     S
C26    O71     1.417   .     S
C26    H51     1.111   .     S
C26    C187    1.523   1_455 S
C26    H212    1.111   1_455 S
C27    H54     1.111   .     S
C27    H53     1.110   .     S
C27    C106    1.523   .     S
C27    H135    1.110   .     S
C28    H56     1.111   .     S
C28    H57     1.110   .     S
C28    O72     1.413   .     S
C28    C29     1.528   .     S
C29    H59     1.110   .     S
C29    H58     1.110   .     S
C29    H221    1.109   1_455 S
C30    C34     1.402   .     A
C30    C732    1.421   1_554 S
C30    C751    1.416   1_554 S
C31    C32     1.389   .     A
C31    C737    1.396   .     S
C31    C750    1.416   .     S
C32    H64     1.084   .     S
C32    C33     1.384   .     A
C33    H41     1.078   .     S
C34    H66     1.077   .     S
C35    H38     1.083   .     S
Cu36   Cu37    2.685   .     S
Cu36   O76     1.955   .     S
Cu36   O70     1.956   .     S
Cu36   O74     1.951   .     S
Cu36   N68     2.018   .     S
Cu36   O78     1.945   .     S
Cu37   N69     2.017   .     S
Cu37   O79     1.951   .     S
Cu37   O75     1.945   .     S
Cu37   O77     1.956   .     S
Cu37   O73     1.955   .     S
H40    C740    1.078   1_554 S
H46    C264    1.111   .     S
H52    C106    1.111   .     S
H55    C187    1.110   1_455 S
H61    C109    1.109   .     S
H65    C737    1.079   .     S
C81    C89     1.443   .     S
C81    O150    1.291   .     A
C81    O153    1.292   .     A
C82    C84     1.485   .     S
C82    C99     1.404   .     A
C82    C103    1.428   .     A
C83    H122    1.084   .     S
C83    C89     1.399   .     A
C83    C325    1.389   .     S
C84    O155    1.293   .     A
C84    O154    1.310   .     A
C85    C86     1.411   .     A
C85    O160    1.385   .     S
C85    C563    1.389   1_545 S
C86    C95     1.445   .     S
C86    C87     1.399   .     A
C87    H129    1.084   .     S
C87    C568    1.382   1_545 S
C88    C89     1.397   .     A
C88    H140    1.083   .     S
C88    C327    1.382   .     S
C90    H142    1.081   .     S
C90    N149    1.363   .     A
C90    C171    1.428   .     S
C91    N148    1.373   .     A
C91    O151    1.388   .     S
C92    C103    1.417   .     A
C92    C821    1.410   .     S
C92    C830    1.421   .     S
C93    O152    1.399   .     S
C93    N148    1.375   .     A
C94    N149    1.364   .     A
C94    H143    1.075   .     S
C94    C173    1.441   .     S
C95    O156    1.290   .     A
C95    O157    1.293   .     A
C96    O158    1.296   .     A
C96    O159    1.297   .     A
C96    C98     1.463   .     S
C97    C115    1.390   .     A
C97    C831    1.396   1_554 S
C97    H865    1.079   1_554 S
C98    C115    1.399   .     A
C98    C114    1.400   .     A
C99    C100    1.393   .     A
C99    H147    1.083   .     S
C100   C821    1.388   .     S
C100   H840    1.078   .     S
C101   H119    1.077   .     S
C101   C820    1.388   1_554 S
C101   C812    1.410   1_554 S
C102   H124    1.116   .     S
C102   H123    1.110   .     S
C102   C104    1.530   .     S
C102   O160    1.418   .     S
C103   C113    1.414   .     A
C104   H125    1.111   .     S
C104   C105    1.527   .     S
C104   H606    1.111   1_545 S
C105   H130    1.111   .     S
C105   H127    1.111   .     S
C105   H128    1.110   .     S
C106   O151    1.417   .     S
C106   H131    1.111   .     S
C107   H134    1.111   .     S
C107   H133    1.110   .     S
C107   C186    1.523   .     S
C107   H215    1.110   .     S
C108   H136    1.111   .     S
C108   H137    1.110   .     S
C108   O152    1.413   .     S
C108   C109    1.528   .     S
C109   H139    1.110   .     S
C109   H138    1.110   .     S
C110   C114    1.402   .     A
C110   C812    1.421   1_554 S
C110   C831    1.416   1_554 S
C111   C112    1.389   .     A
C111   C817    1.396   .     S
C111   C830    1.416   .     S
C112   H144    1.084   .     S
C112   C113    1.384   .     A
C113   H121    1.078   .     S
C114   H146    1.077   .     S
C115   H118    1.083   .     S
Cu116  Cu117   2.685   .     S
Cu116  O156    1.955   .     S
Cu116  O150    1.956   .     S
Cu116  O154    1.951   .     S
Cu116  N148    2.018   .     S
Cu116  O158    1.945   .     S
Cu117  N149    2.017   .     S
Cu117  O159    1.951   .     S
Cu117  O155    1.945   .     S
Cu117  O157    1.956   .     S
Cu117  O153    1.955   .     S
H120   C820    1.078   1_554 S
H126   C344    1.111   .     S
H132   C186    1.111   .     S
H141   C189    1.109   .     S
H145   C817    1.079   .     S
C161   C169    1.443   .     S
C161   O230    1.291   .     A
C161   O233    1.292   .     A
C162   C164    1.485   .     S
C162   C179    1.404   .     A
C162   C183    1.428   .     A
C163   H202    1.084   .     S
C163   C169    1.399   .     A
C163   C405    1.389   .     S
C164   O235    1.293   .     A
C164   O234    1.310   .     A
C165   C166    1.411   .     A
C165   O240    1.385   .     S
C165   C643    1.389   1_545 S
C166   C175    1.445   .     S
C166   C167    1.399   .     A
C167   H209    1.084   .     S
C167   C648    1.382   1_545 S
C168   C169    1.397   .     A
C168   H220    1.083   .     S
C168   C407    1.382   .     S
C170   H222    1.081   .     S
C170   N229    1.363   .     A
C170   C11     1.428   1_655 S
C171   N228    1.373   .     A
C171   O231    1.388   .     S
C172   C183    1.417   .     A
C172   C901    1.410   .     S
C172   C910    1.421   .     S
C173   O232    1.399   .     S
C173   N228    1.375   .     A
C174   N229    1.364   .     A
C174   H223    1.075   .     S
C174   C13     1.441   1_655 S
C175   O236    1.290   .     A
C175   O237    1.293   .     A
C176   O238    1.296   .     A
C176   O239    1.297   .     A
C176   C178    1.463   .     S
C177   C195    1.390   .     A
C177   C911    1.396   1_554 S
C177   H945    1.079   1_554 S
C178   C195    1.399   .     A
C178   C194    1.400   .     A
C179   C180    1.393   .     A
C179   H227    1.083   .     S
C180   C901    1.388   .     S
C180   H920    1.078   .     S
C181   H199    1.077   .     S
C181   C900    1.388   1_554 S
C181   C892    1.410   1_554 S
C182   H204    1.116   .     S
C182   H203    1.110   .     S
C182   C184    1.530   .     S
C182   O240    1.418   .     S
C183   C193    1.414   .     A
C184   H205    1.111   .     S
C184   C185    1.527   .     S
C184   H686    1.111   1_545 S
C185   H210    1.111   .     S
C185   H207    1.111   .     S
C185   H208    1.110   .     S
C186   O231    1.417   .     S
C186   H211    1.111   .     S
C187   H214    1.111   .     S
C187   H213    1.110   .     S
C187   C26     1.523   1_655 S
C187   H55     1.110   1_655 S
C188   H216    1.111   .     S
C188   H217    1.110   .     S
C188   O232    1.413   .     S
C188   C189    1.528   .     S
C189   H219    1.110   .     S
C189   H218    1.110   .     S
C190   C194    1.402   .     A
C190   C892    1.421   1_554 S
C190   C911    1.416   1_554 S
C191   C192    1.389   .     A
C191   C897    1.396   .     S
C191   C910    1.416   .     S
C192   H224    1.084   .     S
C192   C193    1.384   .     A
C193   H201    1.078   .     S
C194   H226    1.077   .     S
C195   H198    1.083   .     S
Cu196  Cu197   2.685   .     S
Cu196  O236    1.955   .     S
Cu196  O230    1.956   .     S
Cu196  O234    1.951   .     S
Cu196  N228    2.018   .     S
Cu196  O238    1.945   .     S
Cu197  N229    2.017   .     S
Cu197  O239    1.951   .     S
Cu197  O235    1.945   .     S
Cu197  O237    1.956   .     S
Cu197  O233    1.955   .     S
H200   C900    1.078   1_554 S
H206   C424    1.111   .     S
H212   C26     1.111   1_655 S
H221   C29     1.109   1_655 S
H225   C897    1.079   .     S
C241   C249    1.443   .     S
C241   O310    1.291   .     A
C241   O313    1.292   .     A
C242   C244    1.485   .     S
C242   C259    1.404   .     A
C242   C263    1.428   .     A
C243   H282    1.084   .     S
C243   C249    1.399   .     A
C243   C485    1.389   .     S
C244   O315    1.293   .     A
C244   O314    1.310   .     A
C245   C246    1.411   .     A
C245   O320    1.385   .     S
C246   C255    1.445   .     S
C246   C247    1.399   .     A
C247   H289    1.084   .     S
C248   C249    1.397   .     A
C248   H300    1.083   .     S
C248   C487    1.382   .     S
C250   H302    1.081   .     S
C250   N309    1.363   .     A
C250   C331    1.428   .     S
C251   N308    1.373   .     A
C251   O311    1.388   .     S
C251   C410    1.428   1_455 S
C252   C263    1.417   .     A
C252   C981    1.410   .     S
C252   C990    1.421   .     S
C253   O312    1.399   .     S
C253   N308    1.375   .     A
C253   C414    1.441   1_455 S
C254   N309    1.364   .     A
C254   H303    1.075   .     S
C254   C333    1.441   .     S
C255   O316    1.290   .     A
C255   O317    1.293   .     A
C256   O318    1.296   .     A
C256   O319    1.297   .     A
C256   C258    1.463   .     S
C257   C275    1.390   .     A
C257   C991    1.396   1_554 S
C257   H1025   1.079   1_554 S
C258   C275    1.399   .     A
C258   C274    1.400   .     A
C259   C260    1.393   .     A
C259   H307    1.083   .     S
C260   C981    1.388   .     S
C260   H1000   1.078   .     S
C261   H279    1.077   .     S
C261   C980    1.388   1_554 S
C261   C972    1.410   1_554 S
C262   H284    1.116   .     S
C262   H283    1.110   .     S
C262   C264    1.530   .     S
C262   O320    1.418   .     S
C263   C273    1.414   .     A
C264   H285    1.111   .     S
C264   C265    1.527   .     S
C265   H290    1.111   .     S
C265   H287    1.111   .     S
C265   H288    1.110   .     S
C266   O311    1.417   .     S
C266   H291    1.111   .     S
C266   C427    1.523   1_455 S
C266   H452    1.111   1_455 S
C267   H294    1.111   .     S
C267   H293    1.110   .     S
C267   C346    1.523   .     S
C267   H375    1.110   .     S
C268   H296    1.111   .     S
C268   H297    1.110   .     S
C268   O312    1.413   .     S
C268   C269    1.528   .     S
C269   H299    1.110   .     S
C269   H298    1.110   .     S
C269   H461    1.109   1_455 S
C270   C274    1.402   .     A
C270   C972    1.421   1_554 S
C270   C991    1.416   1_554 S
C271   C272    1.389   .     A
C271   C977    1.396   .     S
C271   C990    1.416   .     S
C272   H304    1.084   .     S
C272   C273    1.384   .     A
C273   H281    1.078   .     S
C274   H306    1.077   .     S
C275   H278    1.083   .     S
Cu276  Cu277   2.685   .     S
Cu276  O316    1.955   .     S
Cu276  O310    1.956   .     S
Cu276  O314    1.951   .     S
Cu276  N308    2.018   .     S
Cu276  O318    1.945   .     S
Cu277  N309    2.017   .     S
Cu277  O319    1.951   .     S
Cu277  O315    1.945   .     S
Cu277  O317    1.956   .     S
Cu277  O313    1.955   .     S
H280   C980    1.078   1_554 S
H286   C504    1.111   .     S
H292   C346    1.111   .     S
H295   C427    1.110   1_455 S
H301   C349    1.109   .     S
H305   C977    1.079   .     S
C321   C329    1.443   .     S
C321   O390    1.291   .     A
C321   O393    1.292   .     A
C322   C324    1.485   .     S
C322   C339    1.404   .     A
C322   C343    1.428   .     A
C323   H362    1.084   .     S
C323   C329    1.399   .     A
C323   C565    1.389   .     S
C324   O395    1.293   .     A
C324   O394    1.310   .     A
C325   C326    1.411   .     A
C325   O400    1.385   .     S
C326   C335    1.445   .     S
C326   C327    1.399   .     A
C327   H369    1.084   .     S
C328   C329    1.397   .     A
C328   H380    1.083   .     S
C328   C567    1.382   .     S
C330   H382    1.081   .     S
C330   N389    1.363   .     A
C330   C411    1.428   .     S
C331   N388    1.373   .     A
C331   O391    1.388   .     S
C332   C343    1.417   .     A
C332   C1061   1.410   .     S
C332   C1070   1.421   .     S
C333   O392    1.399   .     S
C333   N388    1.375   .     A
C334   N389    1.364   .     A
C334   H383    1.075   .     S
C334   C413    1.441   .     S
C335   O396    1.290   .     A
C335   O397    1.293   .     A
C336   O398    1.296   .     A
C336   O399    1.297   .     A
C336   C338    1.463   .     S
C337   C355    1.390   .     A
C337   C1071   1.396   1_554 S
C337   H1105   1.079   1_554 S
C338   C355    1.399   .     A
C338   C354    1.400   .     A
C339   C340    1.393   .     A
C339   H387    1.083   .     S
C340   C1061   1.388   .     S
C340   H1080   1.078   .     S
C341   H359    1.077   .     S
C341   C1060   1.388   1_554 S
C341   C1052   1.410   1_554 S
C342   H364    1.116   .     S
C342   H363    1.110   .     S
C342   C344    1.530   .     S
C342   O400    1.418   .     S
C343   C353    1.414   .     A
C344   H365    1.111   .     S
C344   C345    1.527   .     S
C345   H370    1.111   .     S
C345   H367    1.111   .     S
C345   H368    1.110   .     S
C346   O391    1.417   .     S
C346   H371    1.111   .     S
C347   H374    1.111   .     S
C347   H373    1.110   .     S
C347   C426    1.523   .     S
C347   H455    1.110   .     S
C348   H376    1.111   .     S
C348   H377    1.110   .     S
C348   O392    1.413   .     S
C348   C349    1.528   .     S
C349   H379    1.110   .     S
C349   H378    1.110   .     S
C350   C354    1.402   .     A
C350   C1052   1.421   1_554 S
C350   C1071   1.416   1_554 S
C351   C352    1.389   .     A
C351   C1057   1.396   .     S
C351   C1070   1.416   .     S
C352   H384    1.084   .     S
C352   C353    1.384   .     A
C353   H361    1.078   .     S
C354   H386    1.077   .     S
C355   H358    1.083   .     S
Cu356  Cu357   2.685   .     S
Cu356  O396    1.955   .     S
Cu356  O390    1.956   .     S
Cu356  O394    1.951   .     S
Cu356  N388    2.018   .     S
Cu356  O398    1.945   .     S
Cu357  N389    2.017   .     S
Cu357  O399    1.951   .     S
Cu357  O395    1.945   .     S
Cu357  O397    1.956   .     S
Cu357  O393    1.955   .     S
H360   C1060   1.078   1_554 S
H366   C584    1.111   .     S
H372   C426    1.111   .     S
H381   C429    1.109   .     S
H385   C1057   1.079   .     S
C401   C409    1.443   .     S
C401   O470    1.291   .     A
C401   O473    1.292   .     A
C402   C404    1.485   .     S
C402   C419    1.404   .     A
C402   C423    1.428   .     A
C403   H442    1.084   .     S
C403   C409    1.399   .     A
C403   C645    1.389   .     S
C404   O475    1.293   .     A
C404   O474    1.310   .     A
C405   C406    1.411   .     A
C405   O480    1.385   .     S
C406   C415    1.445   .     S
C406   C407    1.399   .     A
C407   H449    1.084   .     S
C408   C409    1.397   .     A
C408   H460    1.083   .     S
C408   C647    1.382   .     S
C410   H462    1.081   .     S
C410   N469    1.363   .     A
C410   C251    1.428   1_655 S
C411   N468    1.373   .     A
C411   O471    1.388   .     S
C412   C423    1.417   .     A
C412   C1141   1.410   .     S
C412   C1150   1.421   .     S
C413   O472    1.399   .     S
C413   N468    1.375   .     A
C414   N469    1.364   .     A
C414   H463    1.075   .     S
C414   C253    1.441   1_655 S
C415   O476    1.290   .     A
C415   O477    1.293   .     A
C416   O478    1.296   .     A
C416   O479    1.297   .     A
C416   C418    1.463   .     S
C417   C435    1.390   .     A
C417   C1151   1.396   1_554 S
C417   H1185   1.079   1_554 S
C418   C435    1.399   .     A
C418   C434    1.400   .     A
C419   C420    1.393   .     A
C419   H467    1.083   .     S
C420   C1141   1.388   .     S
C420   H1160   1.078   .     S
C421   H439    1.077   .     S
C421   C1140   1.388   1_554 S
C421   C1132   1.410   1_554 S
C422   H444    1.116   .     S
C422   H443    1.110   .     S
C422   C424    1.530   .     S
C422   O480    1.418   .     S
C423   C433    1.414   .     A
C424   H445    1.111   .     S
C424   C425    1.527   .     S
C425   H450    1.111   .     S
C425   H447    1.111   .     S
C425   H448    1.110   .     S
C426   O471    1.417   .     S
C426   H451    1.111   .     S
C427   H454    1.111   .     S
C427   H453    1.110   .     S
C427   C266    1.523   1_655 S
C427   H295    1.110   1_655 S
C428   H456    1.111   .     S
C428   H457    1.110   .     S
C428   O472    1.413   .     S
C428   C429    1.528   .     S
C429   H459    1.110   .     S
C429   H458    1.110   .     S
C430   C434    1.402   .     A
C430   C1132   1.421   1_554 S
C430   C1151   1.416   1_554 S
C431   C432    1.389   .     A
C431   C1137   1.396   .     S
C431   C1150   1.416   .     S
C432   H464    1.084   .     S
C432   C433    1.384   .     A
C433   H441    1.078   .     S
C434   H466    1.077   .     S
C435   H438    1.083   .     S
Cu436  Cu437   2.685   .     S
Cu436  O476    1.955   .     S
Cu436  O470    1.956   .     S
Cu436  O474    1.951   .     S
Cu436  N468    2.018   .     S
Cu436  O478    1.945   .     S
Cu437  N469    2.017   .     S
Cu437  O479    1.951   .     S
Cu437  O475    1.945   .     S
Cu437  O477    1.956   .     S
Cu437  O473    1.955   .     S
H440   C1140   1.078   1_554 S
H446   C664    1.111   .     S
H452   C266    1.111   1_655 S
H461   C269    1.109   1_655 S
H465   C1137   1.079   .     S
C481   C489    1.443   .     S
C481   O550    1.291   .     A
C481   O553    1.292   .     A
C482   C484    1.485   .     S
C482   C499    1.404   .     A
C482   C503    1.428   .     A
C483   H522    1.084   .     S
C483   C489    1.399   .     A
C483   C5      1.389   1_565 S
C484   O555    1.293   .     A
C484   O554    1.310   .     A
C485   C486    1.411   .     A
C485   O560    1.385   .     S
C486   C495    1.445   .     S
C486   C487    1.399   .     A
C487   H529    1.084   .     S
C488   C489    1.397   .     A
C488   H540    1.083   .     S
C488   C7      1.382   1_565 S
C490   H542    1.081   .     S
C490   N549    1.363   .     A
C490   C571    1.428   .     S
C491   N548    1.373   .     A
C491   O551    1.388   .     S
C491   C650    1.428   1_455 S
C492   C503    1.417   .     A
C492   C1221   1.410   .     S
C492   C1230   1.421   .     S
C493   O552    1.399   .     S
C493   N548    1.375   .     A
C493   C654    1.441   1_455 S
C494   N549    1.364   .     A
C494   H543    1.075   .     S
C494   C573    1.441   .     S
C495   O556    1.290   .     A
C495   O557    1.293   .     A
C496   O558    1.296   .     A
C496   O559    1.297   .     A
C496   C498    1.463   .     S
C497   C515    1.390   .     A
C497   C1231   1.396   1_554 S
C497   H1265   1.079   1_554 S
C498   C515    1.399   .     A
C498   C514    1.400   .     A
C499   C500    1.393   .     A
C499   H547    1.083   .     S
C500   C1221   1.388   .     S
C500   H1240   1.078   .     S
C501   H519    1.077   .     S
C501   C1220   1.388   1_554 S
C501   C1212   1.410   1_554 S
C502   H524    1.116   .     S
C502   H523    1.110   .     S
C502   C504    1.530   .     S
C502   O560    1.418   .     S
C503   C513    1.414   .     A
C504   H525    1.111   .     S
C504   C505    1.527   .     S
C505   H530    1.111   .     S
C505   H527    1.111   .     S
C505   H528    1.110   .     S
C506   O551    1.417   .     S
C506   H531    1.111   .     S
C506   C667    1.523   1_455 S
C506   H692    1.111   1_455 S
C507   H534    1.111   .     S
C507   H533    1.110   .     S
C507   C586    1.523   .     S
C507   H615    1.110   .     S
C508   H536    1.111   .     S
C508   H537    1.110   .     S
C508   O552    1.413   .     S
C508   C509    1.528   .     S
C509   H539    1.110   .     S
C509   H538    1.110   .     S
C509   H701    1.109   1_455 S
C510   C514    1.402   .     A
C510   C1212   1.421   1_554 S
C510   C1231   1.416   1_554 S
C511   C512    1.389   .     A
C511   C1217   1.396   .     S
C511   C1230   1.416   .     S
C512   H544    1.084   .     S
C512   C513    1.384   .     A
C513   H521    1.078   .     S
C514   H546    1.077   .     S
C515   H518    1.083   .     S
Cu516  Cu517   2.685   .     S
Cu516  O556    1.955   .     S
Cu516  O550    1.956   .     S
Cu516  O554    1.951   .     S
Cu516  N548    2.018   .     S
Cu516  O558    1.945   .     S
Cu517  N549    2.017   .     S
Cu517  O559    1.951   .     S
Cu517  O555    1.945   .     S
Cu517  O557    1.956   .     S
Cu517  O553    1.955   .     S
H520   C1220   1.078   1_554 S
H526   C24     1.111   1_565 S
H532   C586    1.111   .     S
H535   C667    1.110   1_455 S
H541   C589    1.109   .     S
H545   C1217   1.079   .     S
C561   C569    1.443   .     S
C561   O630    1.291   .     A
C561   O633    1.292   .     A
C562   C564    1.485   .     S
C562   C579    1.404   .     A
C562   C583    1.428   .     A
C563   H602    1.084   .     S
C563   C569    1.399   .     A
C563   C85     1.389   1_565 S
C564   O635    1.293   .     A
C564   O634    1.310   .     A
C565   C566    1.411   .     A
C565   O640    1.385   .     S
C566   C575    1.445   .     S
C566   C567    1.399   .     A
C567   H609    1.084   .     S
C568   C569    1.397   .     A
C568   H620    1.083   .     S
C568   C87     1.382   1_565 S
C570   H622    1.081   .     S
C570   N629    1.363   .     A
C570   C651    1.428   .     S
C571   N628    1.373   .     A
C571   O631    1.388   .     S
C572   C583    1.417   .     A
C572   C1301   1.410   .     S
C572   C1310   1.421   .     S
C573   O632    1.399   .     S
C573   N628    1.375   .     A
C574   N629    1.364   .     A
C574   H623    1.075   .     S
C574   C653    1.441   .     S
C575   O636    1.290   .     A
C575   O637    1.293   .     A
C576   O638    1.296   .     A
C576   O639    1.297   .     A
C576   C578    1.463   .     S
C577   C595    1.390   .     A
C577   C1311   1.396   1_554 S
C577   H1345   1.079   1_554 S
C578   C595    1.399   .     A
C578   C594    1.400   .     A
C579   C580    1.393   .     A
C579   H627    1.083   .     S
C580   C1301   1.388   .     S
C580   H1320   1.078   .     S
C581   H599    1.077   .     S
C581   C1300   1.388   1_554 S
C581   C1292   1.410   1_554 S
C582   H604    1.116   .     S
C582   H603    1.110   .     S
C582   C584    1.530   .     S
C582   O640    1.418   .     S
C583   C593    1.414   .     A
C584   H605    1.111   .     S
C584   C585    1.527   .     S
C585   H610    1.111   .     S
C585   H607    1.111   .     S
C585   H608    1.110   .     S
C586   O631    1.417   .     S
C586   H611    1.111   .     S
C587   H614    1.111   .     S
C587   H613    1.110   .     S
C587   C666    1.523   .     S
C587   H695    1.110   .     S
C588   H616    1.111   .     S
C588   H617    1.110   .     S
C588   O632    1.413   .     S
C588   C589    1.528   .     S
C589   H619    1.110   .     S
C589   H618    1.110   .     S
C590   C594    1.402   .     A
C590   C1292   1.421   1_554 S
C590   C1311   1.416   1_554 S
C591   C592    1.389   .     A
C591   C1297   1.396   .     S
C591   C1310   1.416   .     S
C592   H624    1.084   .     S
C592   C593    1.384   .     A
C593   H601    1.078   .     S
C594   H626    1.077   .     S
C595   H598    1.083   .     S
Cu596  Cu597   2.685   .     S
Cu596  O636    1.955   .     S
Cu596  O630    1.956   .     S
Cu596  O634    1.951   .     S
Cu596  N628    2.018   .     S
Cu596  O638    1.945   .     S
Cu597  N629    2.017   .     S
Cu597  O639    1.951   .     S
Cu597  O635    1.945   .     S
Cu597  O637    1.956   .     S
Cu597  O633    1.955   .     S
H600   C1300   1.078   1_554 S
H606   C104    1.111   1_565 S
H612   C666    1.111   .     S
H621   C669    1.109   .     S
H625   C1297   1.079   .     S
C641   C649    1.443   .     S
C641   O710    1.291   .     A
C641   O713    1.292   .     A
C642   C644    1.485   .     S
C642   C659    1.404   .     A
C642   C663    1.428   .     A
C643   H682    1.084   .     S
C643   C649    1.399   .     A
C643   C165    1.389   1_565 S
C644   O715    1.293   .     A
C644   O714    1.310   .     A
C645   C646    1.411   .     A
C645   O720    1.385   .     S
C646   C655    1.445   .     S
C646   C647    1.399   .     A
C647   H689    1.084   .     S
C648   C649    1.397   .     A
C648   H700    1.083   .     S
C648   C167    1.382   1_565 S
C650   H702    1.081   .     S
C650   N709    1.363   .     A
C650   C491    1.428   1_655 S
C651   N708    1.373   .     A
C651   O711    1.388   .     S
C652   C663    1.417   .     A
C652   C1381   1.410   .     S
C652   C1390   1.421   .     S
C653   O712    1.399   .     S
C653   N708    1.375   .     A
C654   N709    1.364   .     A
C654   H703    1.075   .     S
C654   C493    1.441   1_655 S
C655   O716    1.290   .     A
C655   O717    1.293   .     A
C656   O718    1.296   .     A
C656   O719    1.297   .     A
C656   C658    1.463   .     S
C657   C675    1.390   .     A
C657   C1391   1.396   1_554 S
C657   H1425   1.079   1_554 S
C658   C675    1.399   .     A
C658   C674    1.400   .     A
C659   C660    1.393   .     A
C659   H707    1.083   .     S
C660   C1381   1.388   .     S
C660   H1400   1.078   .     S
C661   H679    1.077   .     S
C661   C1380   1.388   1_554 S
C661   C1372   1.410   1_554 S
C662   H684    1.116   .     S
C662   H683    1.110   .     S
C662   C664    1.530   .     S
C662   O720    1.418   .     S
C663   C673    1.414   .     A
C664   H685    1.111   .     S
C664   C665    1.527   .     S
C665   H690    1.111   .     S
C665   H687    1.111   .     S
C665   H688    1.110   .     S
C666   O711    1.417   .     S
C666   H691    1.111   .     S
C667   H694    1.111   .     S
C667   H693    1.110   .     S
C667   C506    1.523   1_655 S
C667   H535    1.110   1_655 S
C668   H696    1.111   .     S
C668   H697    1.110   .     S
C668   O712    1.413   .     S
C668   C669    1.528   .     S
C669   H699    1.110   .     S
C669   H698    1.110   .     S
C670   C674    1.402   .     A
C670   C1372   1.421   1_554 S
C670   C1391   1.416   1_554 S
C671   C672    1.389   .     A
C671   C1377   1.396   .     S
C671   C1390   1.416   .     S
C672   H704    1.084   .     S
C672   C673    1.384   .     A
C673   H681    1.078   .     S
C674   H706    1.077   .     S
C675   H678    1.083   .     S
Cu676  Cu677   2.685   .     S
Cu676  O716    1.955   .     S
Cu676  O710    1.956   .     S
Cu676  O714    1.951   .     S
Cu676  N708    2.018   .     S
Cu676  O718    1.945   .     S
Cu677  N709    2.017   .     S
Cu677  O719    1.951   .     S
Cu677  O715    1.945   .     S
Cu677  O717    1.956   .     S
Cu677  O713    1.955   .     S
H680   C1380   1.078   1_554 S
H686   C184    1.111   1_565 S
H692   C506    1.111   1_655 S
H701   C509    1.109   1_655 S
H705   C1377   1.079   .     S
C721   C729    1.443   .     S
C721   O790    1.291   .     A
C721   O793    1.292   .     A
C722   C724    1.485   .     S
C722   C739    1.404   .     A
C722   C743    1.428   .     A
C723   H762    1.084   .     S
C723   C729    1.399   .     A
C723   C965    1.389   .     S
C724   O795    1.293   .     A
C724   O794    1.310   .     A
C725   C726    1.411   .     A
C725   O800    1.385   .     S
C725   C1203   1.389   1_545 S
C726   C735    1.445   .     S
C726   C727    1.399   .     A
C727   H769    1.084   .     S
C727   C1208   1.382   1_545 S
C728   C729    1.397   .     A
C728   H780    1.083   .     S
C728   C967    1.382   .     S
C730   H782    1.081   .     S
C730   N789    1.363   .     A
C730   C811    1.428   .     S
C731   N788    1.373   .     A
C731   O791    1.388   .     S
C731   C890    1.428   1_455 S
C732   C743    1.417   .     A
C732   C21     1.410   1_556 S
C732   C30     1.421   1_556 S
C733   O792    1.399   .     S
C733   N788    1.375   .     A
C733   C894    1.441   1_455 S
C734   N789    1.364   .     A
C734   H783    1.075   .     S
C734   C813    1.441   .     S
C735   O796    1.290   .     A
C735   O797    1.293   .     A
C736   O798    1.296   .     A
C736   O799    1.297   .     A
C736   C738    1.463   .     S
C737   C755    1.390   .     A
C738   C755    1.399   .     A
C738   C754    1.400   .     A
C739   C740    1.393   .     A
C739   H787    1.083   .     S
C740   C21     1.388   1_556 S
C740   H40     1.078   1_556 S
C741   H759    1.077   .     S
C742   H764    1.116   .     S
C742   H763    1.110   .     S
C742   C744    1.530   .     S
C742   O800    1.418   .     S
C743   C753    1.414   .     A
C744   H765    1.111   .     S
C744   C745    1.527   .     S
C744   H1246   1.111   1_545 S
C745   H770    1.111   .     S
C745   H767    1.111   .     S
C745   H768    1.110   .     S
C746   O791    1.417   .     S
C746   H771    1.111   .     S
C746   C907    1.523   1_455 S
C746   H932    1.111   1_455 S
C747   H774    1.111   .     S
C747   H773    1.110   .     S
C747   C826    1.523   .     S
C747   H855    1.110   .     S
C748   H776    1.111   .     S
C748   H777    1.110   .     S
C748   O792    1.413   .     S
C748   C749    1.528   .     S
C749   H779    1.110   .     S
C749   H778    1.110   .     S
C749   H941    1.109   1_455 S
C750   C754    1.402   .     A
C751   C752    1.389   .     A
C751   C17     1.396   1_556 S
C751   C30     1.416   1_556 S
C752   H784    1.084   .     S
C752   C753    1.384   .     A
C753   H761    1.078   .     S
C754   H786    1.077   .     S
C755   H758    1.083   .     S
Cu756  Cu757   2.685   .     S
Cu756  O796    1.955   .     S
Cu756  O790    1.956   .     S
Cu756  O794    1.951   .     S
Cu756  N788    2.018   .     S
Cu756  O798    1.945   .     S
Cu757  N789    2.017   .     S
Cu757  O799    1.951   .     S
Cu757  O795    1.945   .     S
Cu757  O797    1.956   .     S
Cu757  O793    1.955   .     S
H766   C984    1.111   .     S
H772   C826    1.111   .     S
H775   C907    1.110   1_455 S
H781   C829    1.109   .     S
H785   C17     1.079   1_556 S
C801   C809    1.443   .     S
C801   O870    1.291   .     A
C801   O873    1.292   .     A
C802   C804    1.485   .     S
C802   C819    1.404   .     A
C802   C823    1.428   .     A
C803   H842    1.084   .     S
C803   C809    1.399   .     A
C803   C1045   1.389   .     S
C804   O875    1.293   .     A
C804   O874    1.310   .     A
C805   C806    1.411   .     A
C805   O880    1.385   .     S
C805   C1283   1.389   1_545 S
C806   C815    1.445   .     S
C806   C807    1.399   .     A
C807   H849    1.084   .     S
C807   C1288   1.382   1_545 S
C808   C809    1.397   .     A
C808   H860    1.083   .     S
C808   C1047   1.382   .     S
C810   H862    1.081   .     S
C810   N869    1.363   .     A
C810   C891    1.428   .     S
C811   N868    1.373   .     A
C811   O871    1.388   .     S
C812   C823    1.417   .     A
C812   C101    1.410   1_556 S
C812   C110    1.421   1_556 S
C813   O872    1.399   .     S
C813   N868    1.375   .     A
C814   N869    1.364   .     A
C814   H863    1.075   .     S
C814   C893    1.441   .     S
C815   O876    1.290   .     A
C815   O877    1.293   .     A
C816   O878    1.296   .     A
C816   O879    1.297   .     A
C816   C818    1.463   .     S
C817   C835    1.390   .     A
C818   C835    1.399   .     A
C818   C834    1.400   .     A
C819   C820    1.393   .     A
C819   H867    1.083   .     S
C820   C101    1.388   1_556 S
C820   H120    1.078   1_556 S
C821   H839    1.077   .     S
C822   H844    1.116   .     S
C822   H843    1.110   .     S
C822   C824    1.530   .     S
C822   O880    1.418   .     S
C823   C833    1.414   .     A
C824   H845    1.111   .     S
C824   C825    1.527   .     S
C824   H1326   1.111   1_545 S
C825   H850    1.111   .     S
C825   H847    1.111   .     S
C825   H848    1.110   .     S
C826   O871    1.417   .     S
C826   H851    1.111   .     S
C827   H854    1.111   .     S
C827   H853    1.110   .     S
C827   C906    1.523   .     S
C827   H935    1.110   .     S
C828   H856    1.111   .     S
C828   H857    1.110   .     S
C828   O872    1.413   .     S
C828   C829    1.528   .     S
C829   H859    1.110   .     S
C829   H858    1.110   .     S
C830   C834    1.402   .     A
C831   C832    1.389   .     A
C831   C97     1.396   1_556 S
C831   C110    1.416   1_556 S
C832   H864    1.084   .     S
C832   C833    1.384   .     A
C833   H841    1.078   .     S
C834   H866    1.077   .     S
C835   H838    1.083   .     S
Cu836  Cu837   2.685   .     S
Cu836  O876    1.955   .     S
Cu836  O870    1.956   .     S
Cu836  O874    1.951   .     S
Cu836  N868    2.018   .     S
Cu836  O878    1.945   .     S
Cu837  N869    2.017   .     S
Cu837  O879    1.951   .     S
Cu837  O875    1.945   .     S
Cu837  O877    1.956   .     S
Cu837  O873    1.955   .     S
H846   C1064   1.111   .     S
H852   C906    1.111   .     S
H861   C909    1.109   .     S
H865   C97     1.079   1_556 S
C881   C889    1.443   .     S
C881   O950    1.291   .     A
C881   O953    1.292   .     A
C882   C884    1.485   .     S
C882   C899    1.404   .     A
C882   C903    1.428   .     A
C883   H922    1.084   .     S
C883   C889    1.399   .     A
C883   C1125   1.389   .     S
C884   O955    1.293   .     A
C884   O954    1.310   .     A
C885   C886    1.411   .     A
C885   O960    1.385   .     S
C885   C1363   1.389   1_545 S
C886   C895    1.445   .     S
C886   C887    1.399   .     A
C887   H929    1.084   .     S
C887   C1368   1.382   1_545 S
C888   C889    1.397   .     A
C888   H940    1.083   .     S
C888   C1127   1.382   .     S
C890   H942    1.081   .     S
C890   N949    1.363   .     A
C890   C731    1.428   1_655 S
C891   N948    1.373   .     A
C891   O951    1.388   .     S
C892   C903    1.417   .     A
C892   C181    1.410   1_556 S
C892   C190    1.421   1_556 S
C893   O952    1.399   .     S
C893   N948    1.375   .     A
C894   N949    1.364   .     A
C894   H943    1.075   .     S
C894   C733    1.441   1_655 S
C895   O956    1.290   .     A
C895   O957    1.293   .     A
C896   O958    1.296   .     A
C896   O959    1.297   .     A
C896   C898    1.463   .     S
C897   C915    1.390   .     A
C898   C915    1.399   .     A
C898   C914    1.400   .     A
C899   C900    1.393   .     A
C899   H947    1.083   .     S
C900   C181    1.388   1_556 S
C900   H200    1.078   1_556 S
C901   H919    1.077   .     S
C902   H924    1.116   .     S
C902   H923    1.110   .     S
C902   C904    1.530   .     S
C902   O960    1.418   .     S
C903   C913    1.414   .     A
C904   H925    1.111   .     S
C904   C905    1.527   .     S
C904   H1406   1.111   1_545 S
C905   H930    1.111   .     S
C905   H927    1.111   .     S
C905   H928    1.110   .     S
C906   O951    1.417   .     S
C906   H931    1.111   .     S
C907   H934    1.111   .     S
C907   H933    1.110   .     S
C907   C746    1.523   1_655 S
C907   H775    1.110   1_655 S
C908   H936    1.111   .     S
C908   H937    1.110   .     S
C908   O952    1.413   .     S
C908   C909    1.528   .     S
C909   H939    1.110   .     S
C909   H938    1.110   .     S
C910   C914    1.402   .     A
C911   C912    1.389   .     A
C911   C177    1.396   1_556 S
C911   C190    1.416   1_556 S
C912   H944    1.084   .     S
C912   C913    1.384   .     A
C913   H921    1.078   .     S
C914   H946    1.077   .     S
C915   H918    1.083   .     S
Cu916  Cu917   2.685   .     S
Cu916  O956    1.955   .     S
Cu916  O950    1.956   .     S
Cu916  O954    1.951   .     S
Cu916  N948    2.018   .     S
Cu916  O958    1.945   .     S
Cu917  N949    2.017   .     S
Cu917  O959    1.951   .     S
Cu917  O955    1.945   .     S
Cu917  O957    1.956   .     S
Cu917  O953    1.955   .     S
H926   C1144   1.111   .     S
H932   C746    1.111   1_655 S
H941   C749    1.109   1_655 S
H945   C177    1.079   1_556 S
C961   C969    1.443   .     S
C961   O1030   1.291   .     A
C961   O1033   1.292   .     A
C962   C964    1.485   .     S
C962   C979    1.404   .     A
C962   C983    1.428   .     A
C963   H1002   1.084   .     S
C963   C969    1.399   .     A
C963   C1205   1.389   .     S
C964   O1035   1.293   .     A
C964   O1034   1.310   .     A
C965   C966    1.411   .     A
C965   O1040   1.385   .     S
C966   C975    1.445   .     S
C966   C967    1.399   .     A
C967   H1009   1.084   .     S
C968   C969    1.397   .     A
C968   H1020   1.083   .     S
C968   C1207   1.382   .     S
C970   H1022   1.081   .     S
C970   N1029   1.363   .     A
C970   C1051   1.428   .     S
C971   N1028   1.373   .     A
C971   O1031   1.388   .     S
C971   C1130   1.428   1_455 S
C972   C983    1.417   .     A
C972   C261    1.410   1_556 S
C972   C270    1.421   1_556 S
C973   O1032   1.399   .     S
C973   N1028   1.375   .     A
C973   C1134   1.441   1_455 S
C974   N1029   1.364   .     A
C974   H1023   1.075   .     S
C974   C1053   1.441   .     S
C975   O1036   1.290   .     A
C975   O1037   1.293   .     A
C976   O1038   1.296   .     A
C976   O1039   1.297   .     A
C976   C978    1.463   .     S
C977   C995    1.390   .     A
C978   C995    1.399   .     A
C978   C994    1.400   .     A
C979   C980    1.393   .     A
C979   H1027   1.083   .     S
C980   C261    1.388   1_556 S
C980   H280    1.078   1_556 S
C981   H999    1.077   .     S
C982   H1004   1.116   .     S
C982   H1003   1.110   .     S
C982   C984    1.530   .     S
C982   O1040   1.418   .     S
C983   C993    1.414   .     A
C984   H1005   1.111   .     S
C984   C985    1.527   .     S
C985   H1010   1.111   .     S
C985   H1007   1.111   .     S
C985   H1008   1.110   .     S
C986   O1031   1.417   .     S
C986   H1011   1.111   .     S
C986   C1147   1.523   1_455 S
C986   H1172   1.111   1_455 S
C987   H1014   1.111   .     S
C987   H1013   1.110   .     S
C987   C1066   1.523   .     S
C987   H1095   1.110   .     S
C988   H1016   1.111   .     S
C988   H1017   1.110   .     S
C988   O1032   1.413   .     S
C988   C989    1.528   .     S
C989   H1019   1.110   .     S
C989   H1018   1.110   .     S
C989   H1181   1.109   1_455 S
C990   C994    1.402   .     A
C991   C992    1.389   .     A
C991   C257    1.396   1_556 S
C991   C270    1.416   1_556 S
C992   H1024   1.084   .     S
C992   C993    1.384   .     A
C993   H1001   1.078   .     S
C994   H1026   1.077   .     S
C995   H998    1.083   .     S
Cu996  Cu997   2.685   .     S
Cu996  O1036   1.955   .     S
Cu996  O1030   1.956   .     S
Cu996  O1034   1.951   .     S
Cu996  N1028   2.018   .     S
Cu996  O1038   1.945   .     S
Cu997  N1029   2.017   .     S
Cu997  O1039   1.951   .     S
Cu997  O1035   1.945   .     S
Cu997  O1037   1.956   .     S
Cu997  O1033   1.955   .     S
H1006  C1224   1.111   .     S
H1012  C1066   1.111   .     S
H1015  C1147   1.110   1_455 S
H1021  C1069   1.109   .     S
H1025  C257    1.079   1_556 S
C1041  C1049   1.443   .     S
C1041  O1110   1.291   .     A
C1041  O1113   1.292   .     A
C1042  C1044   1.485   .     S
C1042  C1059   1.404   .     A
C1042  C1063   1.428   .     A
C1043  H1082   1.084   .     S
C1043  C1049   1.399   .     A
C1043  C1285   1.389   .     S
C1044  O1115   1.293   .     A
C1044  O1114   1.310   .     A
C1045  C1046   1.411   .     A
C1045  O1120   1.385   .     S
C1046  C1055   1.445   .     S
C1046  C1047   1.399   .     A
C1047  H1089   1.084   .     S
C1048  C1049   1.397   .     A
C1048  H1100   1.083   .     S
C1048  C1287   1.382   .     S
C1050  H1102   1.081   .     S
C1050  N1109   1.363   .     A
C1050  C1131   1.428   .     S
C1051  N1108   1.373   .     A
C1051  O1111   1.388   .     S
C1052  C1063   1.417   .     A
C1052  C341    1.410   1_556 S
C1052  C350    1.421   1_556 S
C1053  O1112   1.399   .     S
C1053  N1108   1.375   .     A
C1054  N1109   1.364   .     A
C1054  H1103   1.075   .     S
C1054  C1133   1.441   .     S
C1055  O1116   1.290   .     A
C1055  O1117   1.293   .     A
C1056  O1118   1.296   .     A
C1056  O1119   1.297   .     A
C1056  C1058   1.463   .     S
C1057  C1075   1.390   .     A
C1058  C1075   1.399   .     A
C1058  C1074   1.400   .     A
C1059  C1060   1.393   .     A
C1059  H1107   1.083   .     S
C1060  C341    1.388   1_556 S
C1060  H360    1.078   1_556 S
C1061  H1079   1.077   .     S
C1062  H1084   1.116   .     S
C1062  H1083   1.110   .     S
C1062  C1064   1.530   .     S
C1062  O1120   1.418   .     S
C1063  C1073   1.414   .     A
C1064  H1085   1.111   .     S
C1064  C1065   1.527   .     S
C1065  H1090   1.111   .     S
C1065  H1087   1.111   .     S
C1065  H1088   1.110   .     S
C1066  O1111   1.417   .     S
C1066  H1091   1.111   .     S
C1067  H1094   1.111   .     S
C1067  H1093   1.110   .     S
C1067  C1146   1.523   .     S
C1067  H1175   1.110   .     S
C1068  H1096   1.111   .     S
C1068  H1097   1.110   .     S
C1068  O1112   1.413   .     S
C1068  C1069   1.528   .     S
C1069  H1099   1.110   .     S
C1069  H1098   1.110   .     S
C1070  C1074   1.402   .     A
C1071  C1072   1.389   .     A
C1071  C337    1.396   1_556 S
C1071  C350    1.416   1_556 S
C1072  H1104   1.084   .     S
C1072  C1073   1.384   .     A
C1073  H1081   1.078   .     S
C1074  H1106   1.077   .     S
C1075  H1078   1.083   .     S
Cu1076 Cu1077  2.685   .     S
Cu1076 O1116   1.955   .     S
Cu1076 O1110   1.956   .     S
Cu1076 O1114   1.951   .     S
Cu1076 N1108   2.018   .     S
Cu1076 O1118   1.945   .     S
Cu1077 N1109   2.017   .     S
Cu1077 O1119   1.951   .     S
Cu1077 O1115   1.945   .     S
Cu1077 O1117   1.956   .     S
Cu1077 O1113   1.955   .     S
H1086  C1304   1.111   .     S
H1092  C1146   1.111   .     S
H1101  C1149   1.109   .     S
H1105  C337    1.079   1_556 S
C1121  C1129   1.443   .     S
C1121  O1190   1.291   .     A
C1121  O1193   1.292   .     A
C1122  C1124   1.485   .     S
C1122  C1139   1.404   .     A
C1122  C1143   1.428   .     A
C1123  H1162   1.084   .     S
C1123  C1129   1.399   .     A
C1123  C1365   1.389   .     S
C1124  O1195   1.293   .     A
C1124  O1194   1.310   .     A
C1125  C1126   1.411   .     A
C1125  O1200   1.385   .     S
C1126  C1135   1.445   .     S
C1126  C1127   1.399   .     A
C1127  H1169   1.084   .     S
C1128  C1129   1.397   .     A
C1128  H1180   1.083   .     S
C1128  C1367   1.382   .     S
C1130  H1182   1.081   .     S
C1130  N1189   1.363   .     A
C1130  C971    1.428   1_655 S
C1131  N1188   1.373   .     A
C1131  O1191   1.388   .     S
C1132  C1143   1.417   .     A
C1132  C421    1.410   1_556 S
C1132  C430    1.421   1_556 S
C1133  O1192   1.399   .     S
C1133  N1188   1.375   .     A
C1134  N1189   1.364   .     A
C1134  H1183   1.075   .     S
C1134  C973    1.441   1_655 S
C1135  O1196   1.290   .     A
C1135  O1197   1.293   .     A
C1136  O1198   1.296   .     A
C1136  O1199   1.297   .     A
C1136  C1138   1.463   .     S
C1137  C1155   1.390   .     A
C1138  C1155   1.399   .     A
C1138  C1154   1.400   .     A
C1139  C1140   1.393   .     A
C1139  H1187   1.083   .     S
C1140  C421    1.388   1_556 S
C1140  H440    1.078   1_556 S
C1141  H1159   1.077   .     S
C1142  H1164   1.116   .     S
C1142  H1163   1.110   .     S
C1142  C1144   1.530   .     S
C1142  O1200   1.418   .     S
C1143  C1153   1.414   .     A
C1144  H1165   1.111   .     S
C1144  C1145   1.527   .     S
C1145  H1170   1.111   .     S
C1145  H1167   1.111   .     S
C1145  H1168   1.110   .     S
C1146  O1191   1.417   .     S
C1146  H1171   1.111   .     S
C1147  H1174   1.111   .     S
C1147  H1173   1.110   .     S
C1147  C986    1.523   1_655 S
C1147  H1015   1.110   1_655 S
C1148  H1176   1.111   .     S
C1148  H1177   1.110   .     S
C1148  O1192   1.413   .     S
C1148  C1149   1.528   .     S
C1149  H1179   1.110   .     S
C1149  H1178   1.110   .     S
C1150  C1154   1.402   .     A
C1151  C1152   1.389   .     A
C1151  C417    1.396   1_556 S
C1151  C430    1.416   1_556 S
C1152  H1184   1.084   .     S
C1152  C1153   1.384   .     A
C1153  H1161   1.078   .     S
C1154  H1186   1.077   .     S
C1155  H1158   1.083   .     S
Cu1156 Cu1157  2.685   .     S
Cu1156 O1196   1.955   .     S
Cu1156 O1190   1.956   .     S
Cu1156 O1194   1.951   .     S
Cu1156 N1188   2.018   .     S
Cu1156 O1198   1.945   .     S
Cu1157 N1189   2.017   .     S
Cu1157 O1199   1.951   .     S
Cu1157 O1195   1.945   .     S
Cu1157 O1197   1.956   .     S
Cu1157 O1193   1.955   .     S
H1166  C1384   1.111   .     S
H1172  C986    1.111   1_655 S
H1181  C989    1.109   1_655 S
H1185  C417    1.079   1_556 S
C1201  C1209   1.443   .     S
C1201  O1270   1.291   .     A
C1201  O1273   1.292   .     A
C1202  C1204   1.485   .     S
C1202  C1219   1.404   .     A
C1202  C1223   1.428   .     A
C1203  H1242   1.084   .     S
C1203  C1209   1.399   .     A
C1203  C725    1.389   1_565 S
C1204  O1275   1.293   .     A
C1204  O1274   1.310   .     A
C1205  C1206   1.411   .     A
C1205  O1280   1.385   .     S
C1206  C1215   1.445   .     S
C1206  C1207   1.399   .     A
C1207  H1249   1.084   .     S
C1208  C1209   1.397   .     A
C1208  H1260   1.083   .     S
C1208  C727    1.382   1_565 S
C1210  H1262   1.081   .     S
C1210  N1269   1.363   .     A
C1210  C1291   1.428   .     S
C1211  N1268   1.373   .     A
C1211  O1271   1.388   .     S
C1211  C1370   1.428   1_455 S
C1212  C1223   1.417   .     A
C1212  C501    1.410   1_556 S
C1212  C510    1.421   1_556 S
C1213  O1272   1.399   .     S
C1213  N1268   1.375   .     A
C1213  C1374   1.441   1_455 S
C1214  N1269   1.364   .     A
C1214  H1263   1.075   .     S
C1214  C1293   1.441   .     S
C1215  O1276   1.290   .     A
C1215  O1277   1.293   .     A
C1216  O1278   1.296   .     A
C1216  O1279   1.297   .     A
C1216  C1218   1.463   .     S
C1217  C1235   1.390   .     A
C1218  C1235   1.399   .     A
C1218  C1234   1.400   .     A
C1219  C1220   1.393   .     A
C1219  H1267   1.083   .     S
C1220  C501    1.388   1_556 S
C1220  H520    1.078   1_556 S
C1221  H1239   1.077   .     S
C1222  H1244   1.116   .     S
C1222  H1243   1.110   .     S
C1222  C1224   1.530   .     S
C1222  O1280   1.418   .     S
C1223  C1233   1.414   .     A
C1224  H1245   1.111   .     S
C1224  C1225   1.527   .     S
C1225  H1250   1.111   .     S
C1225  H1247   1.111   .     S
C1225  H1248   1.110   .     S
C1226  O1271   1.417   .     S
C1226  H1251   1.111   .     S
C1226  C1387   1.523   1_455 S
C1226  H1412   1.111   1_455 S
C1227  H1254   1.111   .     S
C1227  H1253   1.110   .     S
C1227  C1306   1.523   .     S
C1227  H1335   1.110   .     S
C1228  H1256   1.111   .     S
C1228  H1257   1.110   .     S
C1228  O1272   1.413   .     S
C1228  C1229   1.528   .     S
C1229  H1259   1.110   .     S
C1229  H1258   1.110   .     S
C1229  H1421   1.109   1_455 S
C1230  C1234   1.402   .     A
C1231  C1232   1.389   .     A
C1231  C497    1.396   1_556 S
C1231  C510    1.416   1_556 S
C1232  H1264   1.084   .     S
C1232  C1233   1.384   .     A
C1233  H1241   1.078   .     S
C1234  H1266   1.077   .     S
C1235  H1238   1.083   .     S
Cu1236 Cu1237  2.685   .     S
Cu1236 O1276   1.955   .     S
Cu1236 O1270   1.956   .     S
Cu1236 O1274   1.951   .     S
Cu1236 N1268   2.018   .     S
Cu1236 O1278   1.945   .     S
Cu1237 N1269   2.017   .     S
Cu1237 O1279   1.951   .     S
Cu1237 O1275   1.945   .     S
Cu1237 O1277   1.956   .     S
Cu1237 O1273   1.955   .     S
H1246  C744    1.111   1_565 S
H1252  C1306   1.111   .     S
H1255  C1387   1.110   1_455 S
H1261  C1309   1.109   .     S
H1265  C497    1.079   1_556 S
C1281  C1289   1.443   .     S
C1281  O1350   1.291   .     A
C1281  O1353   1.292   .     A
C1282  C1284   1.485   .     S
C1282  C1299   1.404   .     A
C1282  C1303   1.428   .     A
C1283  H1322   1.084   .     S
C1283  C1289   1.399   .     A
C1283  C805    1.389   1_565 S
C1284  O1355   1.293   .     A
C1284  O1354   1.310   .     A
C1285  C1286   1.411   .     A
C1285  O1360   1.385   .     S
C1286  C1295   1.445   .     S
C1286  C1287   1.399   .     A
C1287  H1329   1.084   .     S
C1288  C1289   1.397   .     A
C1288  H1340   1.083   .     S
C1288  C807    1.382   1_565 S
C1290  H1342   1.081   .     S
C1290  N1349   1.363   .     A
C1290  C1371   1.428   .     S
C1291  N1348   1.373   .     A
C1291  O1351   1.388   .     S
C1292  C1303   1.417   .     A
C1292  C581    1.410   1_556 S
C1292  C590    1.421   1_556 S
C1293  O1352   1.399   .     S
C1293  N1348   1.375   .     A
C1294  N1349   1.364   .     A
C1294  H1343   1.075   .     S
C1294  C1373   1.441   .     S
C1295  O1356   1.290   .     A
C1295  O1357   1.293   .     A
C1296  O1358   1.296   .     A
C1296  O1359   1.297   .     A
C1296  C1298   1.463   .     S
C1297  C1315   1.390   .     A
C1298  C1315   1.399   .     A
C1298  C1314   1.400   .     A
C1299  C1300   1.393   .     A
C1299  H1347   1.083   .     S
C1300  C581    1.388   1_556 S
C1300  H600    1.078   1_556 S
C1301  H1319   1.077   .     S
C1302  H1324   1.116   .     S
C1302  H1323   1.110   .     S
C1302  C1304   1.530   .     S
C1302  O1360   1.418   .     S
C1303  C1313   1.414   .     A
C1304  H1325   1.111   .     S
C1304  C1305   1.527   .     S
C1305  H1330   1.111   .     S
C1305  H1327   1.111   .     S
C1305  H1328   1.110   .     S
C1306  O1351   1.417   .     S
C1306  H1331   1.111   .     S
C1307  H1334   1.111   .     S
C1307  H1333   1.110   .     S
C1307  C1386   1.523   .     S
C1307  H1415   1.110   .     S
C1308  H1336   1.111   .     S
C1308  H1337   1.110   .     S
C1308  O1352   1.413   .     S
C1308  C1309   1.528   .     S
C1309  H1339   1.110   .     S
C1309  H1338   1.110   .     S
C1310  C1314   1.402   .     A
C1311  C1312   1.389   .     A
C1311  C577    1.396   1_556 S
C1311  C590    1.416   1_556 S
C1312  H1344   1.084   .     S
C1312  C1313   1.384   .     A
C1313  H1321   1.078   .     S
C1314  H1346   1.077   .     S
C1315  H1318   1.083   .     S
Cu1316 Cu1317  2.685   .     S
Cu1316 O1356   1.955   .     S
Cu1316 O1350   1.956   .     S
Cu1316 O1354   1.951   .     S
Cu1316 N1348   2.018   .     S
Cu1316 O1358   1.945   .     S
Cu1317 N1349   2.017   .     S
Cu1317 O1359   1.951   .     S
Cu1317 O1355   1.945   .     S
Cu1317 O1357   1.956   .     S
Cu1317 O1353   1.955   .     S
H1326  C824    1.111   1_565 S
H1332  C1386   1.111   .     S
H1341  C1389   1.109   .     S
H1345  C577    1.079   1_556 S
C1361  C1369   1.443   .     S
C1361  O1430   1.291   .     A
C1361  O1433   1.292   .     A
C1362  C1364   1.485   .     S
C1362  C1379   1.404   .     A
C1362  C1383   1.428   .     A
C1363  H1402   1.084   .     S
C1363  C1369   1.399   .     A
C1363  C885    1.389   1_565 S
C1364  O1435   1.293   .     A
C1364  O1434   1.310   .     A
C1365  C1366   1.411   .     A
C1365  O1440   1.385   .     S
C1366  C1375   1.445   .     S
C1366  C1367   1.399   .     A
C1367  H1409   1.084   .     S
C1368  C1369   1.397   .     A
C1368  H1420   1.083   .     S
C1368  C887    1.382   1_565 S
C1370  H1422   1.081   .     S
C1370  N1429   1.363   .     A
C1370  C1211   1.428   1_655 S
C1371  N1428   1.373   .     A
C1371  O1431   1.388   .     S
C1372  C1383   1.417   .     A
C1372  C661    1.410   1_556 S
C1372  C670    1.421   1_556 S
C1373  O1432   1.399   .     S
C1373  N1428   1.375   .     A
C1374  N1429   1.364   .     A
C1374  H1423   1.075   .     S
C1374  C1213   1.441   1_655 S
C1375  O1436   1.290   .     A
C1375  O1437   1.293   .     A
C1376  O1438   1.296   .     A
C1376  O1439   1.297   .     A
C1376  C1378   1.463   .     S
C1377  C1395   1.390   .     A
C1378  C1395   1.399   .     A
C1378  C1394   1.400   .     A
C1379  C1380   1.393   .     A
C1379  H1427   1.083   .     S
C1380  C661    1.388   1_556 S
C1380  H680    1.078   1_556 S
C1381  H1399   1.077   .     S
C1382  H1404   1.116   .     S
C1382  H1403   1.110   .     S
C1382  C1384   1.530   .     S
C1382  O1440   1.418   .     S
C1383  C1393   1.414   .     A
C1384  H1405   1.111   .     S
C1384  C1385   1.527   .     S
C1385  H1410   1.111   .     S
C1385  H1407   1.111   .     S
C1385  H1408   1.110   .     S
C1386  O1431   1.417   .     S
C1386  H1411   1.111   .     S
C1387  H1414   1.111   .     S
C1387  H1413   1.110   .     S
C1387  C1226   1.523   1_655 S
C1387  H1255   1.110   1_655 S
C1388  H1416   1.111   .     S
C1388  H1417   1.110   .     S
C1388  O1432   1.413   .     S
C1388  C1389   1.528   .     S
C1389  H1419   1.110   .     S
C1389  H1418   1.110   .     S
C1390  C1394   1.402   .     A
C1391  C1392   1.389   .     A
C1391  C657    1.396   1_556 S
C1391  C670    1.416   1_556 S
C1392  H1424   1.084   .     S
C1392  C1393   1.384   .     A
C1393  H1401   1.078   .     S
C1394  H1426   1.077   .     S
C1395  H1398   1.083   .     S
Cu1396 Cu1397  2.685   .     S
Cu1396 O1436   1.955   .     S
Cu1396 O1430   1.956   .     S
Cu1396 O1434   1.951   .     S
Cu1396 N1428   2.018   .     S
Cu1396 O1438   1.945   .     S
Cu1397 N1429   2.017   .     S
Cu1397 O1439   1.951   .     S
Cu1397 O1435   1.945   .     S
Cu1397 O1437   1.956   .     S
Cu1397 O1433   1.955   .     S
H1406  C904    1.111   1_565 S
H1412  C1226   1.111   1_655 S
H1421  C1229   1.109   1_655 S
H1425  C657    1.079   1_556 S
