data_str_m2_o1_o10_pcu_sym.212
_audit_creation_date              2020-01-03
_audit_creation_method            'Materials Studio'
_symmetry_space_group_name_H-M    'P1'
_symmetry_Int_Tables_number       1
_symmetry_cell_setting            triclinic
loop_
_symmetry_equiv_pos_as_xyz
  x,y,z
_cell_length_a                    26.4527
_cell_length_b                    32.6346
_cell_length_c                    28.6046
_cell_angle_alpha                 89.8879
_cell_angle_beta                  98.2713
_cell_angle_gamma                 91.1850
loop_
_atom_site_label
_atom_site_type_symbol
_atom_site_fract_x
_atom_site_fract_y
_atom_site_fract_z
_atom_site_U_iso_or_equiv
_atom_site_adp_type
_atom_site_occupancy
C1     C     0.16769   0.08743   0.16701   0.00000  Uiso   1.00
C2     C     0.16565   0.24591   0.16632   0.00000  Uiso   1.00
C3     C     0.06806   0.16663   0.15465   0.00000  Uiso   1.00
C4     C     0.26527   0.16670   0.17868   0.00000  Uiso   1.00
C5     C     0.01327   0.16106   0.14898   0.00000  Uiso   1.00
C6     C     0.32006   0.17227   0.18436   0.00000  Uiso   1.00
C7     C     0.15485   0.02202   0.12481   0.00000  Uiso   1.00
C8     C     0.17848   0.31132   0.20853   0.00000  Uiso   1.00
C9     C     0.15266   0.31294   0.12330   0.00000  Uiso   1.00
C10    C     0.18067   0.02040   0.21003   0.00000  Uiso   1.00
C11    C     0.16508   0.29055   0.16564   0.00000  Uiso   1.00
C12    C     0.16825   0.04278   0.16769   0.00000  Uiso   1.00
C13    C     0.13439   0.14099   0.02008   0.00000  Uiso   1.00
C14    C     0.19894   0.19234   0.31325   0.00000  Uiso   1.00
C15    C     0.13451   0.14116   0.30394   0.00000  Uiso   1.00
C16    C     0.19882   0.19217   0.02939   0.00000  Uiso   1.00
Cu17   Cu    0.16667   0.16667   0.21355   0.00000  Uiso   1.00
Cu18   Cu    0.16667   0.16666   0.11978   0.00000  Uiso   1.00
H19    H     0.14536   0.03886   0.09216   0.00000  Uiso   1.00
H20    H     0.18797   0.29447   0.24117   0.00000  Uiso   1.00
H21    H     0.10896   0.12076   0.28142   0.00000  Uiso   1.00
H22    H     0.22437   0.21258   0.05192   0.00000  Uiso   1.00
N23    N     0.16668   0.16668   0.28403   0.00000  Uiso   1.00
N24    N     0.16665   0.16666   0.04931   0.00000  Uiso   1.00
O25    O     0.16666   0.10655   0.20625   0.00000  Uiso   1.00
O26    O     0.16667   0.22678   0.12709   0.00000  Uiso   1.00
O27    O     0.16666   0.10654   0.12706   0.00000  Uiso   1.00
O28    O     0.16667   0.22679   0.20628   0.00000  Uiso   1.00
O29    O     0.09161   0.16667   0.19712   0.00000  Uiso   1.00
O30    O     0.24172   0.16666   0.13621   0.00000  Uiso   1.00
O31    O     0.09161   0.16666   0.11793   0.00000  Uiso   1.00
O32    O     0.24172   0.16667   0.21540   0.00000  Uiso   1.00
C33    C     0.32428   0.13669   0.10674   0.00000  Uiso   1.00
H34    H     0.00003   0.14508   0.07214   0.00000  Uiso   1.00
O35    O     0.29792   0.10605   0.11071   0.00000  Uiso   1.00
C36    C     0.00905   0.19665   0.22659   0.00000  Uiso   1.00
H37    H     0.33330   0.18826   0.26120   0.00000  Uiso   1.00
O38    O     0.03542   0.22728   0.22262   0.00000  Uiso   1.00
C39    C     0.13611   0.29390   0.07788   0.00000  Uiso   1.00
N40    N     0.12284   0.27880   0.04148   0.00000  Uiso   1.00
C41    C     0.19722   0.03943   0.25545   0.00000  Uiso   1.00
N42    N     0.21049   0.05454   0.29185   0.00000  Uiso   1.00
C43    C     0.09990   0.11288   0.03881   0.00000  Uiso   1.00
N44    N     0.07201   0.08999   0.05331   0.00000  Uiso   1.00
C45    C     0.23343   0.22045   0.29452   0.00000  Uiso   1.00
N46    N     0.26133   0.24335   0.28003   0.00000  Uiso   1.00
C47    C     0.50102   0.08743   0.16701   0.00000  Uiso   1.00
C48    C     0.49898   0.24591   0.16632   0.00000  Uiso   1.00
C49    C     0.40139   0.16663   0.15465   0.00000  Uiso   1.00
C50    C     0.59861   0.16670   0.17868   0.00000  Uiso   1.00
C51    C     0.34661   0.16106   0.14898   0.00000  Uiso   1.00
C52    C     0.65339   0.17227   0.18436   0.00000  Uiso   1.00
C53    C     0.48819   0.02202   0.12481   0.00000  Uiso   1.00
C54    C     0.51181   0.31132   0.20853   0.00000  Uiso   1.00
C55    C     0.48599   0.31294   0.12330   0.00000  Uiso   1.00
C56    C     0.51401   0.02040   0.21003   0.00000  Uiso   1.00
C57    C     0.49842   0.29055   0.16564   0.00000  Uiso   1.00
C58    C     0.50158   0.04278   0.16769   0.00000  Uiso   1.00
C59    C     0.46773   0.14099   0.02008   0.00000  Uiso   1.00
C60    C     0.53227   0.19234   0.31325   0.00000  Uiso   1.00
C61    C     0.46784   0.14116   0.30394   0.00000  Uiso   1.00
C62    C     0.53216   0.19217   0.02939   0.00000  Uiso   1.00
Cu63   Cu    0.50000   0.16667   0.21355   0.00000  Uiso   1.00
Cu64   Cu    0.50000   0.16666   0.11978   0.00000  Uiso   1.00
H65    H     0.47870   0.03886   0.09216   0.00000  Uiso   1.00
H66    H     0.52130   0.29447   0.24117   0.00000  Uiso   1.00
H67    H     0.44229   0.12076   0.28142   0.00000  Uiso   1.00
H68    H     0.55771   0.21258   0.05192   0.00000  Uiso   1.00
N69    N     0.50001   0.16668   0.28403   0.00000  Uiso   1.00
N70    N     0.49999   0.16666   0.04931   0.00000  Uiso   1.00
O71    O     0.50000   0.10655   0.20625   0.00000  Uiso   1.00
O72    O     0.50000   0.22678   0.12709   0.00000  Uiso   1.00
O73    O     0.50000   0.10654   0.12706   0.00000  Uiso   1.00
O74    O     0.50000   0.22679   0.20628   0.00000  Uiso   1.00
O75    O     0.42495   0.16667   0.19712   0.00000  Uiso   1.00
O76    O     0.57505   0.16666   0.13621   0.00000  Uiso   1.00
O77    O     0.42494   0.16666   0.11793   0.00000  Uiso   1.00
O78    O     0.57506   0.16667   0.21540   0.00000  Uiso   1.00
C79    C     0.65762   0.13669   0.10674   0.00000  Uiso   1.00
H80    H     0.33337   0.14508   0.07214   0.00000  Uiso   1.00
O81    O     0.63125   0.10605   0.11071   0.00000  Uiso   1.00
C82    C     0.34238   0.19665   0.22659   0.00000  Uiso   1.00
H83    H     0.66663   0.18826   0.26120   0.00000  Uiso   1.00
O84    O     0.36875   0.22728   0.22262   0.00000  Uiso   1.00
C85    C     0.46945   0.29390   0.07788   0.00000  Uiso   1.00
N86    N     0.45618   0.27880   0.04148   0.00000  Uiso   1.00
C87    C     0.53055   0.03943   0.25545   0.00000  Uiso   1.00
N88    N     0.54382   0.05454   0.29185   0.00000  Uiso   1.00
C89    C     0.43324   0.11288   0.03881   0.00000  Uiso   1.00
N90    N     0.40534   0.08999   0.05331   0.00000  Uiso   1.00
C91    C     0.56676   0.22045   0.29452   0.00000  Uiso   1.00
N92    N     0.59466   0.24335   0.28003   0.00000  Uiso   1.00
C93    C     0.83435   0.08743   0.16701   0.00000  Uiso   1.00
C94    C     0.83231   0.24591   0.16632   0.00000  Uiso   1.00
C95    C     0.73472   0.16663   0.15465   0.00000  Uiso   1.00
C96    C     0.93194   0.16670   0.17868   0.00000  Uiso   1.00
C97    C     0.67994   0.16106   0.14898   0.00000  Uiso   1.00
C98    C     0.98672   0.17227   0.18436   0.00000  Uiso   1.00
C99    C     0.82152   0.02202   0.12481   0.00000  Uiso   1.00
C100   C     0.84515   0.31132   0.20853   0.00000  Uiso   1.00
C101   C     0.81933   0.31294   0.12330   0.00000  Uiso   1.00
C102   C     0.84734   0.02040   0.21003   0.00000  Uiso   1.00
C103   C     0.83175   0.29055   0.16564   0.00000  Uiso   1.00
C104   C     0.83492   0.04278   0.16769   0.00000  Uiso   1.00
C105   C     0.80106   0.14099   0.02008   0.00000  Uiso   1.00
C106   C     0.86560   0.19234   0.31325   0.00000  Uiso   1.00
C107   C     0.80118   0.14116   0.30394   0.00000  Uiso   1.00
C108   C     0.86549   0.19217   0.02939   0.00000  Uiso   1.00
Cu109  Cu    0.83333   0.16667   0.21355   0.00000  Uiso   1.00
Cu110  Cu    0.83333   0.16666   0.11978   0.00000  Uiso   1.00
H111   H     0.81203   0.03886   0.09216   0.00000  Uiso   1.00
H112   H     0.85464   0.29447   0.24117   0.00000  Uiso   1.00
H113   H     0.77563   0.12076   0.28142   0.00000  Uiso   1.00
H114   H     0.89104   0.21258   0.05192   0.00000  Uiso   1.00
N115   N     0.83335   0.16668   0.28403   0.00000  Uiso   1.00
N116   N     0.83332   0.16666   0.04931   0.00000  Uiso   1.00
O117   O     0.83333   0.10655   0.20625   0.00000  Uiso   1.00
O118   O     0.83334   0.22678   0.12709   0.00000  Uiso   1.00
O119   O     0.83333   0.10654   0.12706   0.00000  Uiso   1.00
O120   O     0.83334   0.22679   0.20628   0.00000  Uiso   1.00
O121   O     0.75828   0.16667   0.19712   0.00000  Uiso   1.00
O122   O     0.90839   0.16666   0.13621   0.00000  Uiso   1.00
O123   O     0.75828   0.16666   0.11793   0.00000  Uiso   1.00
O124   O     0.90839   0.16667   0.21540   0.00000  Uiso   1.00
C125   C     0.99095   0.13669   0.10674   0.00000  Uiso   1.00
H126   H     0.66670   0.14508   0.07214   0.00000  Uiso   1.00
O127   O     0.96458   0.10605   0.11071   0.00000  Uiso   1.00
C128   C     0.67572   0.19665   0.22659   0.00000  Uiso   1.00
H129   H     0.99997   0.18826   0.26120   0.00000  Uiso   1.00
O130   O     0.70208   0.22728   0.22262   0.00000  Uiso   1.00
C131   C     0.80278   0.29390   0.07788   0.00000  Uiso   1.00
N132   N     0.78951   0.27880   0.04148   0.00000  Uiso   1.00
C133   C     0.86389   0.03943   0.25545   0.00000  Uiso   1.00
N134   N     0.87715   0.05454   0.29185   0.00000  Uiso   1.00
C135   C     0.76657   0.11288   0.03881   0.00000  Uiso   1.00
N136   N     0.73867   0.08999   0.05331   0.00000  Uiso   1.00
C137   C     0.90010   0.22045   0.29452   0.00000  Uiso   1.00
N138   N     0.92799   0.24335   0.28003   0.00000  Uiso   1.00
C139   C     0.16769   0.42076   0.16701   0.00000  Uiso   1.00
C140   C     0.16565   0.57924   0.16632   0.00000  Uiso   1.00
C141   C     0.06806   0.49996   0.15465   0.00000  Uiso   1.00
C142   C     0.26527   0.50003   0.17868   0.00000  Uiso   1.00
C143   C     0.01327   0.49439   0.14898   0.00000  Uiso   1.00
C144   C     0.32006   0.50561   0.18436   0.00000  Uiso   1.00
C145   C     0.15485   0.35535   0.12481   0.00000  Uiso   1.00
C146   C     0.17848   0.64465   0.20853   0.00000  Uiso   1.00
C147   C     0.15266   0.64627   0.12330   0.00000  Uiso   1.00
C148   C     0.18067   0.35373   0.21003   0.00000  Uiso   1.00
C149   C     0.16508   0.62388   0.16564   0.00000  Uiso   1.00
C150   C     0.16825   0.37612   0.16769   0.00000  Uiso   1.00
C151   C     0.13439   0.47433   0.02008   0.00000  Uiso   1.00
C152   C     0.19894   0.52567   0.31325   0.00000  Uiso   1.00
C153   C     0.13451   0.47449   0.30394   0.00000  Uiso   1.00
C154   C     0.19882   0.52551   0.02939   0.00000  Uiso   1.00
Cu155  Cu    0.16667   0.50001   0.21355   0.00000  Uiso   1.00
Cu156  Cu    0.16667   0.49999   0.11978   0.00000  Uiso   1.00
H157   H     0.14536   0.37219   0.09216   0.00000  Uiso   1.00
H158   H     0.18797   0.62781   0.24117   0.00000  Uiso   1.00
H159   H     0.10896   0.45409   0.28142   0.00000  Uiso   1.00
H160   H     0.22437   0.54591   0.05192   0.00000  Uiso   1.00
N161   N     0.16668   0.50001   0.28403   0.00000  Uiso   1.00
N162   N     0.16665   0.49999   0.04931   0.00000  Uiso   1.00
O163   O     0.16666   0.43989   0.20625   0.00000  Uiso   1.00
O164   O     0.16667   0.56011   0.12709   0.00000  Uiso   1.00
O165   O     0.16666   0.43988   0.12706   0.00000  Uiso   1.00
O166   O     0.16667   0.56012   0.20628   0.00000  Uiso   1.00
O167   O     0.09161   0.50000   0.19712   0.00000  Uiso   1.00
O168   O     0.24172   0.50000   0.13621   0.00000  Uiso   1.00
O169   O     0.09161   0.49999   0.11793   0.00000  Uiso   1.00
O170   O     0.24172   0.50001   0.21540   0.00000  Uiso   1.00
C171   C     0.32428   0.47002   0.10674   0.00000  Uiso   1.00
H172   H     0.00003   0.47841   0.07214   0.00000  Uiso   1.00
O173   O     0.29792   0.43939   0.11071   0.00000  Uiso   1.00
C174   C     0.00905   0.52998   0.22659   0.00000  Uiso   1.00
H175   H     0.33330   0.52159   0.26120   0.00000  Uiso   1.00
O176   O     0.03542   0.56061   0.22262   0.00000  Uiso   1.00
C177   C     0.13611   0.62723   0.07788   0.00000  Uiso   1.00
N178   N     0.12284   0.61213   0.04148   0.00000  Uiso   1.00
C179   C     0.19722   0.37277   0.25545   0.00000  Uiso   1.00
N180   N     0.21049   0.38787   0.29185   0.00000  Uiso   1.00
C181   C     0.09990   0.44622   0.03881   0.00000  Uiso   1.00
N182   N     0.07201   0.42332   0.05331   0.00000  Uiso   1.00
C183   C     0.23343   0.55378   0.29452   0.00000  Uiso   1.00
N184   N     0.26133   0.57668   0.28003   0.00000  Uiso   1.00
C185   C     0.50102   0.42076   0.16701   0.00000  Uiso   1.00
C186   C     0.49898   0.57924   0.16632   0.00000  Uiso   1.00
C187   C     0.40139   0.49996   0.15465   0.00000  Uiso   1.00
C188   C     0.59861   0.50003   0.17868   0.00000  Uiso   1.00
C189   C     0.34661   0.49439   0.14898   0.00000  Uiso   1.00
C190   C     0.65339   0.50561   0.18436   0.00000  Uiso   1.00
C191   C     0.48819   0.35535   0.12481   0.00000  Uiso   1.00
C192   C     0.51181   0.64465   0.20853   0.00000  Uiso   1.00
C193   C     0.48599   0.64627   0.12330   0.00000  Uiso   1.00
C194   C     0.51401   0.35373   0.21003   0.00000  Uiso   1.00
C195   C     0.49842   0.62388   0.16564   0.00000  Uiso   1.00
C196   C     0.50158   0.37612   0.16769   0.00000  Uiso   1.00
C197   C     0.46773   0.47433   0.02008   0.00000  Uiso   1.00
C198   C     0.53227   0.52567   0.31325   0.00000  Uiso   1.00
C199   C     0.46784   0.47449   0.30394   0.00000  Uiso   1.00
C200   C     0.53216   0.52551   0.02939   0.00000  Uiso   1.00
Cu201  Cu    0.50000   0.50001   0.21355   0.00000  Uiso   1.00
Cu202  Cu    0.50000   0.49999   0.11978   0.00000  Uiso   1.00
H203   H     0.47870   0.37219   0.09216   0.00000  Uiso   1.00
H204   H     0.52130   0.62781   0.24117   0.00000  Uiso   1.00
H205   H     0.44229   0.45409   0.28142   0.00000  Uiso   1.00
H206   H     0.55771   0.54591   0.05192   0.00000  Uiso   1.00
N207   N     0.50001   0.50001   0.28403   0.00000  Uiso   1.00
N208   N     0.49999   0.49999   0.04931   0.00000  Uiso   1.00
O209   O     0.50000   0.43989   0.20625   0.00000  Uiso   1.00
O210   O     0.50000   0.56011   0.12709   0.00000  Uiso   1.00
O211   O     0.50000   0.43988   0.12706   0.00000  Uiso   1.00
O212   O     0.50000   0.56012   0.20628   0.00000  Uiso   1.00
O213   O     0.42495   0.50000   0.19712   0.00000  Uiso   1.00
O214   O     0.57505   0.50000   0.13621   0.00000  Uiso   1.00
O215   O     0.42494   0.49999   0.11793   0.00000  Uiso   1.00
O216   O     0.57506   0.50001   0.21540   0.00000  Uiso   1.00
C217   C     0.65762   0.47002   0.10674   0.00000  Uiso   1.00
H218   H     0.33337   0.47841   0.07214   0.00000  Uiso   1.00
O219   O     0.63125   0.43939   0.11071   0.00000  Uiso   1.00
C220   C     0.34238   0.52998   0.22659   0.00000  Uiso   1.00
H221   H     0.66663   0.52159   0.26120   0.00000  Uiso   1.00
O222   O     0.36875   0.56061   0.22262   0.00000  Uiso   1.00
C223   C     0.46945   0.62723   0.07788   0.00000  Uiso   1.00
N224   N     0.45618   0.61213   0.04148   0.00000  Uiso   1.00
C225   C     0.53055   0.37277   0.25545   0.00000  Uiso   1.00
N226   N     0.54382   0.38787   0.29185   0.00000  Uiso   1.00
C227   C     0.43324   0.44622   0.03881   0.00000  Uiso   1.00
N228   N     0.40534   0.42332   0.05331   0.00000  Uiso   1.00
C229   C     0.56676   0.55378   0.29452   0.00000  Uiso   1.00
N230   N     0.59466   0.57668   0.28003   0.00000  Uiso   1.00
C231   C     0.83435   0.42076   0.16701   0.00000  Uiso   1.00
C232   C     0.83231   0.57924   0.16632   0.00000  Uiso   1.00
C233   C     0.73472   0.49996   0.15465   0.00000  Uiso   1.00
C234   C     0.93194   0.50003   0.17868   0.00000  Uiso   1.00
C235   C     0.67994   0.49439   0.14898   0.00000  Uiso   1.00
C236   C     0.98672   0.50561   0.18436   0.00000  Uiso   1.00
C237   C     0.82152   0.35535   0.12481   0.00000  Uiso   1.00
C238   C     0.84515   0.64465   0.20853   0.00000  Uiso   1.00
C239   C     0.81933   0.64627   0.12330   0.00000  Uiso   1.00
C240   C     0.84734   0.35373   0.21003   0.00000  Uiso   1.00
C241   C     0.83175   0.62388   0.16564   0.00000  Uiso   1.00
C242   C     0.83492   0.37612   0.16769   0.00000  Uiso   1.00
C243   C     0.80106   0.47433   0.02008   0.00000  Uiso   1.00
C244   C     0.86560   0.52567   0.31325   0.00000  Uiso   1.00
C245   C     0.80118   0.47449   0.30394   0.00000  Uiso   1.00
C246   C     0.86549   0.52551   0.02939   0.00000  Uiso   1.00
Cu247  Cu    0.83333   0.50001   0.21355   0.00000  Uiso   1.00
Cu248  Cu    0.83333   0.49999   0.11978   0.00000  Uiso   1.00
H249   H     0.81203   0.37219   0.09216   0.00000  Uiso   1.00
H250   H     0.85464   0.62781   0.24117   0.00000  Uiso   1.00
H251   H     0.77563   0.45409   0.28142   0.00000  Uiso   1.00
H252   H     0.89104   0.54591   0.05192   0.00000  Uiso   1.00
N253   N     0.83335   0.50001   0.28403   0.00000  Uiso   1.00
N254   N     0.83332   0.49999   0.04931   0.00000  Uiso   1.00
O255   O     0.83333   0.43989   0.20625   0.00000  Uiso   1.00
O256   O     0.83334   0.56011   0.12709   0.00000  Uiso   1.00
O257   O     0.83333   0.43988   0.12706   0.00000  Uiso   1.00
O258   O     0.83334   0.56012   0.20628   0.00000  Uiso   1.00
O259   O     0.75828   0.50000   0.19712   0.00000  Uiso   1.00
O260   O     0.90839   0.50000   0.13621   0.00000  Uiso   1.00
O261   O     0.75828   0.49999   0.11793   0.00000  Uiso   1.00
O262   O     0.90839   0.50001   0.21540   0.00000  Uiso   1.00
C263   C     0.99095   0.47002   0.10674   0.00000  Uiso   1.00
H264   H     0.66670   0.47841   0.07214   0.00000  Uiso   1.00
O265   O     0.96458   0.43939   0.11071   0.00000  Uiso   1.00
C266   C     0.67572   0.52998   0.22659   0.00000  Uiso   1.00
H267   H     0.99997   0.52159   0.26120   0.00000  Uiso   1.00
O268   O     0.70208   0.56061   0.22262   0.00000  Uiso   1.00
C269   C     0.80278   0.62723   0.07788   0.00000  Uiso   1.00
N270   N     0.78951   0.61213   0.04148   0.00000  Uiso   1.00
C271   C     0.86389   0.37277   0.25545   0.00000  Uiso   1.00
N272   N     0.87715   0.38787   0.29185   0.00000  Uiso   1.00
C273   C     0.76657   0.44622   0.03881   0.00000  Uiso   1.00
N274   N     0.73867   0.42332   0.05331   0.00000  Uiso   1.00
C275   C     0.90010   0.55378   0.29452   0.00000  Uiso   1.00
N276   N     0.92799   0.57668   0.28003   0.00000  Uiso   1.00
C277   C     0.16769   0.75409   0.16701   0.00000  Uiso   1.00
C278   C     0.16565   0.91257   0.16632   0.00000  Uiso   1.00
C279   C     0.06806   0.83330   0.15465   0.00000  Uiso   1.00
C280   C     0.26527   0.83337   0.17868   0.00000  Uiso   1.00
C281   C     0.01327   0.82773   0.14898   0.00000  Uiso   1.00
C282   C     0.32006   0.83894   0.18436   0.00000  Uiso   1.00
C283   C     0.15485   0.68868   0.12481   0.00000  Uiso   1.00
C284   C     0.17848   0.97798   0.20853   0.00000  Uiso   1.00
C285   C     0.15266   0.97960   0.12330   0.00000  Uiso   1.00
C286   C     0.18067   0.68706   0.21003   0.00000  Uiso   1.00
C287   C     0.16508   0.95722   0.16564   0.00000  Uiso   1.00
C288   C     0.16825   0.70945   0.16769   0.00000  Uiso   1.00
C289   C     0.13439   0.80766   0.02008   0.00000  Uiso   1.00
C290   C     0.19894   0.85901   0.31325   0.00000  Uiso   1.00
C291   C     0.13451   0.80783   0.30394   0.00000  Uiso   1.00
C292   C     0.19882   0.85884   0.02939   0.00000  Uiso   1.00
Cu293  Cu    0.16667   0.83334   0.21355   0.00000  Uiso   1.00
Cu294  Cu    0.16667   0.83333   0.11978   0.00000  Uiso   1.00
H295   H     0.14536   0.70553   0.09216   0.00000  Uiso   1.00
H296   H     0.18797   0.96114   0.24117   0.00000  Uiso   1.00
H297   H     0.10896   0.78742   0.28142   0.00000  Uiso   1.00
H298   H     0.22437   0.87924   0.05192   0.00000  Uiso   1.00
N299   N     0.16668   0.83334   0.28403   0.00000  Uiso   1.00
N300   N     0.16665   0.83332   0.04931   0.00000  Uiso   1.00
O301   O     0.16666   0.77322   0.20625   0.00000  Uiso   1.00
O302   O     0.16667   0.89345   0.12709   0.00000  Uiso   1.00
O303   O     0.16666   0.77321   0.12706   0.00000  Uiso   1.00
O304   O     0.16667   0.89346   0.20628   0.00000  Uiso   1.00
O305   O     0.09161   0.83334   0.19712   0.00000  Uiso   1.00
O306   O     0.24172   0.83333   0.13621   0.00000  Uiso   1.00
O307   O     0.09161   0.83333   0.11793   0.00000  Uiso   1.00
O308   O     0.24172   0.83334   0.21540   0.00000  Uiso   1.00
C309   C     0.32428   0.80336   0.10674   0.00000  Uiso   1.00
H310   H     0.00003   0.81174   0.07214   0.00000  Uiso   1.00
O311   O     0.29792   0.77272   0.11071   0.00000  Uiso   1.00
C312   C     0.00905   0.86331   0.22659   0.00000  Uiso   1.00
H313   H     0.33330   0.85492   0.26120   0.00000  Uiso   1.00
O314   O     0.03542   0.89395   0.22262   0.00000  Uiso   1.00
C315   C     0.13611   0.96057   0.07788   0.00000  Uiso   1.00
N316   N     0.12284   0.94546   0.04148   0.00000  Uiso   1.00
C317   C     0.19722   0.70610   0.25545   0.00000  Uiso   1.00
N318   N     0.21049   0.72120   0.29185   0.00000  Uiso   1.00
C319   C     0.09990   0.77955   0.03881   0.00000  Uiso   1.00
N320   N     0.07201   0.75665   0.05331   0.00000  Uiso   1.00
C321   C     0.23343   0.88712   0.29452   0.00000  Uiso   1.00
N322   N     0.26133   0.91001   0.28003   0.00000  Uiso   1.00
C323   C     0.50102   0.75409   0.16701   0.00000  Uiso   1.00
C324   C     0.49898   0.91257   0.16632   0.00000  Uiso   1.00
C325   C     0.40139   0.83330   0.15465   0.00000  Uiso   1.00
C326   C     0.59861   0.83337   0.17868   0.00000  Uiso   1.00
C327   C     0.34661   0.82773   0.14898   0.00000  Uiso   1.00
C328   C     0.65339   0.83894   0.18436   0.00000  Uiso   1.00
C329   C     0.48819   0.68868   0.12481   0.00000  Uiso   1.00
C330   C     0.51181   0.97798   0.20853   0.00000  Uiso   1.00
C331   C     0.48599   0.97960   0.12330   0.00000  Uiso   1.00
C332   C     0.51401   0.68706   0.21003   0.00000  Uiso   1.00
C333   C     0.49842   0.95722   0.16564   0.00000  Uiso   1.00
C334   C     0.50158   0.70945   0.16769   0.00000  Uiso   1.00
C335   C     0.46773   0.80766   0.02008   0.00000  Uiso   1.00
C336   C     0.53227   0.85901   0.31325   0.00000  Uiso   1.00
C337   C     0.46784   0.80783   0.30394   0.00000  Uiso   1.00
C338   C     0.53216   0.85884   0.02939   0.00000  Uiso   1.00
Cu339  Cu    0.50000   0.83334   0.21355   0.00000  Uiso   1.00
Cu340  Cu    0.50000   0.83333   0.11978   0.00000  Uiso   1.00
H341   H     0.47870   0.70553   0.09216   0.00000  Uiso   1.00
H342   H     0.52130   0.96114   0.24117   0.00000  Uiso   1.00
H343   H     0.44229   0.78742   0.28142   0.00000  Uiso   1.00
H344   H     0.55771   0.87924   0.05192   0.00000  Uiso   1.00
N345   N     0.50001   0.83334   0.28403   0.00000  Uiso   1.00
N346   N     0.49999   0.83332   0.04931   0.00000  Uiso   1.00
O347   O     0.50000   0.77322   0.20625   0.00000  Uiso   1.00
O348   O     0.50000   0.89345   0.12709   0.00000  Uiso   1.00
O349   O     0.50000   0.77321   0.12706   0.00000  Uiso   1.00
O350   O     0.50000   0.89346   0.20628   0.00000  Uiso   1.00
O351   O     0.42495   0.83334   0.19712   0.00000  Uiso   1.00
O352   O     0.57505   0.83333   0.13621   0.00000  Uiso   1.00
O353   O     0.42494   0.83333   0.11793   0.00000  Uiso   1.00
O354   O     0.57506   0.83334   0.21540   0.00000  Uiso   1.00
C355   C     0.65762   0.80336   0.10674   0.00000  Uiso   1.00
H356   H     0.33337   0.81174   0.07214   0.00000  Uiso   1.00
O357   O     0.63125   0.77272   0.11071   0.00000  Uiso   1.00
C358   C     0.34238   0.86331   0.22659   0.00000  Uiso   1.00
H359   H     0.66663   0.85492   0.26120   0.00000  Uiso   1.00
O360   O     0.36875   0.89395   0.22262   0.00000  Uiso   1.00
C361   C     0.46945   0.96057   0.07788   0.00000  Uiso   1.00
N362   N     0.45618   0.94546   0.04148   0.00000  Uiso   1.00
C363   C     0.53055   0.70610   0.25545   0.00000  Uiso   1.00
N364   N     0.54382   0.72120   0.29185   0.00000  Uiso   1.00
C365   C     0.43324   0.77955   0.03881   0.00000  Uiso   1.00
N366   N     0.40534   0.75665   0.05331   0.00000  Uiso   1.00
C367   C     0.56676   0.88712   0.29452   0.00000  Uiso   1.00
N368   N     0.59466   0.91001   0.28003   0.00000  Uiso   1.00
C369   C     0.83435   0.75409   0.16701   0.00000  Uiso   1.00
C370   C     0.83231   0.91257   0.16632   0.00000  Uiso   1.00
C371   C     0.73472   0.83330   0.15465   0.00000  Uiso   1.00
C372   C     0.93194   0.83337   0.17868   0.00000  Uiso   1.00
C373   C     0.67994   0.82773   0.14898   0.00000  Uiso   1.00
C374   C     0.98672   0.83894   0.18436   0.00000  Uiso   1.00
C375   C     0.82152   0.68868   0.12481   0.00000  Uiso   1.00
C376   C     0.84515   0.97798   0.20853   0.00000  Uiso   1.00
C377   C     0.81933   0.97960   0.12330   0.00000  Uiso   1.00
C378   C     0.84734   0.68706   0.21003   0.00000  Uiso   1.00
C379   C     0.83175   0.95722   0.16564   0.00000  Uiso   1.00
C380   C     0.83492   0.70945   0.16769   0.00000  Uiso   1.00
C381   C     0.80106   0.80766   0.02008   0.00000  Uiso   1.00
C382   C     0.86560   0.85901   0.31325   0.00000  Uiso   1.00
C383   C     0.80118   0.80783   0.30394   0.00000  Uiso   1.00
C384   C     0.86549   0.85884   0.02939   0.00000  Uiso   1.00
Cu385  Cu    0.83333   0.83334   0.21355   0.00000  Uiso   1.00
Cu386  Cu    0.83333   0.83333   0.11978   0.00000  Uiso   1.00
H387   H     0.81203   0.70553   0.09216   0.00000  Uiso   1.00
H388   H     0.85464   0.96114   0.24117   0.00000  Uiso   1.00
H389   H     0.77563   0.78742   0.28142   0.00000  Uiso   1.00
H390   H     0.89104   0.87924   0.05192   0.00000  Uiso   1.00
N391   N     0.83335   0.83334   0.28403   0.00000  Uiso   1.00
N392   N     0.83332   0.83332   0.04931   0.00000  Uiso   1.00
O393   O     0.83333   0.77322   0.20625   0.00000  Uiso   1.00
O394   O     0.83334   0.89345   0.12709   0.00000  Uiso   1.00
O395   O     0.83333   0.77321   0.12706   0.00000  Uiso   1.00
O396   O     0.83334   0.89346   0.20628   0.00000  Uiso   1.00
O397   O     0.75828   0.83334   0.19712   0.00000  Uiso   1.00
O398   O     0.90839   0.83333   0.13621   0.00000  Uiso   1.00
O399   O     0.75828   0.83333   0.11793   0.00000  Uiso   1.00
O400   O     0.90839   0.83334   0.21540   0.00000  Uiso   1.00
C401   C     0.99095   0.80336   0.10674   0.00000  Uiso   1.00
H402   H     0.66670   0.81174   0.07214   0.00000  Uiso   1.00
O403   O     0.96458   0.77272   0.11071   0.00000  Uiso   1.00
C404   C     0.67572   0.86331   0.22659   0.00000  Uiso   1.00
H405   H     0.99997   0.85492   0.26120   0.00000  Uiso   1.00
O406   O     0.70208   0.89395   0.22262   0.00000  Uiso   1.00
C407   C     0.80278   0.96057   0.07788   0.00000  Uiso   1.00
N408   N     0.78951   0.94546   0.04148   0.00000  Uiso   1.00
C409   C     0.86389   0.70610   0.25545   0.00000  Uiso   1.00
N410   N     0.87715   0.72120   0.29185   0.00000  Uiso   1.00
C411   C     0.76657   0.77955   0.03881   0.00000  Uiso   1.00
N412   N     0.73867   0.75665   0.05331   0.00000  Uiso   1.00
C413   C     0.90010   0.88712   0.29452   0.00000  Uiso   1.00
N414   N     0.92799   0.91001   0.28003   0.00000  Uiso   1.00
C415   C     0.16769   0.08743   0.50035   0.00000  Uiso   1.00
C416   C     0.16565   0.24591   0.49965   0.00000  Uiso   1.00
C417   C     0.06806   0.16663   0.48798   0.00000  Uiso   1.00
C418   C     0.26527   0.16670   0.51202   0.00000  Uiso   1.00
C419   C     0.01327   0.16106   0.48231   0.00000  Uiso   1.00
C420   C     0.32006   0.17227   0.51769   0.00000  Uiso   1.00
C421   C     0.15485   0.02202   0.45814   0.00000  Uiso   1.00
C422   C     0.17848   0.31132   0.54186   0.00000  Uiso   1.00
C423   C     0.15266   0.31294   0.45663   0.00000  Uiso   1.00
C424   C     0.18067   0.02040   0.54337   0.00000  Uiso   1.00
C425   C     0.16508   0.29055   0.49898   0.00000  Uiso   1.00
C426   C     0.16825   0.04278   0.50102   0.00000  Uiso   1.00
C427   C     0.13439   0.14099   0.35342   0.00000  Uiso   1.00
C428   C     0.19894   0.19234   0.64659   0.00000  Uiso   1.00
C429   C     0.13451   0.14116   0.63728   0.00000  Uiso   1.00
C430   C     0.19882   0.19217   0.36272   0.00000  Uiso   1.00
Cu431  Cu    0.16667   0.16667   0.54689   0.00000  Uiso   1.00
Cu432  Cu    0.16667   0.16666   0.45311   0.00000  Uiso   1.00
H433   H     0.14536   0.03886   0.42549   0.00000  Uiso   1.00
H434   H     0.18797   0.29447   0.57451   0.00000  Uiso   1.00
H435   H     0.10896   0.12076   0.61475   0.00000  Uiso   1.00
H436   H     0.22437   0.21258   0.38525   0.00000  Uiso   1.00
N437   N     0.16668   0.16668   0.61736   0.00000  Uiso   1.00
N438   N     0.16665   0.16666   0.38264   0.00000  Uiso   1.00
O439   O     0.16666   0.10655   0.53958   0.00000  Uiso   1.00
O440   O     0.16667   0.22678   0.46042   0.00000  Uiso   1.00
O441   O     0.16666   0.10654   0.46039   0.00000  Uiso   1.00
O442   O     0.16667   0.22679   0.53961   0.00000  Uiso   1.00
O443   O     0.09161   0.16667   0.53046   0.00000  Uiso   1.00
O444   O     0.24172   0.16666   0.46954   0.00000  Uiso   1.00
O445   O     0.09161   0.16666   0.45127   0.00000  Uiso   1.00
O446   O     0.24172   0.16667   0.54873   0.00000  Uiso   1.00
C447   C     0.32428   0.13669   0.44007   0.00000  Uiso   1.00
H448   H     0.00003   0.14508   0.40547   0.00000  Uiso   1.00
O449   O     0.29792   0.10605   0.44405   0.00000  Uiso   1.00
C450   C     0.00905   0.19665   0.55993   0.00000  Uiso   1.00
H451   H     0.33330   0.18826   0.59453   0.00000  Uiso   1.00
O452   O     0.03542   0.22728   0.55595   0.00000  Uiso   1.00
C453   C     0.13611   0.29390   0.41121   0.00000  Uiso   1.00
N454   N     0.12284   0.27880   0.37481   0.00000  Uiso   1.00
C455   C     0.19722   0.03943   0.58879   0.00000  Uiso   1.00
N456   N     0.21049   0.05454   0.62519   0.00000  Uiso   1.00
C457   C     0.09990   0.11288   0.37214   0.00000  Uiso   1.00
N458   N     0.07201   0.08999   0.38664   0.00000  Uiso   1.00
C459   C     0.23343   0.22045   0.62786   0.00000  Uiso   1.00
N460   N     0.26133   0.24335   0.61336   0.00000  Uiso   1.00
C461   C     0.50102   0.08743   0.50035   0.00000  Uiso   1.00
C462   C     0.49898   0.24591   0.49965   0.00000  Uiso   1.00
C463   C     0.40139   0.16663   0.48798   0.00000  Uiso   1.00
C464   C     0.59861   0.16670   0.51202   0.00000  Uiso   1.00
C465   C     0.34661   0.16106   0.48231   0.00000  Uiso   1.00
C466   C     0.65339   0.17227   0.51769   0.00000  Uiso   1.00
C467   C     0.48819   0.02202   0.45814   0.00000  Uiso   1.00
C468   C     0.51181   0.31132   0.54186   0.00000  Uiso   1.00
C469   C     0.48599   0.31294   0.45663   0.00000  Uiso   1.00
C470   C     0.51401   0.02040   0.54337   0.00000  Uiso   1.00
C471   C     0.49842   0.29055   0.49898   0.00000  Uiso   1.00
C472   C     0.50158   0.04278   0.50102   0.00000  Uiso   1.00
C473   C     0.46773   0.14099   0.35342   0.00000  Uiso   1.00
C474   C     0.53227   0.19234   0.64659   0.00000  Uiso   1.00
C475   C     0.46784   0.14116   0.63728   0.00000  Uiso   1.00
C476   C     0.53216   0.19217   0.36272   0.00000  Uiso   1.00
Cu477  Cu    0.50000   0.16667   0.54689   0.00000  Uiso   1.00
Cu478  Cu    0.50000   0.16666   0.45311   0.00000  Uiso   1.00
H479   H     0.47870   0.03886   0.42549   0.00000  Uiso   1.00
H480   H     0.52130   0.29447   0.57451   0.00000  Uiso   1.00
H481   H     0.44229   0.12076   0.61475   0.00000  Uiso   1.00
H482   H     0.55771   0.21258   0.38525   0.00000  Uiso   1.00
N483   N     0.50001   0.16668   0.61736   0.00000  Uiso   1.00
N484   N     0.49999   0.16666   0.38264   0.00000  Uiso   1.00
O485   O     0.50000   0.10655   0.53958   0.00000  Uiso   1.00
O486   O     0.50000   0.22678   0.46042   0.00000  Uiso   1.00
O487   O     0.50000   0.10654   0.46039   0.00000  Uiso   1.00
O488   O     0.50000   0.22679   0.53961   0.00000  Uiso   1.00
O489   O     0.42495   0.16667   0.53046   0.00000  Uiso   1.00
O490   O     0.57505   0.16666   0.46954   0.00000  Uiso   1.00
O491   O     0.42494   0.16666   0.45127   0.00000  Uiso   1.00
O492   O     0.57506   0.16667   0.54873   0.00000  Uiso   1.00
C493   C     0.65762   0.13669   0.44007   0.00000  Uiso   1.00
H494   H     0.33337   0.14508   0.40547   0.00000  Uiso   1.00
O495   O     0.63125   0.10605   0.44405   0.00000  Uiso   1.00
C496   C     0.34238   0.19665   0.55993   0.00000  Uiso   1.00
H497   H     0.66663   0.18826   0.59453   0.00000  Uiso   1.00
O498   O     0.36875   0.22728   0.55595   0.00000  Uiso   1.00
C499   C     0.46945   0.29390   0.41121   0.00000  Uiso   1.00
N500   N     0.45618   0.27880   0.37481   0.00000  Uiso   1.00
C501   C     0.53055   0.03943   0.58879   0.00000  Uiso   1.00
N502   N     0.54382   0.05454   0.62519   0.00000  Uiso   1.00
C503   C     0.43324   0.11288   0.37214   0.00000  Uiso   1.00
N504   N     0.40534   0.08999   0.38664   0.00000  Uiso   1.00
C505   C     0.56676   0.22045   0.62786   0.00000  Uiso   1.00
N506   N     0.59466   0.24335   0.61336   0.00000  Uiso   1.00
C507   C     0.83435   0.08743   0.50035   0.00000  Uiso   1.00
C508   C     0.83231   0.24591   0.49965   0.00000  Uiso   1.00
C509   C     0.73472   0.16663   0.48798   0.00000  Uiso   1.00
C510   C     0.93194   0.16670   0.51202   0.00000  Uiso   1.00
C511   C     0.67994   0.16106   0.48231   0.00000  Uiso   1.00
C512   C     0.98672   0.17227   0.51769   0.00000  Uiso   1.00
C513   C     0.82152   0.02202   0.45814   0.00000  Uiso   1.00
C514   C     0.84515   0.31132   0.54186   0.00000  Uiso   1.00
C515   C     0.81933   0.31294   0.45663   0.00000  Uiso   1.00
C516   C     0.84734   0.02040   0.54337   0.00000  Uiso   1.00
C517   C     0.83175   0.29055   0.49898   0.00000  Uiso   1.00
C518   C     0.83492   0.04278   0.50102   0.00000  Uiso   1.00
C519   C     0.80106   0.14099   0.35342   0.00000  Uiso   1.00
C520   C     0.86560   0.19234   0.64659   0.00000  Uiso   1.00
C521   C     0.80118   0.14116   0.63728   0.00000  Uiso   1.00
C522   C     0.86549   0.19217   0.36272   0.00000  Uiso   1.00
Cu523  Cu    0.83333   0.16667   0.54689   0.00000  Uiso   1.00
Cu524  Cu    0.83333   0.16666   0.45311   0.00000  Uiso   1.00
H525   H     0.81203   0.03886   0.42549   0.00000  Uiso   1.00
H526   H     0.85464   0.29447   0.57451   0.00000  Uiso   1.00
H527   H     0.77563   0.12076   0.61475   0.00000  Uiso   1.00
H528   H     0.89104   0.21258   0.38525   0.00000  Uiso   1.00
N529   N     0.83335   0.16668   0.61736   0.00000  Uiso   1.00
N530   N     0.83332   0.16666   0.38264   0.00000  Uiso   1.00
O531   O     0.83333   0.10655   0.53958   0.00000  Uiso   1.00
O532   O     0.83334   0.22678   0.46042   0.00000  Uiso   1.00
O533   O     0.83333   0.10654   0.46039   0.00000  Uiso   1.00
O534   O     0.83334   0.22679   0.53961   0.00000  Uiso   1.00
O535   O     0.75828   0.16667   0.53046   0.00000  Uiso   1.00
O536   O     0.90839   0.16666   0.46954   0.00000  Uiso   1.00
O537   O     0.75828   0.16666   0.45127   0.00000  Uiso   1.00
O538   O     0.90839   0.16667   0.54873   0.00000  Uiso   1.00
C539   C     0.99095   0.13669   0.44007   0.00000  Uiso   1.00
H540   H     0.66670   0.14508   0.40547   0.00000  Uiso   1.00
O541   O     0.96458   0.10605   0.44405   0.00000  Uiso   1.00
C542   C     0.67572   0.19665   0.55993   0.00000  Uiso   1.00
H543   H     0.99997   0.18826   0.59453   0.00000  Uiso   1.00
O544   O     0.70208   0.22728   0.55595   0.00000  Uiso   1.00
C545   C     0.80278   0.29390   0.41121   0.00000  Uiso   1.00
N546   N     0.78951   0.27880   0.37481   0.00000  Uiso   1.00
C547   C     0.86389   0.03943   0.58879   0.00000  Uiso   1.00
N548   N     0.87715   0.05454   0.62519   0.00000  Uiso   1.00
C549   C     0.76657   0.11288   0.37214   0.00000  Uiso   1.00
N550   N     0.73867   0.08999   0.38664   0.00000  Uiso   1.00
C551   C     0.90010   0.22045   0.62786   0.00000  Uiso   1.00
N552   N     0.92799   0.24335   0.61336   0.00000  Uiso   1.00
C553   C     0.16769   0.42076   0.50035   0.00000  Uiso   1.00
C554   C     0.16565   0.57924   0.49965   0.00000  Uiso   1.00
C555   C     0.06806   0.49996   0.48798   0.00000  Uiso   1.00
C556   C     0.26527   0.50003   0.51202   0.00000  Uiso   1.00
C557   C     0.01327   0.49439   0.48231   0.00000  Uiso   1.00
C558   C     0.32006   0.50561   0.51769   0.00000  Uiso   1.00
C559   C     0.15485   0.35535   0.45814   0.00000  Uiso   1.00
C560   C     0.17848   0.64465   0.54186   0.00000  Uiso   1.00
C561   C     0.15266   0.64627   0.45663   0.00000  Uiso   1.00
C562   C     0.18067   0.35373   0.54337   0.00000  Uiso   1.00
C563   C     0.16508   0.62388   0.49898   0.00000  Uiso   1.00
C564   C     0.16825   0.37612   0.50102   0.00000  Uiso   1.00
C565   C     0.13439   0.47433   0.35342   0.00000  Uiso   1.00
C566   C     0.19894   0.52567   0.64659   0.00000  Uiso   1.00
C567   C     0.13451   0.47449   0.63728   0.00000  Uiso   1.00
C568   C     0.19882   0.52551   0.36272   0.00000  Uiso   1.00
Cu569  Cu    0.16667   0.50001   0.54689   0.00000  Uiso   1.00
Cu570  Cu    0.16667   0.49999   0.45311   0.00000  Uiso   1.00
H571   H     0.14536   0.37219   0.42549   0.00000  Uiso   1.00
H572   H     0.18797   0.62781   0.57451   0.00000  Uiso   1.00
H573   H     0.10896   0.45409   0.61475   0.00000  Uiso   1.00
H574   H     0.22437   0.54591   0.38525   0.00000  Uiso   1.00
N575   N     0.16668   0.50001   0.61736   0.00000  Uiso   1.00
N576   N     0.16665   0.49999   0.38264   0.00000  Uiso   1.00
O577   O     0.16666   0.43989   0.53958   0.00000  Uiso   1.00
O578   O     0.16667   0.56011   0.46042   0.00000  Uiso   1.00
O579   O     0.16666   0.43988   0.46039   0.00000  Uiso   1.00
O580   O     0.16667   0.56012   0.53961   0.00000  Uiso   1.00
O581   O     0.09161   0.50000   0.53046   0.00000  Uiso   1.00
O582   O     0.24172   0.50000   0.46954   0.00000  Uiso   1.00
O583   O     0.09161   0.49999   0.45127   0.00000  Uiso   1.00
O584   O     0.24172   0.50001   0.54873   0.00000  Uiso   1.00
C585   C     0.32428   0.47002   0.44007   0.00000  Uiso   1.00
H586   H     0.00003   0.47841   0.40547   0.00000  Uiso   1.00
O587   O     0.29792   0.43939   0.44405   0.00000  Uiso   1.00
C588   C     0.00905   0.52998   0.55993   0.00000  Uiso   1.00
H589   H     0.33330   0.52159   0.59453   0.00000  Uiso   1.00
O590   O     0.03542   0.56061   0.55595   0.00000  Uiso   1.00
C591   C     0.13611   0.62723   0.41121   0.00000  Uiso   1.00
N592   N     0.12284   0.61213   0.37481   0.00000  Uiso   1.00
C593   C     0.19722   0.37277   0.58879   0.00000  Uiso   1.00
N594   N     0.21049   0.38787   0.62519   0.00000  Uiso   1.00
C595   C     0.09990   0.44622   0.37214   0.00000  Uiso   1.00
N596   N     0.07201   0.42332   0.38664   0.00000  Uiso   1.00
C597   C     0.23343   0.55378   0.62786   0.00000  Uiso   1.00
N598   N     0.26133   0.57668   0.61336   0.00000  Uiso   1.00
C599   C     0.50102   0.42076   0.50035   0.00000  Uiso   1.00
C600   C     0.49898   0.57924   0.49965   0.00000  Uiso   1.00
C601   C     0.40139   0.49996   0.48798   0.00000  Uiso   1.00
C602   C     0.59861   0.50003   0.51202   0.00000  Uiso   1.00
C603   C     0.34661   0.49439   0.48231   0.00000  Uiso   1.00
C604   C     0.65339   0.50561   0.51769   0.00000  Uiso   1.00
C605   C     0.48819   0.35535   0.45814   0.00000  Uiso   1.00
C606   C     0.51181   0.64465   0.54186   0.00000  Uiso   1.00
C607   C     0.48599   0.64627   0.45663   0.00000  Uiso   1.00
C608   C     0.51401   0.35373   0.54337   0.00000  Uiso   1.00
C609   C     0.49842   0.62388   0.49898   0.00000  Uiso   1.00
C610   C     0.50158   0.37612   0.50102   0.00000  Uiso   1.00
C611   C     0.46773   0.47433   0.35342   0.00000  Uiso   1.00
C612   C     0.53227   0.52567   0.64659   0.00000  Uiso   1.00
C613   C     0.46784   0.47449   0.63728   0.00000  Uiso   1.00
C614   C     0.53216   0.52551   0.36272   0.00000  Uiso   1.00
Cu615  Cu    0.50000   0.50001   0.54689   0.00000  Uiso   1.00
Cu616  Cu    0.50000   0.49999   0.45311   0.00000  Uiso   1.00
H617   H     0.47870   0.37219   0.42549   0.00000  Uiso   1.00
H618   H     0.52130   0.62781   0.57451   0.00000  Uiso   1.00
H619   H     0.44229   0.45409   0.61475   0.00000  Uiso   1.00
H620   H     0.55771   0.54591   0.38525   0.00000  Uiso   1.00
N621   N     0.50001   0.50001   0.61736   0.00000  Uiso   1.00
N622   N     0.49999   0.49999   0.38264   0.00000  Uiso   1.00
O623   O     0.50000   0.43989   0.53958   0.00000  Uiso   1.00
O624   O     0.50000   0.56011   0.46042   0.00000  Uiso   1.00
O625   O     0.50000   0.43988   0.46039   0.00000  Uiso   1.00
O626   O     0.50000   0.56012   0.53961   0.00000  Uiso   1.00
O627   O     0.42495   0.50000   0.53046   0.00000  Uiso   1.00
O628   O     0.57505   0.50000   0.46954   0.00000  Uiso   1.00
O629   O     0.42494   0.49999   0.45127   0.00000  Uiso   1.00
O630   O     0.57506   0.50001   0.54873   0.00000  Uiso   1.00
C631   C     0.65762   0.47002   0.44007   0.00000  Uiso   1.00
H632   H     0.33337   0.47841   0.40547   0.00000  Uiso   1.00
O633   O     0.63125   0.43939   0.44405   0.00000  Uiso   1.00
C634   C     0.34238   0.52998   0.55993   0.00000  Uiso   1.00
H635   H     0.66663   0.52159   0.59453   0.00000  Uiso   1.00
O636   O     0.36875   0.56061   0.55595   0.00000  Uiso   1.00
C637   C     0.46945   0.62723   0.41121   0.00000  Uiso   1.00
N638   N     0.45618   0.61213   0.37481   0.00000  Uiso   1.00
C639   C     0.53055   0.37277   0.58879   0.00000  Uiso   1.00
N640   N     0.54382   0.38787   0.62519   0.00000  Uiso   1.00
C641   C     0.43324   0.44622   0.37214   0.00000  Uiso   1.00
N642   N     0.40534   0.42332   0.38664   0.00000  Uiso   1.00
C643   C     0.56676   0.55378   0.62786   0.00000  Uiso   1.00
N644   N     0.59466   0.57668   0.61336   0.00000  Uiso   1.00
C645   C     0.83435   0.42076   0.50035   0.00000  Uiso   1.00
C646   C     0.83231   0.57924   0.49965   0.00000  Uiso   1.00
C647   C     0.73472   0.49996   0.48798   0.00000  Uiso   1.00
C648   C     0.93194   0.50003   0.51202   0.00000  Uiso   1.00
C649   C     0.67994   0.49439   0.48231   0.00000  Uiso   1.00
C650   C     0.98672   0.50561   0.51769   0.00000  Uiso   1.00
C651   C     0.82152   0.35535   0.45814   0.00000  Uiso   1.00
C652   C     0.84515   0.64465   0.54186   0.00000  Uiso   1.00
C653   C     0.81933   0.64627   0.45663   0.00000  Uiso   1.00
C654   C     0.84734   0.35373   0.54337   0.00000  Uiso   1.00
C655   C     0.83175   0.62388   0.49898   0.00000  Uiso   1.00
C656   C     0.83492   0.37612   0.50102   0.00000  Uiso   1.00
C657   C     0.80106   0.47433   0.35342   0.00000  Uiso   1.00
C658   C     0.86560   0.52567   0.64659   0.00000  Uiso   1.00
C659   C     0.80118   0.47449   0.63728   0.00000  Uiso   1.00
C660   C     0.86549   0.52551   0.36272   0.00000  Uiso   1.00
Cu661  Cu    0.83333   0.50001   0.54689   0.00000  Uiso   1.00
Cu662  Cu    0.83333   0.49999   0.45311   0.00000  Uiso   1.00
H663   H     0.81203   0.37219   0.42549   0.00000  Uiso   1.00
H664   H     0.85464   0.62781   0.57451   0.00000  Uiso   1.00
H665   H     0.77563   0.45409   0.61475   0.00000  Uiso   1.00
H666   H     0.89104   0.54591   0.38525   0.00000  Uiso   1.00
N667   N     0.83335   0.50001   0.61736   0.00000  Uiso   1.00
N668   N     0.83332   0.49999   0.38264   0.00000  Uiso   1.00
O669   O     0.83333   0.43989   0.53958   0.00000  Uiso   1.00
O670   O     0.83334   0.56011   0.46042   0.00000  Uiso   1.00
O671   O     0.83333   0.43988   0.46039   0.00000  Uiso   1.00
O672   O     0.83334   0.56012   0.53961   0.00000  Uiso   1.00
O673   O     0.75828   0.50000   0.53046   0.00000  Uiso   1.00
O674   O     0.90839   0.50000   0.46954   0.00000  Uiso   1.00
O675   O     0.75828   0.49999   0.45127   0.00000  Uiso   1.00
O676   O     0.90839   0.50001   0.54873   0.00000  Uiso   1.00
C677   C     0.99095   0.47002   0.44007   0.00000  Uiso   1.00
H678   H     0.66670   0.47841   0.40547   0.00000  Uiso   1.00
O679   O     0.96458   0.43939   0.44405   0.00000  Uiso   1.00
C680   C     0.67572   0.52998   0.55993   0.00000  Uiso   1.00
H681   H     0.99997   0.52159   0.59453   0.00000  Uiso   1.00
O682   O     0.70208   0.56061   0.55595   0.00000  Uiso   1.00
C683   C     0.80278   0.62723   0.41121   0.00000  Uiso   1.00
N684   N     0.78951   0.61213   0.37481   0.00000  Uiso   1.00
C685   C     0.86389   0.37277   0.58879   0.00000  Uiso   1.00
N686   N     0.87715   0.38787   0.62519   0.00000  Uiso   1.00
C687   C     0.76657   0.44622   0.37214   0.00000  Uiso   1.00
N688   N     0.73867   0.42332   0.38664   0.00000  Uiso   1.00
C689   C     0.90010   0.55378   0.62786   0.00000  Uiso   1.00
N690   N     0.92799   0.57668   0.61336   0.00000  Uiso   1.00
C691   C     0.16769   0.75409   0.50035   0.00000  Uiso   1.00
C692   C     0.16565   0.91257   0.49965   0.00000  Uiso   1.00
C693   C     0.06806   0.83330   0.48798   0.00000  Uiso   1.00
C694   C     0.26527   0.83337   0.51202   0.00000  Uiso   1.00
C695   C     0.01327   0.82773   0.48231   0.00000  Uiso   1.00
C696   C     0.32006   0.83894   0.51769   0.00000  Uiso   1.00
C697   C     0.15485   0.68868   0.45814   0.00000  Uiso   1.00
C698   C     0.17848   0.97798   0.54186   0.00000  Uiso   1.00
C699   C     0.15266   0.97960   0.45663   0.00000  Uiso   1.00
C700   C     0.18067   0.68706   0.54337   0.00000  Uiso   1.00
C701   C     0.16508   0.95722   0.49898   0.00000  Uiso   1.00
C702   C     0.16825   0.70945   0.50102   0.00000  Uiso   1.00
C703   C     0.13439   0.80766   0.35342   0.00000  Uiso   1.00
C704   C     0.19894   0.85901   0.64659   0.00000  Uiso   1.00
C705   C     0.13451   0.80783   0.63728   0.00000  Uiso   1.00
C706   C     0.19882   0.85884   0.36272   0.00000  Uiso   1.00
Cu707  Cu    0.16667   0.83334   0.54689   0.00000  Uiso   1.00
Cu708  Cu    0.16667   0.83333   0.45311   0.00000  Uiso   1.00
H709   H     0.14536   0.70553   0.42549   0.00000  Uiso   1.00
H710   H     0.18797   0.96114   0.57451   0.00000  Uiso   1.00
H711   H     0.10896   0.78742   0.61475   0.00000  Uiso   1.00
H712   H     0.22437   0.87924   0.38525   0.00000  Uiso   1.00
N713   N     0.16668   0.83334   0.61736   0.00000  Uiso   1.00
N714   N     0.16665   0.83332   0.38264   0.00000  Uiso   1.00
O715   O     0.16666   0.77322   0.53958   0.00000  Uiso   1.00
O716   O     0.16667   0.89345   0.46042   0.00000  Uiso   1.00
O717   O     0.16666   0.77321   0.46039   0.00000  Uiso   1.00
O718   O     0.16667   0.89346   0.53961   0.00000  Uiso   1.00
O719   O     0.09161   0.83334   0.53046   0.00000  Uiso   1.00
O720   O     0.24172   0.83333   0.46954   0.00000  Uiso   1.00
O721   O     0.09161   0.83333   0.45127   0.00000  Uiso   1.00
O722   O     0.24172   0.83334   0.54873   0.00000  Uiso   1.00
C723   C     0.32428   0.80336   0.44007   0.00000  Uiso   1.00
H724   H     0.00003   0.81174   0.40547   0.00000  Uiso   1.00
O725   O     0.29792   0.77272   0.44405   0.00000  Uiso   1.00
C726   C     0.00905   0.86331   0.55993   0.00000  Uiso   1.00
H727   H     0.33330   0.85492   0.59453   0.00000  Uiso   1.00
O728   O     0.03542   0.89395   0.55595   0.00000  Uiso   1.00
C729   C     0.13611   0.96057   0.41121   0.00000  Uiso   1.00
N730   N     0.12284   0.94546   0.37481   0.00000  Uiso   1.00
C731   C     0.19722   0.70610   0.58879   0.00000  Uiso   1.00
N732   N     0.21049   0.72120   0.62519   0.00000  Uiso   1.00
C733   C     0.09990   0.77955   0.37214   0.00000  Uiso   1.00
N734   N     0.07201   0.75665   0.38664   0.00000  Uiso   1.00
C735   C     0.23343   0.88712   0.62786   0.00000  Uiso   1.00
N736   N     0.26133   0.91001   0.61336   0.00000  Uiso   1.00
C737   C     0.50102   0.75409   0.50035   0.00000  Uiso   1.00
C738   C     0.49898   0.91257   0.49965   0.00000  Uiso   1.00
C739   C     0.40139   0.83330   0.48798   0.00000  Uiso   1.00
C740   C     0.59861   0.83337   0.51202   0.00000  Uiso   1.00
C741   C     0.34661   0.82773   0.48231   0.00000  Uiso   1.00
C742   C     0.65339   0.83894   0.51769   0.00000  Uiso   1.00
C743   C     0.48819   0.68868   0.45814   0.00000  Uiso   1.00
C744   C     0.51181   0.97798   0.54186   0.00000  Uiso   1.00
C745   C     0.48599   0.97960   0.45663   0.00000  Uiso   1.00
C746   C     0.51401   0.68706   0.54337   0.00000  Uiso   1.00
C747   C     0.49842   0.95722   0.49898   0.00000  Uiso   1.00
C748   C     0.50158   0.70945   0.50102   0.00000  Uiso   1.00
C749   C     0.46773   0.80766   0.35342   0.00000  Uiso   1.00
C750   C     0.53227   0.85901   0.64659   0.00000  Uiso   1.00
C751   C     0.46784   0.80783   0.63728   0.00000  Uiso   1.00
C752   C     0.53216   0.85884   0.36272   0.00000  Uiso   1.00
Cu753  Cu    0.50000   0.83334   0.54689   0.00000  Uiso   1.00
Cu754  Cu    0.50000   0.83333   0.45311   0.00000  Uiso   1.00
H755   H     0.47870   0.70553   0.42549   0.00000  Uiso   1.00
H756   H     0.52130   0.96114   0.57451   0.00000  Uiso   1.00
H757   H     0.44229   0.78742   0.61475   0.00000  Uiso   1.00
H758   H     0.55771   0.87924   0.38525   0.00000  Uiso   1.00
N759   N     0.50001   0.83334   0.61736   0.00000  Uiso   1.00
N760   N     0.49999   0.83332   0.38264   0.00000  Uiso   1.00
O761   O     0.50000   0.77322   0.53958   0.00000  Uiso   1.00
O762   O     0.50000   0.89345   0.46042   0.00000  Uiso   1.00
O763   O     0.50000   0.77321   0.46039   0.00000  Uiso   1.00
O764   O     0.50000   0.89346   0.53961   0.00000  Uiso   1.00
O765   O     0.42495   0.83334   0.53046   0.00000  Uiso   1.00
O766   O     0.57505   0.83333   0.46954   0.00000  Uiso   1.00
O767   O     0.42494   0.83333   0.45127   0.00000  Uiso   1.00
O768   O     0.57506   0.83334   0.54873   0.00000  Uiso   1.00
C769   C     0.65762   0.80336   0.44007   0.00000  Uiso   1.00
H770   H     0.33337   0.81174   0.40547   0.00000  Uiso   1.00
O771   O     0.63125   0.77272   0.44405   0.00000  Uiso   1.00
C772   C     0.34238   0.86331   0.55993   0.00000  Uiso   1.00
H773   H     0.66663   0.85492   0.59453   0.00000  Uiso   1.00
O774   O     0.36875   0.89395   0.55595   0.00000  Uiso   1.00
C775   C     0.46945   0.96057   0.41121   0.00000  Uiso   1.00
N776   N     0.45618   0.94546   0.37481   0.00000  Uiso   1.00
C777   C     0.53055   0.70610   0.58879   0.00000  Uiso   1.00
N778   N     0.54382   0.72120   0.62519   0.00000  Uiso   1.00
C779   C     0.43324   0.77955   0.37214   0.00000  Uiso   1.00
N780   N     0.40534   0.75665   0.38664   0.00000  Uiso   1.00
C781   C     0.56676   0.88712   0.62786   0.00000  Uiso   1.00
N782   N     0.59466   0.91001   0.61336   0.00000  Uiso   1.00
C783   C     0.83435   0.75409   0.50035   0.00000  Uiso   1.00
C784   C     0.83231   0.91257   0.49965   0.00000  Uiso   1.00
C785   C     0.73472   0.83330   0.48798   0.00000  Uiso   1.00
C786   C     0.93194   0.83337   0.51202   0.00000  Uiso   1.00
C787   C     0.67994   0.82773   0.48231   0.00000  Uiso   1.00
C788   C     0.98672   0.83894   0.51769   0.00000  Uiso   1.00
C789   C     0.82152   0.68868   0.45814   0.00000  Uiso   1.00
C790   C     0.84515   0.97798   0.54186   0.00000  Uiso   1.00
C791   C     0.81933   0.97960   0.45663   0.00000  Uiso   1.00
C792   C     0.84734   0.68706   0.54337   0.00000  Uiso   1.00
C793   C     0.83175   0.95722   0.49898   0.00000  Uiso   1.00
C794   C     0.83492   0.70945   0.50102   0.00000  Uiso   1.00
C795   C     0.80106   0.80766   0.35342   0.00000  Uiso   1.00
C796   C     0.86560   0.85901   0.64659   0.00000  Uiso   1.00
C797   C     0.80118   0.80783   0.63728   0.00000  Uiso   1.00
C798   C     0.86549   0.85884   0.36272   0.00000  Uiso   1.00
Cu799  Cu    0.83333   0.83334   0.54689   0.00000  Uiso   1.00
Cu800  Cu    0.83333   0.83333   0.45311   0.00000  Uiso   1.00
H801   H     0.81203   0.70553   0.42549   0.00000  Uiso   1.00
H802   H     0.85464   0.96114   0.57451   0.00000  Uiso   1.00
H803   H     0.77563   0.78742   0.61475   0.00000  Uiso   1.00
H804   H     0.89104   0.87924   0.38525   0.00000  Uiso   1.00
N805   N     0.83335   0.83334   0.61736   0.00000  Uiso   1.00
N806   N     0.83332   0.83332   0.38264   0.00000  Uiso   1.00
O807   O     0.83333   0.77322   0.53958   0.00000  Uiso   1.00
O808   O     0.83334   0.89345   0.46042   0.00000  Uiso   1.00
O809   O     0.83333   0.77321   0.46039   0.00000  Uiso   1.00
O810   O     0.83334   0.89346   0.53961   0.00000  Uiso   1.00
O811   O     0.75828   0.83334   0.53046   0.00000  Uiso   1.00
O812   O     0.90839   0.83333   0.46954   0.00000  Uiso   1.00
O813   O     0.75828   0.83333   0.45127   0.00000  Uiso   1.00
O814   O     0.90839   0.83334   0.54873   0.00000  Uiso   1.00
C815   C     0.99095   0.80336   0.44007   0.00000  Uiso   1.00
H816   H     0.66670   0.81174   0.40547   0.00000  Uiso   1.00
O817   O     0.96458   0.77272   0.44405   0.00000  Uiso   1.00
C818   C     0.67572   0.86331   0.55993   0.00000  Uiso   1.00
H819   H     0.99997   0.85492   0.59453   0.00000  Uiso   1.00
O820   O     0.70208   0.89395   0.55595   0.00000  Uiso   1.00
C821   C     0.80278   0.96057   0.41121   0.00000  Uiso   1.00
N822   N     0.78951   0.94546   0.37481   0.00000  Uiso   1.00
C823   C     0.86389   0.70610   0.58879   0.00000  Uiso   1.00
N824   N     0.87715   0.72120   0.62519   0.00000  Uiso   1.00
C825   C     0.76657   0.77955   0.37214   0.00000  Uiso   1.00
N826   N     0.73867   0.75665   0.38664   0.00000  Uiso   1.00
C827   C     0.90010   0.88712   0.62786   0.00000  Uiso   1.00
N828   N     0.92799   0.91001   0.61336   0.00000  Uiso   1.00
C829   C     0.16769   0.08743   0.83368   0.00000  Uiso   1.00
C830   C     0.16565   0.24591   0.83299   0.00000  Uiso   1.00
C831   C     0.06806   0.16663   0.82132   0.00000  Uiso   1.00
C832   C     0.26527   0.16670   0.84535   0.00000  Uiso   1.00
C833   C     0.01327   0.16106   0.81564   0.00000  Uiso   1.00
C834   C     0.32006   0.17227   0.85102   0.00000  Uiso   1.00
C835   C     0.15485   0.02202   0.79147   0.00000  Uiso   1.00
C836   C     0.17848   0.31132   0.87520   0.00000  Uiso   1.00
C837   C     0.15266   0.31294   0.78997   0.00000  Uiso   1.00
C838   C     0.18067   0.02040   0.87670   0.00000  Uiso   1.00
C839   C     0.16508   0.29055   0.83231   0.00000  Uiso   1.00
C840   C     0.16825   0.04278   0.83436   0.00000  Uiso   1.00
C841   C     0.13439   0.14099   0.68675   0.00000  Uiso   1.00
C842   C     0.19894   0.19234   0.97992   0.00000  Uiso   1.00
C843   C     0.13451   0.14116   0.97061   0.00000  Uiso   1.00
C844   C     0.19882   0.19217   0.69606   0.00000  Uiso   1.00
Cu845  Cu    0.16667   0.16667   0.88022   0.00000  Uiso   1.00
Cu846  Cu    0.16667   0.16666   0.78645   0.00000  Uiso   1.00
H847   H     0.14536   0.03886   0.75883   0.00000  Uiso   1.00
H848   H     0.18797   0.29447   0.90784   0.00000  Uiso   1.00
H849   H     0.10896   0.12076   0.94808   0.00000  Uiso   1.00
H850   H     0.22437   0.21258   0.71858   0.00000  Uiso   1.00
N851   N     0.16668   0.16668   0.95069   0.00000  Uiso   1.00
N852   N     0.16665   0.16666   0.71597   0.00000  Uiso   1.00
O853   O     0.16666   0.10655   0.87291   0.00000  Uiso   1.00
O854   O     0.16667   0.22678   0.79375   0.00000  Uiso   1.00
O855   O     0.16666   0.10654   0.79372   0.00000  Uiso   1.00
O856   O     0.16667   0.22679   0.87294   0.00000  Uiso   1.00
O857   O     0.09161   0.16667   0.86379   0.00000  Uiso   1.00
O858   O     0.24172   0.16666   0.80288   0.00000  Uiso   1.00
O859   O     0.09161   0.16666   0.78460   0.00000  Uiso   1.00
O860   O     0.24172   0.16667   0.88207   0.00000  Uiso   1.00
C861   C     0.32428   0.13669   0.77341   0.00000  Uiso   1.00
H862   H     0.00003   0.14508   0.73880   0.00000  Uiso   1.00
O863   O     0.29792   0.10605   0.77738   0.00000  Uiso   1.00
C864   C     0.00905   0.19665   0.89326   0.00000  Uiso   1.00
H865   H     0.33330   0.18826   0.92786   0.00000  Uiso   1.00
O866   O     0.03542   0.22728   0.88929   0.00000  Uiso   1.00
C867   C     0.13611   0.29390   0.74455   0.00000  Uiso   1.00
N868   N     0.12284   0.27880   0.70815   0.00000  Uiso   1.00
C869   C     0.19722   0.03943   0.92212   0.00000  Uiso   1.00
N870   N     0.21049   0.05454   0.95852   0.00000  Uiso   1.00
C871   C     0.09990   0.11288   0.70548   0.00000  Uiso   1.00
N872   N     0.07201   0.08999   0.71997   0.00000  Uiso   1.00
C873   C     0.23343   0.22045   0.96119   0.00000  Uiso   1.00
N874   N     0.26133   0.24335   0.94669   0.00000  Uiso   1.00
C875   C     0.50102   0.08743   0.83368   0.00000  Uiso   1.00
C876   C     0.49898   0.24591   0.83299   0.00000  Uiso   1.00
C877   C     0.40139   0.16663   0.82132   0.00000  Uiso   1.00
C878   C     0.59861   0.16670   0.84535   0.00000  Uiso   1.00
C879   C     0.34661   0.16106   0.81564   0.00000  Uiso   1.00
C880   C     0.65339   0.17227   0.85102   0.00000  Uiso   1.00
C881   C     0.48819   0.02202   0.79147   0.00000  Uiso   1.00
C882   C     0.51181   0.31132   0.87520   0.00000  Uiso   1.00
C883   C     0.48599   0.31294   0.78997   0.00000  Uiso   1.00
C884   C     0.51401   0.02040   0.87670   0.00000  Uiso   1.00
C885   C     0.49842   0.29055   0.83231   0.00000  Uiso   1.00
C886   C     0.50158   0.04278   0.83436   0.00000  Uiso   1.00
C887   C     0.46773   0.14099   0.68675   0.00000  Uiso   1.00
C888   C     0.53227   0.19234   0.97992   0.00000  Uiso   1.00
C889   C     0.46784   0.14116   0.97061   0.00000  Uiso   1.00
C890   C     0.53216   0.19217   0.69606   0.00000  Uiso   1.00
Cu891  Cu    0.50000   0.16667   0.88022   0.00000  Uiso   1.00
Cu892  Cu    0.50000   0.16666   0.78645   0.00000  Uiso   1.00
H893   H     0.47870   0.03886   0.75883   0.00000  Uiso   1.00
H894   H     0.52130   0.29447   0.90784   0.00000  Uiso   1.00
H895   H     0.44229   0.12076   0.94808   0.00000  Uiso   1.00
H896   H     0.55771   0.21258   0.71858   0.00000  Uiso   1.00
N897   N     0.50001   0.16668   0.95069   0.00000  Uiso   1.00
N898   N     0.49999   0.16666   0.71597   0.00000  Uiso   1.00
O899   O     0.50000   0.10655   0.87291   0.00000  Uiso   1.00
O900   O     0.50000   0.22678   0.79375   0.00000  Uiso   1.00
O901   O     0.50000   0.10654   0.79372   0.00000  Uiso   1.00
O902   O     0.50000   0.22679   0.87294   0.00000  Uiso   1.00
O903   O     0.42495   0.16667   0.86379   0.00000  Uiso   1.00
O904   O     0.57505   0.16666   0.80288   0.00000  Uiso   1.00
O905   O     0.42494   0.16666   0.78460   0.00000  Uiso   1.00
O906   O     0.57506   0.16667   0.88207   0.00000  Uiso   1.00
C907   C     0.65762   0.13669   0.77341   0.00000  Uiso   1.00
H908   H     0.33337   0.14508   0.73880   0.00000  Uiso   1.00
O909   O     0.63125   0.10605   0.77738   0.00000  Uiso   1.00
C910   C     0.34238   0.19665   0.89326   0.00000  Uiso   1.00
H911   H     0.66663   0.18826   0.92786   0.00000  Uiso   1.00
O912   O     0.36875   0.22728   0.88929   0.00000  Uiso   1.00
C913   C     0.46945   0.29390   0.74455   0.00000  Uiso   1.00
N914   N     0.45618   0.27880   0.70815   0.00000  Uiso   1.00
C915   C     0.53055   0.03943   0.92212   0.00000  Uiso   1.00
N916   N     0.54382   0.05454   0.95852   0.00000  Uiso   1.00
C917   C     0.43324   0.11288   0.70548   0.00000  Uiso   1.00
N918   N     0.40534   0.08999   0.71997   0.00000  Uiso   1.00
C919   C     0.56676   0.22045   0.96119   0.00000  Uiso   1.00
N920   N     0.59466   0.24335   0.94669   0.00000  Uiso   1.00
C921   C     0.83435   0.08743   0.83368   0.00000  Uiso   1.00
C922   C     0.83231   0.24591   0.83299   0.00000  Uiso   1.00
C923   C     0.73472   0.16663   0.82132   0.00000  Uiso   1.00
C924   C     0.93194   0.16670   0.84535   0.00000  Uiso   1.00
C925   C     0.67994   0.16106   0.81564   0.00000  Uiso   1.00
C926   C     0.98672   0.17227   0.85102   0.00000  Uiso   1.00
C927   C     0.82152   0.02202   0.79147   0.00000  Uiso   1.00
C928   C     0.84515   0.31132   0.87520   0.00000  Uiso   1.00
C929   C     0.81933   0.31294   0.78997   0.00000  Uiso   1.00
C930   C     0.84734   0.02040   0.87670   0.00000  Uiso   1.00
C931   C     0.83175   0.29055   0.83231   0.00000  Uiso   1.00
C932   C     0.83492   0.04278   0.83436   0.00000  Uiso   1.00
C933   C     0.80106   0.14099   0.68675   0.00000  Uiso   1.00
C934   C     0.86560   0.19234   0.97992   0.00000  Uiso   1.00
C935   C     0.80118   0.14116   0.97061   0.00000  Uiso   1.00
C936   C     0.86549   0.19217   0.69606   0.00000  Uiso   1.00
Cu937  Cu    0.83333   0.16667   0.88022   0.00000  Uiso   1.00
Cu938  Cu    0.83333   0.16666   0.78645   0.00000  Uiso   1.00
H939   H     0.81203   0.03886   0.75883   0.00000  Uiso   1.00
H940   H     0.85464   0.29447   0.90784   0.00000  Uiso   1.00
H941   H     0.77563   0.12076   0.94808   0.00000  Uiso   1.00
H942   H     0.89104   0.21258   0.71858   0.00000  Uiso   1.00
N943   N     0.83335   0.16668   0.95069   0.00000  Uiso   1.00
N944   N     0.83332   0.16666   0.71597   0.00000  Uiso   1.00
O945   O     0.83333   0.10655   0.87291   0.00000  Uiso   1.00
O946   O     0.83334   0.22678   0.79375   0.00000  Uiso   1.00
O947   O     0.83333   0.10654   0.79372   0.00000  Uiso   1.00
O948   O     0.83334   0.22679   0.87294   0.00000  Uiso   1.00
O949   O     0.75828   0.16667   0.86379   0.00000  Uiso   1.00
O950   O     0.90839   0.16666   0.80288   0.00000  Uiso   1.00
O951   O     0.75828   0.16666   0.78460   0.00000  Uiso   1.00
O952   O     0.90839   0.16667   0.88207   0.00000  Uiso   1.00
C953   C     0.99095   0.13669   0.77341   0.00000  Uiso   1.00
H954   H     0.66670   0.14508   0.73880   0.00000  Uiso   1.00
O955   O     0.96458   0.10605   0.77738   0.00000  Uiso   1.00
C956   C     0.67572   0.19665   0.89326   0.00000  Uiso   1.00
H957   H     0.99997   0.18826   0.92786   0.00000  Uiso   1.00
O958   O     0.70208   0.22728   0.88929   0.00000  Uiso   1.00
C959   C     0.80278   0.29390   0.74455   0.00000  Uiso   1.00
N960   N     0.78951   0.27880   0.70815   0.00000  Uiso   1.00
C961   C     0.86389   0.03943   0.92212   0.00000  Uiso   1.00
N962   N     0.87715   0.05454   0.95852   0.00000  Uiso   1.00
C963   C     0.76657   0.11288   0.70548   0.00000  Uiso   1.00
N964   N     0.73867   0.08999   0.71997   0.00000  Uiso   1.00
C965   C     0.90010   0.22045   0.96119   0.00000  Uiso   1.00
N966   N     0.92799   0.24335   0.94669   0.00000  Uiso   1.00
C967   C     0.16769   0.42076   0.83368   0.00000  Uiso   1.00
C968   C     0.16565   0.57924   0.83299   0.00000  Uiso   1.00
C969   C     0.06806   0.49996   0.82132   0.00000  Uiso   1.00
C970   C     0.26527   0.50003   0.84535   0.00000  Uiso   1.00
C971   C     0.01327   0.49439   0.81564   0.00000  Uiso   1.00
C972   C     0.32006   0.50561   0.85102   0.00000  Uiso   1.00
C973   C     0.15485   0.35535   0.79147   0.00000  Uiso   1.00
C974   C     0.17848   0.64465   0.87520   0.00000  Uiso   1.00
C975   C     0.15266   0.64627   0.78997   0.00000  Uiso   1.00
C976   C     0.18067   0.35373   0.87670   0.00000  Uiso   1.00
C977   C     0.16508   0.62388   0.83231   0.00000  Uiso   1.00
C978   C     0.16825   0.37612   0.83436   0.00000  Uiso   1.00
C979   C     0.13439   0.47433   0.68675   0.00000  Uiso   1.00
C980   C     0.19894   0.52567   0.97992   0.00000  Uiso   1.00
C981   C     0.13451   0.47449   0.97061   0.00000  Uiso   1.00
C982   C     0.19882   0.52551   0.69606   0.00000  Uiso   1.00
Cu983  Cu    0.16667   0.50001   0.88022   0.00000  Uiso   1.00
Cu984  Cu    0.16667   0.49999   0.78645   0.00000  Uiso   1.00
H985   H     0.14536   0.37219   0.75883   0.00000  Uiso   1.00
H986   H     0.18797   0.62781   0.90784   0.00000  Uiso   1.00
H987   H     0.10896   0.45409   0.94808   0.00000  Uiso   1.00
H988   H     0.22437   0.54591   0.71858   0.00000  Uiso   1.00
N989   N     0.16668   0.50001   0.95069   0.00000  Uiso   1.00
N990   N     0.16665   0.49999   0.71597   0.00000  Uiso   1.00
O991   O     0.16666   0.43989   0.87291   0.00000  Uiso   1.00
O992   O     0.16667   0.56011   0.79375   0.00000  Uiso   1.00
O993   O     0.16666   0.43988   0.79372   0.00000  Uiso   1.00
O994   O     0.16667   0.56012   0.87294   0.00000  Uiso   1.00
O995   O     0.09161   0.50000   0.86379   0.00000  Uiso   1.00
O996   O     0.24172   0.50000   0.80288   0.00000  Uiso   1.00
O997   O     0.09161   0.49999   0.78460   0.00000  Uiso   1.00
O998   O     0.24172   0.50001   0.88207   0.00000  Uiso   1.00
C999   C     0.32428   0.47002   0.77341   0.00000  Uiso   1.00
H1000  H     0.00003   0.47841   0.73880   0.00000  Uiso   1.00
O1001  O     0.29792   0.43939   0.77738   0.00000  Uiso   1.00
C1002  C     0.00905   0.52998   0.89326   0.00000  Uiso   1.00
H1003  H     0.33330   0.52159   0.92786   0.00000  Uiso   1.00
O1004  O     0.03542   0.56061   0.88929   0.00000  Uiso   1.00
C1005  C     0.13611   0.62723   0.74455   0.00000  Uiso   1.00
N1006  N     0.12284   0.61213   0.70815   0.00000  Uiso   1.00
C1007  C     0.19722   0.37277   0.92212   0.00000  Uiso   1.00
N1008  N     0.21049   0.38787   0.95852   0.00000  Uiso   1.00
C1009  C     0.09990   0.44622   0.70548   0.00000  Uiso   1.00
N1010  N     0.07201   0.42332   0.71997   0.00000  Uiso   1.00
C1011  C     0.23343   0.55378   0.96119   0.00000  Uiso   1.00
N1012  N     0.26133   0.57668   0.94669   0.00000  Uiso   1.00
C1013  C     0.50102   0.42076   0.83368   0.00000  Uiso   1.00
C1014  C     0.49898   0.57924   0.83299   0.00000  Uiso   1.00
C1015  C     0.40139   0.49996   0.82132   0.00000  Uiso   1.00
C1016  C     0.59861   0.50003   0.84535   0.00000  Uiso   1.00
C1017  C     0.34661   0.49439   0.81564   0.00000  Uiso   1.00
C1018  C     0.65339   0.50561   0.85102   0.00000  Uiso   1.00
C1019  C     0.48819   0.35535   0.79147   0.00000  Uiso   1.00
C1020  C     0.51181   0.64465   0.87520   0.00000  Uiso   1.00
C1021  C     0.48599   0.64627   0.78997   0.00000  Uiso   1.00
C1022  C     0.51401   0.35373   0.87670   0.00000  Uiso   1.00
C1023  C     0.49842   0.62388   0.83231   0.00000  Uiso   1.00
C1024  C     0.50158   0.37612   0.83436   0.00000  Uiso   1.00
C1025  C     0.46773   0.47433   0.68675   0.00000  Uiso   1.00
C1026  C     0.53227   0.52567   0.97992   0.00000  Uiso   1.00
C1027  C     0.46784   0.47449   0.97061   0.00000  Uiso   1.00
C1028  C     0.53216   0.52551   0.69606   0.00000  Uiso   1.00
Cu1029 Cu    0.50000   0.50001   0.88022   0.00000  Uiso   1.00
Cu1030 Cu    0.50000   0.49999   0.78645   0.00000  Uiso   1.00
H1031  H     0.47870   0.37219   0.75883   0.00000  Uiso   1.00
H1032  H     0.52130   0.62781   0.90784   0.00000  Uiso   1.00
H1033  H     0.44229   0.45409   0.94808   0.00000  Uiso   1.00
H1034  H     0.55771   0.54591   0.71858   0.00000  Uiso   1.00
N1035  N     0.50001   0.50001   0.95069   0.00000  Uiso   1.00
N1036  N     0.49999   0.49999   0.71597   0.00000  Uiso   1.00
O1037  O     0.50000   0.43989   0.87291   0.00000  Uiso   1.00
O1038  O     0.50000   0.56011   0.79375   0.00000  Uiso   1.00
O1039  O     0.50000   0.43988   0.79372   0.00000  Uiso   1.00
O1040  O     0.50000   0.56012   0.87294   0.00000  Uiso   1.00
O1041  O     0.42495   0.50000   0.86379   0.00000  Uiso   1.00
O1042  O     0.57505   0.50000   0.80288   0.00000  Uiso   1.00
O1043  O     0.42494   0.49999   0.78460   0.00000  Uiso   1.00
O1044  O     0.57506   0.50001   0.88207   0.00000  Uiso   1.00
C1045  C     0.65762   0.47002   0.77341   0.00000  Uiso   1.00
H1046  H     0.33337   0.47841   0.73880   0.00000  Uiso   1.00
O1047  O     0.63125   0.43939   0.77738   0.00000  Uiso   1.00
C1048  C     0.34238   0.52998   0.89326   0.00000  Uiso   1.00
H1049  H     0.66663   0.52159   0.92786   0.00000  Uiso   1.00
O1050  O     0.36875   0.56061   0.88929   0.00000  Uiso   1.00
C1051  C     0.46945   0.62723   0.74455   0.00000  Uiso   1.00
N1052  N     0.45618   0.61213   0.70815   0.00000  Uiso   1.00
C1053  C     0.53055   0.37277   0.92212   0.00000  Uiso   1.00
N1054  N     0.54382   0.38787   0.95852   0.00000  Uiso   1.00
C1055  C     0.43324   0.44622   0.70548   0.00000  Uiso   1.00
N1056  N     0.40534   0.42332   0.71997   0.00000  Uiso   1.00
C1057  C     0.56676   0.55378   0.96119   0.00000  Uiso   1.00
N1058  N     0.59466   0.57668   0.94669   0.00000  Uiso   1.00
C1059  C     0.83435   0.42076   0.83368   0.00000  Uiso   1.00
C1060  C     0.83231   0.57924   0.83299   0.00000  Uiso   1.00
C1061  C     0.73472   0.49996   0.82132   0.00000  Uiso   1.00
C1062  C     0.93194   0.50003   0.84535   0.00000  Uiso   1.00
C1063  C     0.67994   0.49439   0.81564   0.00000  Uiso   1.00
C1064  C     0.98672   0.50561   0.85102   0.00000  Uiso   1.00
C1065  C     0.82152   0.35535   0.79147   0.00000  Uiso   1.00
C1066  C     0.84515   0.64465   0.87520   0.00000  Uiso   1.00
C1067  C     0.81933   0.64627   0.78997   0.00000  Uiso   1.00
C1068  C     0.84734   0.35373   0.87670   0.00000  Uiso   1.00
C1069  C     0.83175   0.62388   0.83231   0.00000  Uiso   1.00
C1070  C     0.83492   0.37612   0.83436   0.00000  Uiso   1.00
C1071  C     0.80106   0.47433   0.68675   0.00000  Uiso   1.00
C1072  C     0.86560   0.52567   0.97992   0.00000  Uiso   1.00
C1073  C     0.80118   0.47449   0.97061   0.00000  Uiso   1.00
C1074  C     0.86549   0.52551   0.69606   0.00000  Uiso   1.00
Cu1075 Cu    0.83333   0.50001   0.88022   0.00000  Uiso   1.00
Cu1076 Cu    0.83333   0.49999   0.78645   0.00000  Uiso   1.00
H1077  H     0.81203   0.37219   0.75883   0.00000  Uiso   1.00
H1078  H     0.85464   0.62781   0.90784   0.00000  Uiso   1.00
H1079  H     0.77563   0.45409   0.94808   0.00000  Uiso   1.00
H1080  H     0.89104   0.54591   0.71858   0.00000  Uiso   1.00
N1081  N     0.83335   0.50001   0.95069   0.00000  Uiso   1.00
N1082  N     0.83332   0.49999   0.71597   0.00000  Uiso   1.00
O1083  O     0.83333   0.43989   0.87291   0.00000  Uiso   1.00
O1084  O     0.83334   0.56011   0.79375   0.00000  Uiso   1.00
O1085  O     0.83333   0.43988   0.79372   0.00000  Uiso   1.00
O1086  O     0.83334   0.56012   0.87294   0.00000  Uiso   1.00
O1087  O     0.75828   0.50000   0.86379   0.00000  Uiso   1.00
O1088  O     0.90839   0.50000   0.80288   0.00000  Uiso   1.00
O1089  O     0.75828   0.49999   0.78460   0.00000  Uiso   1.00
O1090  O     0.90839   0.50001   0.88207   0.00000  Uiso   1.00
C1091  C     0.99095   0.47002   0.77341   0.00000  Uiso   1.00
H1092  H     0.66670   0.47841   0.73880   0.00000  Uiso   1.00
O1093  O     0.96458   0.43939   0.77738   0.00000  Uiso   1.00
C1094  C     0.67572   0.52998   0.89326   0.00000  Uiso   1.00
H1095  H     0.99997   0.52159   0.92786   0.00000  Uiso   1.00
O1096  O     0.70208   0.56061   0.88929   0.00000  Uiso   1.00
C1097  C     0.80278   0.62723   0.74455   0.00000  Uiso   1.00
N1098  N     0.78951   0.61213   0.70815   0.00000  Uiso   1.00
C1099  C     0.86389   0.37277   0.92212   0.00000  Uiso   1.00
N1100  N     0.87715   0.38787   0.95852   0.00000  Uiso   1.00
C1101  C     0.76657   0.44622   0.70548   0.00000  Uiso   1.00
N1102  N     0.73867   0.42332   0.71997   0.00000  Uiso   1.00
C1103  C     0.90010   0.55378   0.96119   0.00000  Uiso   1.00
N1104  N     0.92799   0.57668   0.94669   0.00000  Uiso   1.00
C1105  C     0.16769   0.75409   0.83368   0.00000  Uiso   1.00
C1106  C     0.16565   0.91257   0.83299   0.00000  Uiso   1.00
C1107  C     0.06806   0.83330   0.82132   0.00000  Uiso   1.00
C1108  C     0.26527   0.83337   0.84535   0.00000  Uiso   1.00
C1109  C     0.01327   0.82773   0.81564   0.00000  Uiso   1.00
C1110  C     0.32006   0.83894   0.85102   0.00000  Uiso   1.00
C1111  C     0.15485   0.68868   0.79147   0.00000  Uiso   1.00
C1112  C     0.17848   0.97798   0.87520   0.00000  Uiso   1.00
C1113  C     0.15266   0.97960   0.78997   0.00000  Uiso   1.00
C1114  C     0.18067   0.68706   0.87670   0.00000  Uiso   1.00
C1115  C     0.16508   0.95722   0.83231   0.00000  Uiso   1.00
C1116  C     0.16825   0.70945   0.83436   0.00000  Uiso   1.00
C1117  C     0.13439   0.80766   0.68675   0.00000  Uiso   1.00
C1118  C     0.19894   0.85901   0.97992   0.00000  Uiso   1.00
C1119  C     0.13451   0.80783   0.97061   0.00000  Uiso   1.00
C1120  C     0.19882   0.85884   0.69606   0.00000  Uiso   1.00
Cu1121 Cu    0.16667   0.83334   0.88022   0.00000  Uiso   1.00
Cu1122 Cu    0.16667   0.83333   0.78645   0.00000  Uiso   1.00
H1123  H     0.14536   0.70553   0.75883   0.00000  Uiso   1.00
H1124  H     0.18797   0.96114   0.90784   0.00000  Uiso   1.00
H1125  H     0.10896   0.78742   0.94808   0.00000  Uiso   1.00
H1126  H     0.22437   0.87924   0.71858   0.00000  Uiso   1.00
N1127  N     0.16668   0.83334   0.95069   0.00000  Uiso   1.00
N1128  N     0.16665   0.83332   0.71597   0.00000  Uiso   1.00
O1129  O     0.16666   0.77322   0.87291   0.00000  Uiso   1.00
O1130  O     0.16667   0.89345   0.79375   0.00000  Uiso   1.00
O1131  O     0.16666   0.77321   0.79372   0.00000  Uiso   1.00
O1132  O     0.16667   0.89346   0.87294   0.00000  Uiso   1.00
O1133  O     0.09161   0.83334   0.86379   0.00000  Uiso   1.00
O1134  O     0.24172   0.83333   0.80288   0.00000  Uiso   1.00
O1135  O     0.09161   0.83333   0.78460   0.00000  Uiso   1.00
O1136  O     0.24172   0.83334   0.88207   0.00000  Uiso   1.00
C1137  C     0.32428   0.80336   0.77341   0.00000  Uiso   1.00
H1138  H     0.00003   0.81174   0.73880   0.00000  Uiso   1.00
O1139  O     0.29792   0.77272   0.77738   0.00000  Uiso   1.00
C1140  C     0.00905   0.86331   0.89326   0.00000  Uiso   1.00
H1141  H     0.33330   0.85492   0.92786   0.00000  Uiso   1.00
O1142  O     0.03542   0.89395   0.88929   0.00000  Uiso   1.00
C1143  C     0.13611   0.96057   0.74455   0.00000  Uiso   1.00
N1144  N     0.12284   0.94546   0.70815   0.00000  Uiso   1.00
C1145  C     0.19722   0.70610   0.92212   0.00000  Uiso   1.00
N1146  N     0.21049   0.72120   0.95852   0.00000  Uiso   1.00
C1147  C     0.09990   0.77955   0.70548   0.00000  Uiso   1.00
N1148  N     0.07201   0.75665   0.71997   0.00000  Uiso   1.00
C1149  C     0.23343   0.88712   0.96119   0.00000  Uiso   1.00
N1150  N     0.26133   0.91001   0.94669   0.00000  Uiso   1.00
C1151  C     0.50102   0.75409   0.83368   0.00000  Uiso   1.00
C1152  C     0.49898   0.91257   0.83299   0.00000  Uiso   1.00
C1153  C     0.40139   0.83330   0.82132   0.00000  Uiso   1.00
C1154  C     0.59861   0.83337   0.84535   0.00000  Uiso   1.00
C1155  C     0.34661   0.82773   0.81564   0.00000  Uiso   1.00
C1156  C     0.65339   0.83894   0.85102   0.00000  Uiso   1.00
C1157  C     0.48819   0.68868   0.79147   0.00000  Uiso   1.00
C1158  C     0.51181   0.97798   0.87520   0.00000  Uiso   1.00
C1159  C     0.48599   0.97960   0.78997   0.00000  Uiso   1.00
C1160  C     0.51401   0.68706   0.87670   0.00000  Uiso   1.00
C1161  C     0.49842   0.95722   0.83231   0.00000  Uiso   1.00
C1162  C     0.50158   0.70945   0.83436   0.00000  Uiso   1.00
C1163  C     0.46773   0.80766   0.68675   0.00000  Uiso   1.00
C1164  C     0.53227   0.85901   0.97992   0.00000  Uiso   1.00
C1165  C     0.46784   0.80783   0.97061   0.00000  Uiso   1.00
C1166  C     0.53216   0.85884   0.69606   0.00000  Uiso   1.00
Cu1167 Cu    0.50000   0.83334   0.88022   0.00000  Uiso   1.00
Cu1168 Cu    0.50000   0.83333   0.78645   0.00000  Uiso   1.00
H1169  H     0.47870   0.70553   0.75883   0.00000  Uiso   1.00
H1170  H     0.52130   0.96114   0.90784   0.00000  Uiso   1.00
H1171  H     0.44229   0.78742   0.94808   0.00000  Uiso   1.00
H1172  H     0.55771   0.87924   0.71858   0.00000  Uiso   1.00
N1173  N     0.50001   0.83334   0.95069   0.00000  Uiso   1.00
N1174  N     0.49999   0.83332   0.71597   0.00000  Uiso   1.00
O1175  O     0.50000   0.77322   0.87291   0.00000  Uiso   1.00
O1176  O     0.50000   0.89345   0.79375   0.00000  Uiso   1.00
O1177  O     0.50000   0.77321   0.79372   0.00000  Uiso   1.00
O1178  O     0.50000   0.89346   0.87294   0.00000  Uiso   1.00
O1179  O     0.42495   0.83334   0.86379   0.00000  Uiso   1.00
O1180  O     0.57505   0.83333   0.80288   0.00000  Uiso   1.00
O1181  O     0.42494   0.83333   0.78460   0.00000  Uiso   1.00
O1182  O     0.57506   0.83334   0.88207   0.00000  Uiso   1.00
C1183  C     0.65762   0.80336   0.77341   0.00000  Uiso   1.00
H1184  H     0.33337   0.81174   0.73880   0.00000  Uiso   1.00
O1185  O     0.63125   0.77272   0.77738   0.00000  Uiso   1.00
C1186  C     0.34238   0.86331   0.89326   0.00000  Uiso   1.00
H1187  H     0.66663   0.85492   0.92786   0.00000  Uiso   1.00
O1188  O     0.36875   0.89395   0.88929   0.00000  Uiso   1.00
C1189  C     0.46945   0.96057   0.74455   0.00000  Uiso   1.00
N1190  N     0.45618   0.94546   0.70815   0.00000  Uiso   1.00
C1191  C     0.53055   0.70610   0.92212   0.00000  Uiso   1.00
N1192  N     0.54382   0.72120   0.95852   0.00000  Uiso   1.00
C1193  C     0.43324   0.77955   0.70548   0.00000  Uiso   1.00
N1194  N     0.40534   0.75665   0.71997   0.00000  Uiso   1.00
C1195  C     0.56676   0.88712   0.96119   0.00000  Uiso   1.00
N1196  N     0.59466   0.91001   0.94669   0.00000  Uiso   1.00
C1197  C     0.83435   0.75409   0.83368   0.00000  Uiso   1.00
C1198  C     0.83231   0.91257   0.83299   0.00000  Uiso   1.00
C1199  C     0.73472   0.83330   0.82132   0.00000  Uiso   1.00
C1200  C     0.93194   0.83337   0.84535   0.00000  Uiso   1.00
C1201  C     0.67994   0.82773   0.81564   0.00000  Uiso   1.00
C1202  C     0.98672   0.83894   0.85102   0.00000  Uiso   1.00
C1203  C     0.82152   0.68868   0.79147   0.00000  Uiso   1.00
C1204  C     0.84515   0.97798   0.87520   0.00000  Uiso   1.00
C1205  C     0.81933   0.97960   0.78997   0.00000  Uiso   1.00
C1206  C     0.84734   0.68706   0.87670   0.00000  Uiso   1.00
C1207  C     0.83175   0.95722   0.83231   0.00000  Uiso   1.00
C1208  C     0.83492   0.70945   0.83436   0.00000  Uiso   1.00
C1209  C     0.80106   0.80766   0.68675   0.00000  Uiso   1.00
C1210  C     0.86560   0.85901   0.97992   0.00000  Uiso   1.00
C1211  C     0.80118   0.80783   0.97061   0.00000  Uiso   1.00
C1212  C     0.86549   0.85884   0.69606   0.00000  Uiso   1.00
Cu1213 Cu    0.83333   0.83334   0.88022   0.00000  Uiso   1.00
Cu1214 Cu    0.83333   0.83333   0.78645   0.00000  Uiso   1.00
H1215  H     0.81203   0.70553   0.75883   0.00000  Uiso   1.00
H1216  H     0.85464   0.96114   0.90784   0.00000  Uiso   1.00
H1217  H     0.77563   0.78742   0.94808   0.00000  Uiso   1.00
H1218  H     0.89104   0.87924   0.71858   0.00000  Uiso   1.00
N1219  N     0.83335   0.83334   0.95069   0.00000  Uiso   1.00
N1220  N     0.83332   0.83332   0.71597   0.00000  Uiso   1.00
O1221  O     0.83333   0.77322   0.87291   0.00000  Uiso   1.00
O1222  O     0.83334   0.89345   0.79375   0.00000  Uiso   1.00
O1223  O     0.83333   0.77321   0.79372   0.00000  Uiso   1.00
O1224  O     0.83334   0.89346   0.87294   0.00000  Uiso   1.00
O1225  O     0.75828   0.83334   0.86379   0.00000  Uiso   1.00
O1226  O     0.90839   0.83333   0.80288   0.00000  Uiso   1.00
O1227  O     0.75828   0.83333   0.78460   0.00000  Uiso   1.00
O1228  O     0.90839   0.83334   0.88207   0.00000  Uiso   1.00
C1229  C     0.99095   0.80336   0.77341   0.00000  Uiso   1.00
H1230  H     0.66670   0.81174   0.73880   0.00000  Uiso   1.00
O1231  O     0.96458   0.77272   0.77738   0.00000  Uiso   1.00
C1232  C     0.67572   0.86331   0.89326   0.00000  Uiso   1.00
H1233  H     0.99997   0.85492   0.92786   0.00000  Uiso   1.00
O1234  O     0.70208   0.89395   0.88929   0.00000  Uiso   1.00
C1235  C     0.80278   0.96057   0.74455   0.00000  Uiso   1.00
N1236  N     0.78951   0.94546   0.70815   0.00000  Uiso   1.00
C1237  C     0.86389   0.70610   0.92212   0.00000  Uiso   1.00
N1238  N     0.87715   0.72120   0.95852   0.00000  Uiso   1.00
C1239  C     0.76657   0.77955   0.70548   0.00000  Uiso   1.00
N1240  N     0.73867   0.75665   0.71997   0.00000  Uiso   1.00
C1241  C     0.90010   0.88712   0.96119   0.00000  Uiso   1.00
N1242  N     0.92799   0.91001   0.94669   0.00000  Uiso   1.00
loop_
_geom_bond_atom_site_label_1
_geom_bond_atom_site_label_2
_geom_bond_distance
_geom_bond_site_symmetry_2
_ccdc_geom_bond_type
C1     O27     1.298   .     A
C1     O25     1.289   .     A
C1     C12     1.457   .     S
C2     C11     1.457   .     S
C2     O28     1.298   .     A
C2     O26     1.289   .     A
C3     O31     1.296   .     A
C3     O29     1.283   .     A
C3     C5      1.443   .     S
C4     O32     1.296   .     A
C4     C6      1.443   .     S
C4     O30     1.283   .     A
C5     C98     1.367   1_455 S
C5     C125    1.490   1_455 S
C6     C51     1.367   .     S
C6     C82     1.490   .     S
C7     H19     1.083   .     S
C7     C12     1.399   .     A
C7     C285    1.385   1_545 S
C8     H20     1.083   .     S
C8     C11     1.399   .     A
C8     C148    1.385   .     S
C9     C11     1.414   .     A
C9     C39     1.447   .     S
C9     C145    1.385   .     S
C10    C41     1.447   .     S
C10    C12     1.414   .     A
C10    C284    1.385   1_545 S
C13    C43     1.437   .     S
C13    N24     1.377   .     A
C13    C843    1.416   1_554 S
C14    N23     1.377   .     A
C14    C45     1.437   .     S
C14    C430    1.416   .     S
C15    H21     1.083   .     S
C15    N23     1.360   .     A
C15    C427    1.416   .     S
C16    N24     1.360   .     A
C16    H22     1.083   .     S
C16    C842    1.416   1_554 S
Cu17   O29     1.973   .     S
Cu17   O25     1.973   .     S
Cu17   N23     2.016   .     S
Cu17   Cu18    2.682   .     S
Cu17   O32     1.979   .     S
Cu17   O28     1.972   .     S
Cu18   O30     1.973   .     S
Cu18   O26     1.973   .     S
Cu18   N24     2.016   .     S
Cu18   O31     1.979   .     S
Cu18   O27     1.972   .     S
C33    O35     1.222   .     D
C33    C51     1.490   .     S
C33    H80     1.085   .     S
H34    C125    1.085   1_455 S
C36    O38     1.222   .     D
C36    C98     1.490   1_455 S
C36    H129    1.085   1_455 S
H37    C82     1.085   .     S
C39    N40     1.158   .     T
C41    N42     1.158   .     T
C43    N44     1.157   .     T
C45    N46     1.157   .     T
C47    O73     1.298   .     A
C47    O71     1.289   .     A
C47    C58     1.457   .     S
C48    C57     1.457   .     S
C48    O74     1.298   .     A
C48    O72     1.289   .     A
C49    O77     1.296   .     A
C49    O75     1.283   .     A
C49    C51     1.443   .     S
C50    O78     1.296   .     A
C50    C52     1.443   .     S
C50    O76     1.283   .     A
C52    C97     1.367   .     S
C52    C128    1.490   .     S
C53    H65     1.083   .     S
C53    C58     1.399   .     A
C53    C331    1.385   1_545 S
C54    H66     1.083   .     S
C54    C57     1.399   .     A
C54    C194    1.385   .     S
C55    C57     1.414   .     A
C55    C85     1.447   .     S
C55    C191    1.385   .     S
C56    C87     1.447   .     S
C56    C58     1.414   .     A
C56    C330    1.385   1_545 S
C59    C89     1.437   .     S
C59    N70     1.377   .     A
C59    C889    1.416   1_554 S
C60    N69     1.377   .     A
C60    C91     1.437   .     S
C60    C476    1.416   .     S
C61    H67     1.083   .     S
C61    N69     1.360   .     A
C61    C473    1.416   .     S
C62    N70     1.360   .     A
C62    H68     1.083   .     S
C62    C888    1.416   1_554 S
Cu63   O75     1.973   .     S
Cu63   O71     1.973   .     S
Cu63   N69     2.016   .     S
Cu63   Cu64    2.682   .     S
Cu63   O78     1.979   .     S
Cu63   O74     1.972   .     S
Cu64   O76     1.973   .     S
Cu64   O72     1.973   .     S
Cu64   N70     2.016   .     S
Cu64   O77     1.979   .     S
Cu64   O73     1.972   .     S
C79    O81     1.222   .     D
C79    C97     1.490   .     S
C79    H126    1.085   .     S
C82    O84     1.222   .     D
H83    C128    1.085   .     S
C85    N86     1.158   .     T
C87    N88     1.158   .     T
C89    N90     1.157   .     T
C91    N92     1.157   .     T
C93    O119    1.298   .     A
C93    O117    1.289   .     A
C93    C104    1.457   .     S
C94    C103    1.457   .     S
C94    O120    1.298   .     A
C94    O118    1.289   .     A
C95    O123    1.296   .     A
C95    O121    1.283   .     A
C95    C97     1.443   .     S
C96    O124    1.296   .     A
C96    C98     1.443   .     S
C96    O122    1.283   .     A
C98    C5      1.367   1_655 S
C98    C36     1.490   1_655 S
C99    H111    1.083   .     S
C99    C104    1.399   .     A
C99    C377    1.385   1_545 S
C100   H112    1.083   .     S
C100   C103    1.399   .     A
C100   C240    1.385   .     S
C101   C103    1.414   .     A
C101   C131    1.447   .     S
C101   C237    1.385   .     S
C102   C133    1.447   .     S
C102   C104    1.414   .     A
C102   C376    1.385   1_545 S
C105   C135    1.437   .     S
C105   N116    1.377   .     A
C105   C935    1.416   1_554 S
C106   N115    1.377   .     A
C106   C137    1.437   .     S
C106   C522    1.416   .     S
C107   H113    1.083   .     S
C107   N115    1.360   .     A
C107   C519    1.416   .     S
C108   N116    1.360   .     A
C108   H114    1.083   .     S
C108   C934    1.416   1_554 S
Cu109  O121    1.973   .     S
Cu109  O117    1.973   .     S
Cu109  N115    2.016   .     S
Cu109  Cu110   2.682   .     S
Cu109  O124    1.979   .     S
Cu109  O120    1.972   .     S
Cu110  O122    1.973   .     S
Cu110  O118    1.973   .     S
Cu110  N116    2.016   .     S
Cu110  O123    1.979   .     S
Cu110  O119    1.972   .     S
C125   O127    1.222   .     D
C125   C5      1.490   1_655 S
C125   H34     1.085   1_655 S
C128   O130    1.222   .     D
H129   C36     1.085   1_655 S
C131   N132    1.158   .     T
C133   N134    1.158   .     T
C135   N136    1.157   .     T
C137   N138    1.157   .     T
C139   O165    1.298   .     A
C139   O163    1.289   .     A
C139   C150    1.457   .     S
C140   C149    1.457   .     S
C140   O166    1.298   .     A
C140   O164    1.289   .     A
C141   O169    1.296   .     A
C141   O167    1.283   .     A
C141   C143    1.443   .     S
C142   O170    1.296   .     A
C142   C144    1.443   .     S
C142   O168    1.283   .     A
C143   C236    1.367   1_455 S
C143   C263    1.490   1_455 S
C144   C189    1.367   .     S
C144   C220    1.490   .     S
C145   H157    1.083   .     S
C145   C150    1.399   .     A
C146   H158    1.083   .     S
C146   C149    1.399   .     A
C146   C286    1.385   .     S
C147   C149    1.414   .     A
C147   C177    1.447   .     S
C147   C283    1.385   .     S
C148   C179    1.447   .     S
C148   C150    1.414   .     A
C151   C181    1.437   .     S
C151   N162    1.377   .     A
C151   C981    1.416   1_554 S
C152   N161    1.377   .     A
C152   C183    1.437   .     S
C152   C568    1.416   .     S
C153   H159    1.083   .     S
C153   N161    1.360   .     A
C153   C565    1.416   .     S
C154   N162    1.360   .     A
C154   H160    1.083   .     S
C154   C980    1.416   1_554 S
Cu155  O167    1.973   .     S
Cu155  O163    1.973   .     S
Cu155  N161    2.016   .     S
Cu155  Cu156   2.682   .     S
Cu155  O170    1.979   .     S
Cu155  O166    1.972   .     S
Cu156  O168    1.973   .     S
Cu156  O164    1.973   .     S
Cu156  N162    2.016   .     S
Cu156  O169    1.979   .     S
Cu156  O165    1.972   .     S
C171   O173    1.222   .     D
C171   C189    1.490   .     S
C171   H218    1.085   .     S
H172   C263    1.085   1_455 S
C174   O176    1.222   .     D
C174   C236    1.490   1_455 S
C174   H267    1.085   1_455 S
H175   C220    1.085   .     S
C177   N178    1.158   .     T
C179   N180    1.158   .     T
C181   N182    1.157   .     T
C183   N184    1.157   .     T
C185   O211    1.298   .     A
C185   O209    1.289   .     A
C185   C196    1.457   .     S
C186   C195    1.457   .     S
C186   O212    1.298   .     A
C186   O210    1.289   .     A
C187   O215    1.296   .     A
C187   O213    1.283   .     A
C187   C189    1.443   .     S
C188   O216    1.296   .     A
C188   C190    1.443   .     S
C188   O214    1.283   .     A
C190   C235    1.367   .     S
C190   C266    1.490   .     S
C191   H203    1.083   .     S
C191   C196    1.399   .     A
C192   H204    1.083   .     S
C192   C195    1.399   .     A
C192   C332    1.385   .     S
C193   C195    1.414   .     A
C193   C223    1.447   .     S
C193   C329    1.385   .     S
C194   C225    1.447   .     S
C194   C196    1.414   .     A
C197   C227    1.437   .     S
C197   N208    1.377   .     A
C197   C1027   1.416   1_554 S
C198   N207    1.377   .     A
C198   C229    1.437   .     S
C198   C614    1.416   .     S
C199   H205    1.083   .     S
C199   N207    1.360   .     A
C199   C611    1.416   .     S
C200   N208    1.360   .     A
C200   H206    1.083   .     S
C200   C1026   1.416   1_554 S
Cu201  O213    1.973   .     S
Cu201  O209    1.973   .     S
Cu201  N207    2.016   .     S
Cu201  Cu202   2.682   .     S
Cu201  O216    1.979   .     S
Cu201  O212    1.972   .     S
Cu202  O214    1.973   .     S
Cu202  O210    1.973   .     S
Cu202  N208    2.016   .     S
Cu202  O215    1.979   .     S
Cu202  O211    1.972   .     S
C217   O219    1.222   .     D
C217   C235    1.490   .     S
C217   H264    1.085   .     S
C220   O222    1.222   .     D
H221   C266    1.085   .     S
C223   N224    1.158   .     T
C225   N226    1.158   .     T
C227   N228    1.157   .     T
C229   N230    1.157   .     T
C231   O257    1.298   .     A
C231   O255    1.289   .     A
C231   C242    1.457   .     S
C232   C241    1.457   .     S
C232   O258    1.298   .     A
C232   O256    1.289   .     A
C233   O261    1.296   .     A
C233   O259    1.283   .     A
C233   C235    1.443   .     S
C234   O262    1.296   .     A
C234   C236    1.443   .     S
C234   O260    1.283   .     A
C236   C143    1.367   1_655 S
C236   C174    1.490   1_655 S
C237   H249    1.083   .     S
C237   C242    1.399   .     A
C238   H250    1.083   .     S
C238   C241    1.399   .     A
C238   C378    1.385   .     S
C239   C241    1.414   .     A
C239   C269    1.447   .     S
C239   C375    1.385   .     S
C240   C271    1.447   .     S
C240   C242    1.414   .     A
C243   C273    1.437   .     S
C243   N254    1.377   .     A
C243   C1073   1.416   1_554 S
C244   N253    1.377   .     A
C244   C275    1.437   .     S
C244   C660    1.416   .     S
C245   H251    1.083   .     S
C245   N253    1.360   .     A
C245   C657    1.416   .     S
C246   N254    1.360   .     A
C246   H252    1.083   .     S
C246   C1072   1.416   1_554 S
Cu247  O259    1.973   .     S
Cu247  O255    1.973   .     S
Cu247  N253    2.016   .     S
Cu247  Cu248   2.682   .     S
Cu247  O262    1.979   .     S
Cu247  O258    1.972   .     S
Cu248  O260    1.973   .     S
Cu248  O256    1.973   .     S
Cu248  N254    2.016   .     S
Cu248  O261    1.979   .     S
Cu248  O257    1.972   .     S
C263   O265    1.222   .     D
C263   C143    1.490   1_655 S
C263   H172    1.085   1_655 S
C266   O268    1.222   .     D
H267   C174    1.085   1_655 S
C269   N270    1.158   .     T
C271   N272    1.158   .     T
C273   N274    1.157   .     T
C275   N276    1.157   .     T
C277   O303    1.298   .     A
C277   O301    1.289   .     A
C277   C288    1.457   .     S
C278   C287    1.457   .     S
C278   O304    1.298   .     A
C278   O302    1.289   .     A
C279   O307    1.296   .     A
C279   O305    1.283   .     A
C279   C281    1.443   .     S
C280   O308    1.296   .     A
C280   C282    1.443   .     S
C280   O306    1.283   .     A
C281   C374    1.367   1_455 S
C281   C401    1.490   1_455 S
C282   C327    1.367   .     S
C282   C358    1.490   .     S
C283   H295    1.083   .     S
C283   C288    1.399   .     A
C284   H296    1.083   .     S
C284   C287    1.399   .     A
C284   C10     1.385   1_565 S
C285   C287    1.414   .     A
C285   C315    1.447   .     S
C285   C7      1.385   1_565 S
C286   C317    1.447   .     S
C286   C288    1.414   .     A
C289   C319    1.437   .     S
C289   N300    1.377   .     A
C289   C1119   1.416   1_554 S
C290   N299    1.377   .     A
C290   C321    1.437   .     S
C290   C706    1.416   .     S
C291   H297    1.083   .     S
C291   N299    1.360   .     A
C291   C703    1.416   .     S
C292   N300    1.360   .     A
C292   H298    1.083   .     S
C292   C1118   1.416   1_554 S
Cu293  O305    1.973   .     S
Cu293  O301    1.973   .     S
Cu293  N299    2.016   .     S
Cu293  Cu294   2.682   .     S
Cu293  O308    1.979   .     S
Cu293  O304    1.972   .     S
Cu294  O306    1.973   .     S
Cu294  O302    1.973   .     S
Cu294  N300    2.016   .     S
Cu294  O307    1.979   .     S
Cu294  O303    1.972   .     S
C309   O311    1.222   .     D
C309   C327    1.490   .     S
C309   H356    1.085   .     S
H310   C401    1.085   1_455 S
C312   O314    1.222   .     D
C312   C374    1.490   1_455 S
C312   H405    1.085   1_455 S
H313   C358    1.085   .     S
C315   N316    1.158   .     T
C317   N318    1.158   .     T
C319   N320    1.157   .     T
C321   N322    1.157   .     T
C323   O349    1.298   .     A
C323   O347    1.289   .     A
C323   C334    1.457   .     S
C324   C333    1.457   .     S
C324   O350    1.298   .     A
C324   O348    1.289   .     A
C325   O353    1.296   .     A
C325   O351    1.283   .     A
C325   C327    1.443   .     S
C326   O354    1.296   .     A
C326   C328    1.443   .     S
C326   O352    1.283   .     A
C328   C373    1.367   .     S
C328   C404    1.490   .     S
C329   H341    1.083   .     S
C329   C334    1.399   .     A
C330   H342    1.083   .     S
C330   C333    1.399   .     A
C330   C56     1.385   1_565 S
C331   C333    1.414   .     A
C331   C361    1.447   .     S
C331   C53     1.385   1_565 S
C332   C363    1.447   .     S
C332   C334    1.414   .     A
C335   C365    1.437   .     S
C335   N346    1.377   .     A
C335   C1165   1.416   1_554 S
C336   N345    1.377   .     A
C336   C367    1.437   .     S
C336   C752    1.416   .     S
C337   H343    1.083   .     S
C337   N345    1.360   .     A
C337   C749    1.416   .     S
C338   N346    1.360   .     A
C338   H344    1.083   .     S
C338   C1164   1.416   1_554 S
Cu339  O351    1.973   .     S
Cu339  O347    1.973   .     S
Cu339  N345    2.016   .     S
Cu339  Cu340   2.682   .     S
Cu339  O354    1.979   .     S
Cu339  O350    1.972   .     S
Cu340  O352    1.973   .     S
Cu340  O348    1.973   .     S
Cu340  N346    2.016   .     S
Cu340  O353    1.979   .     S
Cu340  O349    1.972   .     S
C355   O357    1.222   .     D
C355   C373    1.490   .     S
C355   H402    1.085   .     S
C358   O360    1.222   .     D
H359   C404    1.085   .     S
C361   N362    1.158   .     T
C363   N364    1.158   .     T
C365   N366    1.157   .     T
C367   N368    1.157   .     T
C369   O395    1.298   .     A
C369   O393    1.289   .     A
C369   C380    1.457   .     S
C370   C379    1.457   .     S
C370   O396    1.298   .     A
C370   O394    1.289   .     A
C371   O399    1.296   .     A
C371   O397    1.283   .     A
C371   C373    1.443   .     S
C372   O400    1.296   .     A
C372   C374    1.443   .     S
C372   O398    1.283   .     A
C374   C281    1.367   1_655 S
C374   C312    1.490   1_655 S
C375   H387    1.083   .     S
C375   C380    1.399   .     A
C376   H388    1.083   .     S
C376   C379    1.399   .     A
C376   C102    1.385   1_565 S
C377   C379    1.414   .     A
C377   C407    1.447   .     S
C377   C99     1.385   1_565 S
C378   C409    1.447   .     S
C378   C380    1.414   .     A
C381   C411    1.437   .     S
C381   N392    1.377   .     A
C381   C1211   1.416   1_554 S
C382   N391    1.377   .     A
C382   C413    1.437   .     S
C382   C798    1.416   .     S
C383   H389    1.083   .     S
C383   N391    1.360   .     A
C383   C795    1.416   .     S
C384   N392    1.360   .     A
C384   H390    1.083   .     S
C384   C1210   1.416   1_554 S
Cu385  O397    1.973   .     S
Cu385  O393    1.973   .     S
Cu385  N391    2.016   .     S
Cu385  Cu386   2.682   .     S
Cu385  O400    1.979   .     S
Cu385  O396    1.972   .     S
Cu386  O398    1.973   .     S
Cu386  O394    1.973   .     S
Cu386  N392    2.016   .     S
Cu386  O399    1.979   .     S
Cu386  O395    1.972   .     S
C401   O403    1.222   .     D
C401   C281    1.490   1_655 S
C401   H310    1.085   1_655 S
C404   O406    1.222   .     D
H405   C312    1.085   1_655 S
C407   N408    1.158   .     T
C409   N410    1.158   .     T
C411   N412    1.157   .     T
C413   N414    1.157   .     T
C415   O441    1.298   .     A
C415   O439    1.289   .     A
C415   C426    1.457   .     S
C416   C425    1.457   .     S
C416   O442    1.298   .     A
C416   O440    1.289   .     A
C417   O445    1.296   .     A
C417   O443    1.283   .     A
C417   C419    1.443   .     S
C418   O446    1.296   .     A
C418   C420    1.443   .     S
C418   O444    1.283   .     A
C419   C512    1.367   1_455 S
C419   C539    1.490   1_455 S
C420   C465    1.367   .     S
C420   C496    1.490   .     S
C421   H433    1.083   .     S
C421   C426    1.399   .     A
C421   C699    1.385   1_545 S
C422   H434    1.083   .     S
C422   C425    1.399   .     A
C422   C562    1.385   .     S
C423   C425    1.414   .     A
C423   C453    1.447   .     S
C423   C559    1.385   .     S
C424   C455    1.447   .     S
C424   C426    1.414   .     A
C424   C698    1.385   1_545 S
C427   C457    1.437   .     S
C427   N438    1.377   .     A
C428   N437    1.377   .     A
C428   C459    1.437   .     S
C428   C844    1.416   .     S
C429   H435    1.083   .     S
C429   N437    1.360   .     A
C429   C841    1.416   .     S
C430   N438    1.360   .     A
C430   H436    1.083   .     S
Cu431  O443    1.973   .     S
Cu431  O439    1.973   .     S
Cu431  N437    2.016   .     S
Cu431  Cu432   2.682   .     S
Cu431  O446    1.979   .     S
Cu431  O442    1.972   .     S
Cu432  O444    1.973   .     S
Cu432  O440    1.973   .     S
Cu432  N438    2.016   .     S
Cu432  O445    1.979   .     S
Cu432  O441    1.972   .     S
C447   O449    1.222   .     D
C447   C465    1.490   .     S
C447   H494    1.085   .     S
H448   C539    1.085   1_455 S
C450   O452    1.222   .     D
C450   C512    1.490   1_455 S
C450   H543    1.085   1_455 S
H451   C496    1.085   .     S
C453   N454    1.158   .     T
C455   N456    1.158   .     T
C457   N458    1.157   .     T
C459   N460    1.157   .     T
C461   O487    1.298   .     A
C461   O485    1.289   .     A
C461   C472    1.457   .     S
C462   C471    1.457   .     S
C462   O488    1.298   .     A
C462   O486    1.289   .     A
C463   O491    1.296   .     A
C463   O489    1.283   .     A
C463   C465    1.443   .     S
C464   O492    1.296   .     A
C464   C466    1.443   .     S
C464   O490    1.283   .     A
C466   C511    1.367   .     S
C466   C542    1.490   .     S
C467   H479    1.083   .     S
C467   C472    1.399   .     A
C467   C745    1.385   1_545 S
C468   H480    1.083   .     S
C468   C471    1.399   .     A
C468   C608    1.385   .     S
C469   C471    1.414   .     A
C469   C499    1.447   .     S
C469   C605    1.385   .     S
C470   C501    1.447   .     S
C470   C472    1.414   .     A
C470   C744    1.385   1_545 S
C473   C503    1.437   .     S
C473   N484    1.377   .     A
C474   N483    1.377   .     A
C474   C505    1.437   .     S
C474   C890    1.416   .     S
C475   H481    1.083   .     S
C475   N483    1.360   .     A
C475   C887    1.416   .     S
C476   N484    1.360   .     A
C476   H482    1.083   .     S
Cu477  O489    1.973   .     S
Cu477  O485    1.973   .     S
Cu477  N483    2.016   .     S
Cu477  Cu478   2.682   .     S
Cu477  O492    1.979   .     S
Cu477  O488    1.972   .     S
Cu478  O490    1.973   .     S
Cu478  O486    1.973   .     S
Cu478  N484    2.016   .     S
Cu478  O491    1.979   .     S
Cu478  O487    1.972   .     S
C493   O495    1.222   .     D
C493   C511    1.490   .     S
C493   H540    1.085   .     S
C496   O498    1.222   .     D
H497   C542    1.085   .     S
C499   N500    1.158   .     T
C501   N502    1.158   .     T
C503   N504    1.157   .     T
C505   N506    1.157   .     T
C507   O533    1.298   .     A
C507   O531    1.289   .     A
C507   C518    1.457   .     S
C508   C517    1.457   .     S
C508   O534    1.298   .     A
C508   O532    1.289   .     A
C509   O537    1.296   .     A
C509   O535    1.283   .     A
C509   C511    1.443   .     S
C510   O538    1.296   .     A
C510   C512    1.443   .     S
C510   O536    1.283   .     A
C512   C419    1.367   1_655 S
C512   C450    1.490   1_655 S
C513   H525    1.083   .     S
C513   C518    1.399   .     A
C513   C791    1.385   1_545 S
C514   H526    1.083   .     S
C514   C517    1.399   .     A
C514   C654    1.385   .     S
C515   C517    1.414   .     A
C515   C545    1.447   .     S
C515   C651    1.385   .     S
C516   C547    1.447   .     S
C516   C518    1.414   .     A
C516   C790    1.385   1_545 S
C519   C549    1.437   .     S
C519   N530    1.377   .     A
C520   N529    1.377   .     A
C520   C551    1.437   .     S
C520   C936    1.416   .     S
C521   H527    1.083   .     S
C521   N529    1.360   .     A
C521   C933    1.416   .     S
C522   N530    1.360   .     A
C522   H528    1.083   .     S
Cu523  O535    1.973   .     S
Cu523  O531    1.973   .     S
Cu523  N529    2.016   .     S
Cu523  Cu524   2.682   .     S
Cu523  O538    1.979   .     S
Cu523  O534    1.972   .     S
Cu524  O536    1.973   .     S
Cu524  O532    1.973   .     S
Cu524  N530    2.016   .     S
Cu524  O537    1.979   .     S
Cu524  O533    1.972   .     S
C539   O541    1.222   .     D
C539   C419    1.490   1_655 S
C539   H448    1.085   1_655 S
C542   O544    1.222   .     D
H543   C450    1.085   1_655 S
C545   N546    1.158   .     T
C547   N548    1.158   .     T
C549   N550    1.157   .     T
C551   N552    1.157   .     T
C553   O579    1.298   .     A
C553   O577    1.289   .     A
C553   C564    1.457   .     S
C554   C563    1.457   .     S
C554   O580    1.298   .     A
C554   O578    1.289   .     A
C555   O583    1.296   .     A
C555   O581    1.283   .     A
C555   C557    1.443   .     S
C556   O584    1.296   .     A
C556   C558    1.443   .     S
C556   O582    1.283   .     A
C557   C650    1.367   1_455 S
C557   C677    1.490   1_455 S
C558   C603    1.367   .     S
C558   C634    1.490   .     S
C559   H571    1.083   .     S
C559   C564    1.399   .     A
C560   H572    1.083   .     S
C560   C563    1.399   .     A
C560   C700    1.385   .     S
C561   C563    1.414   .     A
C561   C591    1.447   .     S
C561   C697    1.385   .     S
C562   C593    1.447   .     S
C562   C564    1.414   .     A
C565   C595    1.437   .     S
C565   N576    1.377   .     A
C566   N575    1.377   .     A
C566   C597    1.437   .     S
C566   C982    1.416   .     S
C567   H573    1.083   .     S
C567   N575    1.360   .     A
C567   C979    1.416   .     S
C568   N576    1.360   .     A
C568   H574    1.083   .     S
Cu569  O581    1.973   .     S
Cu569  O577    1.973   .     S
Cu569  N575    2.016   .     S
Cu569  Cu570   2.682   .     S
Cu569  O584    1.979   .     S
Cu569  O580    1.972   .     S
Cu570  O582    1.973   .     S
Cu570  O578    1.973   .     S
Cu570  N576    2.016   .     S
Cu570  O583    1.979   .     S
Cu570  O579    1.972   .     S
C585   O587    1.222   .     D
C585   C603    1.490   .     S
C585   H632    1.085   .     S
H586   C677    1.085   1_455 S
C588   O590    1.222   .     D
C588   C650    1.490   1_455 S
C588   H681    1.085   1_455 S
H589   C634    1.085   .     S
C591   N592    1.158   .     T
C593   N594    1.158   .     T
C595   N596    1.157   .     T
C597   N598    1.157   .     T
C599   O625    1.298   .     A
C599   O623    1.289   .     A
C599   C610    1.457   .     S
C600   C609    1.457   .     S
C600   O626    1.298   .     A
C600   O624    1.289   .     A
C601   O629    1.296   .     A
C601   O627    1.283   .     A
C601   C603    1.443   .     S
C602   O630    1.296   .     A
C602   C604    1.443   .     S
C602   O628    1.283   .     A
C604   C649    1.367   .     S
C604   C680    1.490   .     S
C605   H617    1.083   .     S
C605   C610    1.399   .     A
C606   H618    1.083   .     S
C606   C609    1.399   .     A
C606   C746    1.385   .     S
C607   C609    1.414   .     A
C607   C637    1.447   .     S
C607   C743    1.385   .     S
C608   C639    1.447   .     S
C608   C610    1.414   .     A
C611   C641    1.437   .     S
C611   N622    1.377   .     A
C612   N621    1.377   .     A
C612   C643    1.437   .     S
C612   C1028   1.416   .     S
C613   H619    1.083   .     S
C613   N621    1.360   .     A
C613   C1025   1.416   .     S
C614   N622    1.360   .     A
C614   H620    1.083   .     S
Cu615  O627    1.973   .     S
Cu615  O623    1.973   .     S
Cu615  N621    2.016   .     S
Cu615  Cu616   2.682   .     S
Cu615  O630    1.979   .     S
Cu615  O626    1.972   .     S
Cu616  O628    1.973   .     S
Cu616  O624    1.973   .     S
Cu616  N622    2.016   .     S
Cu616  O629    1.979   .     S
Cu616  O625    1.972   .     S
C631   O633    1.222   .     D
C631   C649    1.490   .     S
C631   H678    1.085   .     S
C634   O636    1.222   .     D
H635   C680    1.085   .     S
C637   N638    1.158   .     T
C639   N640    1.158   .     T
C641   N642    1.157   .     T
C643   N644    1.157   .     T
C645   O671    1.298   .     A
C645   O669    1.289   .     A
C645   C656    1.457   .     S
C646   C655    1.457   .     S
C646   O672    1.298   .     A
C646   O670    1.289   .     A
C647   O675    1.296   .     A
C647   O673    1.283   .     A
C647   C649    1.443   .     S
C648   O676    1.296   .     A
C648   C650    1.443   .     S
C648   O674    1.283   .     A
C650   C557    1.367   1_655 S
C650   C588    1.490   1_655 S
C651   H663    1.083   .     S
C651   C656    1.399   .     A
C652   H664    1.083   .     S
C652   C655    1.399   .     A
C652   C792    1.385   .     S
C653   C655    1.414   .     A
C653   C683    1.447   .     S
C653   C789    1.385   .     S
C654   C685    1.447   .     S
C654   C656    1.414   .     A
C657   C687    1.437   .     S
C657   N668    1.377   .     A
C658   N667    1.377   .     A
C658   C689    1.437   .     S
C658   C1074   1.416   .     S
C659   H665    1.083   .     S
C659   N667    1.360   .     A
C659   C1071   1.416   .     S
C660   N668    1.360   .     A
C660   H666    1.083   .     S
Cu661  O673    1.973   .     S
Cu661  O669    1.973   .     S
Cu661  N667    2.016   .     S
Cu661  Cu662   2.682   .     S
Cu661  O676    1.979   .     S
Cu661  O672    1.972   .     S
Cu662  O674    1.973   .     S
Cu662  O670    1.973   .     S
Cu662  N668    2.016   .     S
Cu662  O675    1.979   .     S
Cu662  O671    1.972   .     S
C677   O679    1.222   .     D
C677   C557    1.490   1_655 S
C677   H586    1.085   1_655 S
C680   O682    1.222   .     D
H681   C588    1.085   1_655 S
C683   N684    1.158   .     T
C685   N686    1.158   .     T
C687   N688    1.157   .     T
C689   N690    1.157   .     T
C691   O717    1.298   .     A
C691   O715    1.289   .     A
C691   C702    1.457   .     S
C692   C701    1.457   .     S
C692   O718    1.298   .     A
C692   O716    1.289   .     A
C693   O721    1.296   .     A
C693   O719    1.283   .     A
C693   C695    1.443   .     S
C694   O722    1.296   .     A
C694   C696    1.443   .     S
C694   O720    1.283   .     A
C695   C788    1.367   1_455 S
C695   C815    1.490   1_455 S
C696   C741    1.367   .     S
C696   C772    1.490   .     S
C697   H709    1.083   .     S
C697   C702    1.399   .     A
C698   H710    1.083   .     S
C698   C701    1.399   .     A
C698   C424    1.385   1_565 S
C699   C701    1.414   .     A
C699   C729    1.447   .     S
C699   C421    1.385   1_565 S
C700   C731    1.447   .     S
C700   C702    1.414   .     A
C703   C733    1.437   .     S
C703   N714    1.377   .     A
C704   N713    1.377   .     A
C704   C735    1.437   .     S
C704   C1120   1.416   .     S
C705   H711    1.083   .     S
C705   N713    1.360   .     A
C705   C1117   1.416   .     S
C706   N714    1.360   .     A
C706   H712    1.083   .     S
Cu707  O719    1.973   .     S
Cu707  O715    1.973   .     S
Cu707  N713    2.016   .     S
Cu707  Cu708   2.682   .     S
Cu707  O722    1.979   .     S
Cu707  O718    1.972   .     S
Cu708  O720    1.973   .     S
Cu708  O716    1.973   .     S
Cu708  N714    2.016   .     S
Cu708  O721    1.979   .     S
Cu708  O717    1.972   .     S
C723   O725    1.222   .     D
C723   C741    1.490   .     S
C723   H770    1.085   .     S
H724   C815    1.085   1_455 S
C726   O728    1.222   .     D
C726   C788    1.490   1_455 S
C726   H819    1.085   1_455 S
H727   C772    1.085   .     S
C729   N730    1.158   .     T
C731   N732    1.158   .     T
C733   N734    1.157   .     T
C735   N736    1.157   .     T
C737   O763    1.298   .     A
C737   O761    1.289   .     A
C737   C748    1.457   .     S
C738   C747    1.457   .     S
C738   O764    1.298   .     A
C738   O762    1.289   .     A
C739   O767    1.296   .     A
C739   O765    1.283   .     A
C739   C741    1.443   .     S
C740   O768    1.296   .     A
C740   C742    1.443   .     S
C740   O766    1.283   .     A
C742   C787    1.367   .     S
C742   C818    1.490   .     S
C743   H755    1.083   .     S
C743   C748    1.399   .     A
C744   H756    1.083   .     S
C744   C747    1.399   .     A
C744   C470    1.385   1_565 S
C745   C747    1.414   .     A
C745   C775    1.447   .     S
C745   C467    1.385   1_565 S
C746   C777    1.447   .     S
C746   C748    1.414   .     A
C749   C779    1.437   .     S
C749   N760    1.377   .     A
C750   N759    1.377   .     A
C750   C781    1.437   .     S
C750   C1166   1.416   .     S
C751   H757    1.083   .     S
C751   N759    1.360   .     A
C751   C1163   1.416   .     S
C752   N760    1.360   .     A
C752   H758    1.083   .     S
Cu753  O765    1.973   .     S
Cu753  O761    1.973   .     S
Cu753  N759    2.016   .     S
Cu753  Cu754   2.682   .     S
Cu753  O768    1.979   .     S
Cu753  O764    1.972   .     S
Cu754  O766    1.973   .     S
Cu754  O762    1.973   .     S
Cu754  N760    2.016   .     S
Cu754  O767    1.979   .     S
Cu754  O763    1.972   .     S
C769   O771    1.222   .     D
C769   C787    1.490   .     S
C769   H816    1.085   .     S
C772   O774    1.222   .     D
H773   C818    1.085   .     S
C775   N776    1.158   .     T
C777   N778    1.158   .     T
C779   N780    1.157   .     T
C781   N782    1.157   .     T
C783   O809    1.298   .     A
C783   O807    1.289   .     A
C783   C794    1.457   .     S
C784   C793    1.457   .     S
C784   O810    1.298   .     A
C784   O808    1.289   .     A
C785   O813    1.296   .     A
C785   O811    1.283   .     A
C785   C787    1.443   .     S
C786   O814    1.296   .     A
C786   C788    1.443   .     S
C786   O812    1.283   .     A
C788   C695    1.367   1_655 S
C788   C726    1.490   1_655 S
C789   H801    1.083   .     S
C789   C794    1.399   .     A
C790   H802    1.083   .     S
C790   C793    1.399   .     A
C790   C516    1.385   1_565 S
C791   C793    1.414   .     A
C791   C821    1.447   .     S
C791   C513    1.385   1_565 S
C792   C823    1.447   .     S
C792   C794    1.414   .     A
C795   C825    1.437   .     S
C795   N806    1.377   .     A
C796   N805    1.377   .     A
C796   C827    1.437   .     S
C796   C1212   1.416   .     S
C797   H803    1.083   .     S
C797   N805    1.360   .     A
C797   C1209   1.416   .     S
C798   N806    1.360   .     A
C798   H804    1.083   .     S
Cu799  O811    1.973   .     S
Cu799  O807    1.973   .     S
Cu799  N805    2.016   .     S
Cu799  Cu800   2.682   .     S
Cu799  O814    1.979   .     S
Cu799  O810    1.972   .     S
Cu800  O812    1.973   .     S
Cu800  O808    1.973   .     S
Cu800  N806    2.016   .     S
Cu800  O813    1.979   .     S
Cu800  O809    1.972   .     S
C815   O817    1.222   .     D
C815   C695    1.490   1_655 S
C815   H724    1.085   1_655 S
C818   O820    1.222   .     D
H819   C726    1.085   1_655 S
C821   N822    1.158   .     T
C823   N824    1.158   .     T
C825   N826    1.157   .     T
C827   N828    1.157   .     T
C829   O855    1.298   .     A
C829   O853    1.289   .     A
C829   C840    1.457   .     S
C830   C839    1.457   .     S
C830   O856    1.298   .     A
C830   O854    1.289   .     A
C831   O859    1.296   .     A
C831   O857    1.283   .     A
C831   C833    1.443   .     S
C832   O860    1.296   .     A
C832   C834    1.443   .     S
C832   O858    1.283   .     A
C833   C926    1.367   1_455 S
C833   C953    1.490   1_455 S
C834   C879    1.367   .     S
C834   C910    1.490   .     S
C835   H847    1.083   .     S
C835   C840    1.399   .     A
C835   C1113   1.385   1_545 S
C836   H848    1.083   .     S
C836   C839    1.399   .     A
C836   C976    1.385   .     S
C837   C839    1.414   .     A
C837   C867    1.447   .     S
C837   C973    1.385   .     S
C838   C869    1.447   .     S
C838   C840    1.414   .     A
C838   C1112   1.385   1_545 S
C841   C871    1.437   .     S
C841   N852    1.377   .     A
C842   N851    1.377   .     A
C842   C873    1.437   .     S
C842   C16     1.416   1_556 S
C843   H849    1.083   .     S
C843   N851    1.360   .     A
C843   C13     1.416   1_556 S
C844   N852    1.360   .     A
C844   H850    1.083   .     S
Cu845  O857    1.973   .     S
Cu845  O853    1.973   .     S
Cu845  N851    2.016   .     S
Cu845  Cu846   2.682   .     S
Cu845  O860    1.979   .     S
Cu845  O856    1.972   .     S
Cu846  O858    1.973   .     S
Cu846  O854    1.973   .     S
Cu846  N852    2.016   .     S
Cu846  O859    1.979   .     S
Cu846  O855    1.972   .     S
C861   O863    1.222   .     D
C861   C879    1.490   .     S
C861   H908    1.085   .     S
H862   C953    1.085   1_455 S
C864   O866    1.222   .     D
C864   C926    1.490   1_455 S
C864   H957    1.085   1_455 S
H865   C910    1.085   .     S
C867   N868    1.158   .     T
C869   N870    1.158   .     T
C871   N872    1.157   .     T
C873   N874    1.157   .     T
C875   O901    1.298   .     A
C875   O899    1.289   .     A
C875   C886    1.457   .     S
C876   C885    1.457   .     S
C876   O902    1.298   .     A
C876   O900    1.289   .     A
C877   O905    1.296   .     A
C877   O903    1.283   .     A
C877   C879    1.443   .     S
C878   O906    1.296   .     A
C878   C880    1.443   .     S
C878   O904    1.283   .     A
C880   C925    1.367   .     S
C880   C956    1.490   .     S
C881   H893    1.083   .     S
C881   C886    1.399   .     A
C881   C1159   1.385   1_545 S
C882   H894    1.083   .     S
C882   C885    1.399   .     A
C882   C1022   1.385   .     S
C883   C885    1.414   .     A
C883   C913    1.447   .     S
C883   C1019   1.385   .     S
C884   C915    1.447   .     S
C884   C886    1.414   .     A
C884   C1158   1.385   1_545 S
C887   C917    1.437   .     S
C887   N898    1.377   .     A
C888   N897    1.377   .     A
C888   C919    1.437   .     S
C888   C62     1.416   1_556 S
C889   H895    1.083   .     S
C889   N897    1.360   .     A
C889   C59     1.416   1_556 S
C890   N898    1.360   .     A
C890   H896    1.083   .     S
Cu891  O903    1.973   .     S
Cu891  O899    1.973   .     S
Cu891  N897    2.016   .     S
Cu891  Cu892   2.682   .     S
Cu891  O906    1.979   .     S
Cu891  O902    1.972   .     S
Cu892  O904    1.973   .     S
Cu892  O900    1.973   .     S
Cu892  N898    2.016   .     S
Cu892  O905    1.979   .     S
Cu892  O901    1.972   .     S
C907   O909    1.222   .     D
C907   C925    1.490   .     S
C907   H954    1.085   .     S
C910   O912    1.222   .     D
H911   C956    1.085   .     S
C913   N914    1.158   .     T
C915   N916    1.158   .     T
C917   N918    1.157   .     T
C919   N920    1.157   .     T
C921   O947    1.298   .     A
C921   O945    1.289   .     A
C921   C932    1.457   .     S
C922   C931    1.457   .     S
C922   O948    1.298   .     A
C922   O946    1.289   .     A
C923   O951    1.296   .     A
C923   O949    1.283   .     A
C923   C925    1.443   .     S
C924   O952    1.296   .     A
C924   C926    1.443   .     S
C924   O950    1.283   .     A
C926   C833    1.367   1_655 S
C926   C864    1.490   1_655 S
C927   H939    1.083   .     S
C927   C932    1.399   .     A
C927   C1205   1.385   1_545 S
C928   H940    1.083   .     S
C928   C931    1.399   .     A
C928   C1068   1.385   .     S
C929   C931    1.414   .     A
C929   C959    1.447   .     S
C929   C1065   1.385   .     S
C930   C961    1.447   .     S
C930   C932    1.414   .     A
C930   C1204   1.385   1_545 S
C933   C963    1.437   .     S
C933   N944    1.377   .     A
C934   N943    1.377   .     A
C934   C965    1.437   .     S
C934   C108    1.416   1_556 S
C935   H941    1.083   .     S
C935   N943    1.360   .     A
C935   C105    1.416   1_556 S
C936   N944    1.360   .     A
C936   H942    1.083   .     S
Cu937  O949    1.973   .     S
Cu937  O945    1.973   .     S
Cu937  N943    2.016   .     S
Cu937  Cu938   2.682   .     S
Cu937  O952    1.979   .     S
Cu937  O948    1.972   .     S
Cu938  O950    1.973   .     S
Cu938  O946    1.973   .     S
Cu938  N944    2.016   .     S
Cu938  O951    1.979   .     S
Cu938  O947    1.972   .     S
C953   O955    1.222   .     D
C953   C833    1.490   1_655 S
C953   H862    1.085   1_655 S
C956   O958    1.222   .     D
H957   C864    1.085   1_655 S
C959   N960    1.158   .     T
C961   N962    1.158   .     T
C963   N964    1.157   .     T
C965   N966    1.157   .     T
C967   O993    1.298   .     A
C967   O991    1.289   .     A
C967   C978    1.457   .     S
C968   C977    1.457   .     S
C968   O994    1.298   .     A
C968   O992    1.289   .     A
C969   O997    1.296   .     A
C969   O995    1.283   .     A
C969   C971    1.443   .     S
C970   O998    1.296   .     A
C970   C972    1.443   .     S
C970   O996    1.283   .     A
C971   C1064   1.367   1_455 S
C971   C1091   1.490   1_455 S
C972   C1017   1.367   .     S
C972   C1048   1.490   .     S
C973   H985    1.083   .     S
C973   C978    1.399   .     A
C974   H986    1.083   .     S
C974   C977    1.399   .     A
C974   C1114   1.385   .     S
C975   C977    1.414   .     A
C975   C1005   1.447   .     S
C975   C1111   1.385   .     S
C976   C1007   1.447   .     S
C976   C978    1.414   .     A
C979   C1009   1.437   .     S
C979   N990    1.377   .     A
C980   N989    1.377   .     A
C980   C1011   1.437   .     S
C980   C154    1.416   1_556 S
C981   H987    1.083   .     S
C981   N989    1.360   .     A
C981   C151    1.416   1_556 S
C982   N990    1.360   .     A
C982   H988    1.083   .     S
Cu983  O995    1.973   .     S
Cu983  O991    1.973   .     S
Cu983  N989    2.016   .     S
Cu983  Cu984   2.682   .     S
Cu983  O998    1.979   .     S
Cu983  O994    1.972   .     S
Cu984  O996    1.973   .     S
Cu984  O992    1.973   .     S
Cu984  N990    2.016   .     S
Cu984  O997    1.979   .     S
Cu984  O993    1.972   .     S
C999   O1001   1.222   .     D
C999   C1017   1.490   .     S
C999   H1046   1.085   .     S
H1000  C1091   1.085   1_455 S
C1002  O1004   1.222   .     D
C1002  C1064   1.490   1_455 S
C1002  H1095   1.085   1_455 S
H1003  C1048   1.085   .     S
C1005  N1006   1.158   .     T
C1007  N1008   1.158   .     T
C1009  N1010   1.157   .     T
C1011  N1012   1.157   .     T
C1013  O1039   1.298   .     A
C1013  O1037   1.289   .     A
C1013  C1024   1.457   .     S
C1014  C1023   1.457   .     S
C1014  O1040   1.298   .     A
C1014  O1038   1.289   .     A
C1015  O1043   1.296   .     A
C1015  O1041   1.283   .     A
C1015  C1017   1.443   .     S
C1016  O1044   1.296   .     A
C1016  C1018   1.443   .     S
C1016  O1042   1.283   .     A
C1018  C1063   1.367   .     S
C1018  C1094   1.490   .     S
C1019  H1031   1.083   .     S
C1019  C1024   1.399   .     A
C1020  H1032   1.083   .     S
C1020  C1023   1.399   .     A
C1020  C1160   1.385   .     S
C1021  C1023   1.414   .     A
C1021  C1051   1.447   .     S
C1021  C1157   1.385   .     S
C1022  C1053   1.447   .     S
C1022  C1024   1.414   .     A
C1025  C1055   1.437   .     S
C1025  N1036   1.377   .     A
C1026  N1035   1.377   .     A
C1026  C1057   1.437   .     S
C1026  C200    1.416   1_556 S
C1027  H1033   1.083   .     S
C1027  N1035   1.360   .     A
C1027  C197    1.416   1_556 S
C1028  N1036   1.360   .     A
C1028  H1034   1.083   .     S
Cu1029 O1041   1.973   .     S
Cu1029 O1037   1.973   .     S
Cu1029 N1035   2.016   .     S
Cu1029 Cu1030  2.682   .     S
Cu1029 O1044   1.979   .     S
Cu1029 O1040   1.972   .     S
Cu1030 O1042   1.973   .     S
Cu1030 O1038   1.973   .     S
Cu1030 N1036   2.016   .     S
Cu1030 O1043   1.979   .     S
Cu1030 O1039   1.972   .     S
C1045  O1047   1.222   .     D
C1045  C1063   1.490   .     S
C1045  H1092   1.085   .     S
C1048  O1050   1.222   .     D
H1049  C1094   1.085   .     S
C1051  N1052   1.158   .     T
C1053  N1054   1.158   .     T
C1055  N1056   1.157   .     T
C1057  N1058   1.157   .     T
C1059  O1085   1.298   .     A
C1059  O1083   1.289   .     A
C1059  C1070   1.457   .     S
C1060  C1069   1.457   .     S
C1060  O1086   1.298   .     A
C1060  O1084   1.289   .     A
C1061  O1089   1.296   .     A
C1061  O1087   1.283   .     A
C1061  C1063   1.443   .     S
C1062  O1090   1.296   .     A
C1062  C1064   1.443   .     S
C1062  O1088   1.283   .     A
C1064  C971    1.367   1_655 S
C1064  C1002   1.490   1_655 S
C1065  H1077   1.083   .     S
C1065  C1070   1.399   .     A
C1066  H1078   1.083   .     S
C1066  C1069   1.399   .     A
C1066  C1206   1.385   .     S
C1067  C1069   1.414   .     A
C1067  C1097   1.447   .     S
C1067  C1203   1.385   .     S
C1068  C1099   1.447   .     S
C1068  C1070   1.414   .     A
C1071  C1101   1.437   .     S
C1071  N1082   1.377   .     A
C1072  N1081   1.377   .     A
C1072  C1103   1.437   .     S
C1072  C246    1.416   1_556 S
C1073  H1079   1.083   .     S
C1073  N1081   1.360   .     A
C1073  C243    1.416   1_556 S
C1074  N1082   1.360   .     A
C1074  H1080   1.083   .     S
Cu1075 O1087   1.973   .     S
Cu1075 O1083   1.973   .     S
Cu1075 N1081   2.016   .     S
Cu1075 Cu1076  2.682   .     S
Cu1075 O1090   1.979   .     S
Cu1075 O1086   1.972   .     S
Cu1076 O1088   1.973   .     S
Cu1076 O1084   1.973   .     S
Cu1076 N1082   2.016   .     S
Cu1076 O1089   1.979   .     S
Cu1076 O1085   1.972   .     S
C1091  O1093   1.222   .     D
C1091  C971    1.490   1_655 S
C1091  H1000   1.085   1_655 S
C1094  O1096   1.222   .     D
H1095  C1002   1.085   1_655 S
C1097  N1098   1.158   .     T
C1099  N1100   1.158   .     T
C1101  N1102   1.157   .     T
C1103  N1104   1.157   .     T
C1105  O1131   1.298   .     A
C1105  O1129   1.289   .     A
C1105  C1116   1.457   .     S
C1106  C1115   1.457   .     S
C1106  O1132   1.298   .     A
C1106  O1130   1.289   .     A
C1107  O1135   1.296   .     A
C1107  O1133   1.283   .     A
C1107  C1109   1.443   .     S
C1108  O1136   1.296   .     A
C1108  C1110   1.443   .     S
C1108  O1134   1.283   .     A
C1109  C1202   1.367   1_455 S
C1109  C1229   1.490   1_455 S
C1110  C1155   1.367   .     S
C1110  C1186   1.490   .     S
C1111  H1123   1.083   .     S
C1111  C1116   1.399   .     A
C1112  H1124   1.083   .     S
C1112  C1115   1.399   .     A
C1112  C838    1.385   1_565 S
C1113  C1115   1.414   .     A
C1113  C1143   1.447   .     S
C1113  C835    1.385   1_565 S
C1114  C1145   1.447   .     S
C1114  C1116   1.414   .     A
C1117  C1147   1.437   .     S
C1117  N1128   1.377   .     A
C1118  N1127   1.377   .     A
C1118  C1149   1.437   .     S
C1118  C292    1.416   1_556 S
C1119  H1125   1.083   .     S
C1119  N1127   1.360   .     A
C1119  C289    1.416   1_556 S
C1120  N1128   1.360   .     A
C1120  H1126   1.083   .     S
Cu1121 O1133   1.973   .     S
Cu1121 O1129   1.973   .     S
Cu1121 N1127   2.016   .     S
Cu1121 Cu1122  2.682   .     S
Cu1121 O1136   1.979   .     S
Cu1121 O1132   1.972   .     S
Cu1122 O1134   1.973   .     S
Cu1122 O1130   1.973   .     S
Cu1122 N1128   2.016   .     S
Cu1122 O1135   1.979   .     S
Cu1122 O1131   1.972   .     S
C1137  O1139   1.222   .     D
C1137  C1155   1.490   .     S
C1137  H1184   1.085   .     S
H1138  C1229   1.085   1_455 S
C1140  O1142   1.222   .     D
C1140  C1202   1.490   1_455 S
C1140  H1233   1.085   1_455 S
H1141  C1186   1.085   .     S
C1143  N1144   1.158   .     T
C1145  N1146   1.158   .     T
C1147  N1148   1.157   .     T
C1149  N1150   1.157   .     T
C1151  O1177   1.298   .     A
C1151  O1175   1.289   .     A
C1151  C1162   1.457   .     S
C1152  C1161   1.457   .     S
C1152  O1178   1.298   .     A
C1152  O1176   1.289   .     A
C1153  O1181   1.296   .     A
C1153  O1179   1.283   .     A
C1153  C1155   1.443   .     S
C1154  O1182   1.296   .     A
C1154  C1156   1.443   .     S
C1154  O1180   1.283   .     A
C1156  C1201   1.367   .     S
C1156  C1232   1.490   .     S
C1157  H1169   1.083   .     S
C1157  C1162   1.399   .     A
C1158  H1170   1.083   .     S
C1158  C1161   1.399   .     A
C1158  C884    1.385   1_565 S
C1159  C1161   1.414   .     A
C1159  C1189   1.447   .     S
C1159  C881    1.385   1_565 S
C1160  C1191   1.447   .     S
C1160  C1162   1.414   .     A
C1163  C1193   1.437   .     S
C1163  N1174   1.377   .     A
C1164  N1173   1.377   .     A
C1164  C1195   1.437   .     S
C1164  C338    1.416   1_556 S
C1165  H1171   1.083   .     S
C1165  N1173   1.360   .     A
C1165  C335    1.416   1_556 S
C1166  N1174   1.360   .     A
C1166  H1172   1.083   .     S
Cu1167 O1179   1.973   .     S
Cu1167 O1175   1.973   .     S
Cu1167 N1173   2.016   .     S
Cu1167 Cu1168  2.682   .     S
Cu1167 O1182   1.979   .     S
Cu1167 O1178   1.972   .     S
Cu1168 O1180   1.973   .     S
Cu1168 O1176   1.973   .     S
Cu1168 N1174   2.016   .     S
Cu1168 O1181   1.979   .     S
Cu1168 O1177   1.972   .     S
C1183  O1185   1.222   .     D
C1183  C1201   1.490   .     S
C1183  H1230   1.085   .     S
C1186  O1188   1.222   .     D
H1187  C1232   1.085   .     S
C1189  N1190   1.158   .     T
C1191  N1192   1.158   .     T
C1193  N1194   1.157   .     T
C1195  N1196   1.157   .     T
C1197  O1223   1.298   .     A
C1197  O1221   1.289   .     A
C1197  C1208   1.457   .     S
C1198  C1207   1.457   .     S
C1198  O1224   1.298   .     A
C1198  O1222   1.289   .     A
C1199  O1227   1.296   .     A
C1199  O1225   1.283   .     A
C1199  C1201   1.443   .     S
C1200  O1228   1.296   .     A
C1200  C1202   1.443   .     S
C1200  O1226   1.283   .     A
C1202  C1109   1.367   1_655 S
C1202  C1140   1.490   1_655 S
C1203  H1215   1.083   .     S
C1203  C1208   1.399   .     A
C1204  H1216   1.083   .     S
C1204  C1207   1.399   .     A
C1204  C930    1.385   1_565 S
C1205  C1207   1.414   .     A
C1205  C1235   1.447   .     S
C1205  C927    1.385   1_565 S
C1206  C1237   1.447   .     S
C1206  C1208   1.414   .     A
C1209  C1239   1.437   .     S
C1209  N1220   1.377   .     A
C1210  N1219   1.377   .     A
C1210  C1241   1.437   .     S
C1210  C384    1.416   1_556 S
C1211  H1217   1.083   .     S
C1211  N1219   1.360   .     A
C1211  C381    1.416   1_556 S
C1212  N1220   1.360   .     A
C1212  H1218   1.083   .     S
Cu1213 O1225   1.973   .     S
Cu1213 O1221   1.973   .     S
Cu1213 N1219   2.016   .     S
Cu1213 Cu1214  2.682   .     S
Cu1213 O1228   1.979   .     S
Cu1213 O1224   1.972   .     S
Cu1214 O1226   1.973   .     S
Cu1214 O1222   1.973   .     S
Cu1214 N1220   2.016   .     S
Cu1214 O1227   1.979   .     S
Cu1214 O1223   1.972   .     S
C1229  O1231   1.222   .     D
C1229  C1109   1.490   1_655 S
C1229  H1138   1.085   1_655 S
C1232  O1234   1.222   .     D
H1233  C1140   1.085   1_655 S
C1235  N1236   1.158   .     T
C1237  N1238   1.158   .     T
C1239  N1240   1.157   .     T
C1241  N1242   1.157   .     T
