data_str_m2_o10_o17_pcu_sym.205
_audit_creation_date              2020-01-03
_audit_creation_method            'Materials Studio'
_symmetry_space_group_name_H-M    'P1'
_symmetry_Int_Tables_number       1
_symmetry_cell_setting            triclinic
loop_
_symmetry_equiv_pos_as_xyz
  x,y,z
_cell_length_a                    30.0497
_cell_length_b                    26.2038
_cell_length_c                    22.5927
_cell_angle_alpha                 102.9526
_cell_angle_beta                  94.9502
_cell_angle_gamma                 93.8553
loop_
_atom_site_label
_atom_site_type_symbol
_atom_site_fract_x
_atom_site_fract_y
_atom_site_fract_z
_atom_site_U_iso_or_equiv
_atom_site_adp_type
_atom_site_occupancy
C1     C     0.24769   0.06686   0.15142   0.00000  Uiso   1.00
C2     C     0.25231   0.26647   0.18192   0.00000  Uiso   1.00
C3     C     0.01389   0.07327   0.11681   0.00000  Uiso   1.00
C4     C     0.48611   0.26006   0.21652   0.00000  Uiso   1.00
C5     C     0.24110   0.01123   0.14461   0.00000  Uiso   1.00
C6     C     0.25890   0.32210   0.18872   0.00000  Uiso   1.00
C7     C     0.16480   0.16618   0.16699   0.00000  Uiso   1.00
C8     C     0.33520   0.16716   0.16634   0.00000  Uiso   1.00
C9     C     0.41047   0.21512   0.18787   0.00000  Uiso   1.00
C10    C     0.08953   0.11821   0.14547   0.00000  Uiso   1.00
C11    C     0.38339   0.16752   0.16555   0.00000  Uiso   1.00
C12    C     0.11661   0.16581   0.16778   0.00000  Uiso   1.00
C13    C     0.40179   0.12036   0.14140   0.00000  Uiso   1.00
C14    C     0.09821   0.21297   0.19193   0.00000  Uiso   1.00
C15    C     0.44846   0.12007   0.14094   0.00000  Uiso   1.00
C16    C     0.05154   0.21326   0.19240   0.00000  Uiso   1.00
C17    C     0.47643   0.16701   0.16598   0.00000  Uiso   1.00
C18    C     0.02357   0.16632   0.16735   0.00000  Uiso   1.00
C19    C     0.45748   0.21459   0.18978   0.00000  Uiso   1.00
C20    C     0.04252   0.11874   0.14355   0.00000  Uiso   1.00
C21    C     0.46783   0.07379   0.11608   0.00000  Uiso   1.00
C22    C     0.03217   0.25955   0.21725   0.00000  Uiso   1.00
Cu23   Cu    0.25501   0.17246   0.22813   0.00000  Uiso   1.00
Cu24   Cu    0.24500   0.16087   0.10521   0.00000  Uiso   1.00
H25    H     0.44755   0.03739   0.09540   0.00000  Uiso   1.00
H26    H     0.05245   0.29594   0.23793   0.00000  Uiso   1.00
H27    H     0.02646   0.03678   0.09516   0.00000  Uiso   1.00
H28    H     0.47354   0.29655   0.23818   0.00000  Uiso   1.00
N29    N     0.23745   0.15214   0.01284   0.00000  Uiso   1.00
N30    N     0.26256   0.18119   0.32049   0.00000  Uiso   1.00
O31    O     0.25326   0.09538   0.20659   0.00000  Uiso   1.00
O32    O     0.24675   0.23796   0.12674   0.00000  Uiso   1.00
O33    O     0.24480   0.08559   0.10279   0.00000  Uiso   1.00
O34    O     0.25520   0.24774   0.23055   0.00000  Uiso   1.00
O35    O     0.18936   0.17155   0.21857   0.00000  Uiso   1.00
O36    O     0.31065   0.16179   0.11476   0.00000  Uiso   1.00
O37    O     0.18090   0.16176   0.11477   0.00000  Uiso   1.00
O38    O     0.31910   0.17157   0.21857   0.00000  Uiso   1.00
C39    C     0.38864   0.26486   0.20696   0.00000  Uiso   1.00
H40    H     0.36049   0.26594   0.23406   0.00000  Uiso   1.00
O41    O     0.40039   0.30419   0.18980   0.00000  Uiso   1.00
C42    C     0.11136   0.06847   0.12638   0.00000  Uiso   1.00
H43    H     0.13951   0.06740   0.09928   0.00000  Uiso   1.00
O44    O     0.09961   0.02915   0.14353   0.00000  Uiso   1.00
C45    C     0.37240   0.07232   0.11780   0.00000  Uiso   1.00
N46    N     0.34903   0.03411   0.09899   0.00000  Uiso   1.00
C47    C     0.12760   0.26101   0.21553   0.00000  Uiso   1.00
N48    N     0.15097   0.29923   0.23434   0.00000  Uiso   1.00
C49    C     0.21049   0.31627   0.09227   0.00000  Uiso   1.00
N50    N     0.18613   0.29391   0.05064   0.00000  Uiso   1.00
C51    C     0.28951   0.01706   0.24106   0.00000  Uiso   1.00
N52    N     0.31387   0.03942   0.28269   0.00000  Uiso   1.00
C53    C     0.19820   0.12398   0.31189   0.00000  Uiso   1.00
H54    H     0.20013   0.09053   0.27467   0.00000  Uiso   1.00
O55    O     0.16133   0.13585   0.32591   0.00000  Uiso   1.00
C56    C     0.30180   0.20935   0.02144   0.00000  Uiso   1.00
H57    H     0.29987   0.24282   0.05865   0.00000  Uiso   1.00
O58    O     0.33867   0.19747   0.00743   0.00000  Uiso   1.00
C59    C     0.74769   0.06686   0.15142   0.00000  Uiso   1.00
C60    C     0.75231   0.26647   0.18192   0.00000  Uiso   1.00
C61    C     0.51389   0.07327   0.11681   0.00000  Uiso   1.00
C62    C     0.98611   0.26006   0.21652   0.00000  Uiso   1.00
C63    C     0.74110   0.01123   0.14461   0.00000  Uiso   1.00
C64    C     0.75890   0.32210   0.18872   0.00000  Uiso   1.00
C65    C     0.66480   0.16618   0.16699   0.00000  Uiso   1.00
C66    C     0.83520   0.16716   0.16634   0.00000  Uiso   1.00
C67    C     0.91047   0.21512   0.18787   0.00000  Uiso   1.00
C68    C     0.58953   0.11821   0.14547   0.00000  Uiso   1.00
C69    C     0.88339   0.16752   0.16555   0.00000  Uiso   1.00
C70    C     0.61661   0.16581   0.16778   0.00000  Uiso   1.00
C71    C     0.90179   0.12036   0.14140   0.00000  Uiso   1.00
C72    C     0.59821   0.21297   0.19193   0.00000  Uiso   1.00
C73    C     0.94846   0.12007   0.14094   0.00000  Uiso   1.00
C74    C     0.55154   0.21326   0.19240   0.00000  Uiso   1.00
C75    C     0.97643   0.16701   0.16598   0.00000  Uiso   1.00
C76    C     0.52357   0.16632   0.16735   0.00000  Uiso   1.00
C77    C     0.95748   0.21459   0.18978   0.00000  Uiso   1.00
C78    C     0.54252   0.11874   0.14355   0.00000  Uiso   1.00
C79    C     0.96783   0.07379   0.11608   0.00000  Uiso   1.00
C80    C     0.53217   0.25955   0.21725   0.00000  Uiso   1.00
Cu81   Cu    0.75501   0.17246   0.22813   0.00000  Uiso   1.00
Cu82   Cu    0.74500   0.16087   0.10521   0.00000  Uiso   1.00
H83    H     0.94755   0.03739   0.09540   0.00000  Uiso   1.00
H84    H     0.55245   0.29594   0.23793   0.00000  Uiso   1.00
H85    H     0.52646   0.03678   0.09516   0.00000  Uiso   1.00
H86    H     0.97354   0.29655   0.23818   0.00000  Uiso   1.00
N87    N     0.73745   0.15214   0.01284   0.00000  Uiso   1.00
N88    N     0.76256   0.18119   0.32049   0.00000  Uiso   1.00
O89    O     0.75326   0.09538   0.20659   0.00000  Uiso   1.00
O90    O     0.74675   0.23796   0.12674   0.00000  Uiso   1.00
O91    O     0.74480   0.08559   0.10279   0.00000  Uiso   1.00
O92    O     0.75520   0.24774   0.23055   0.00000  Uiso   1.00
O93    O     0.68936   0.17155   0.21857   0.00000  Uiso   1.00
O94    O     0.81065   0.16179   0.11476   0.00000  Uiso   1.00
O95    O     0.68090   0.16176   0.11477   0.00000  Uiso   1.00
O96    O     0.81910   0.17157   0.21857   0.00000  Uiso   1.00
C97    C     0.88864   0.26486   0.20696   0.00000  Uiso   1.00
H98    H     0.86049   0.26594   0.23406   0.00000  Uiso   1.00
O99    O     0.90039   0.30419   0.18980   0.00000  Uiso   1.00
C100   C     0.61136   0.06847   0.12638   0.00000  Uiso   1.00
H101   H     0.63951   0.06740   0.09928   0.00000  Uiso   1.00
O102   O     0.59961   0.02915   0.14353   0.00000  Uiso   1.00
C103   C     0.87240   0.07232   0.11780   0.00000  Uiso   1.00
N104   N     0.84903   0.03411   0.09899   0.00000  Uiso   1.00
C105   C     0.62760   0.26101   0.21553   0.00000  Uiso   1.00
N106   N     0.65097   0.29923   0.23434   0.00000  Uiso   1.00
C107   C     0.71049   0.31627   0.09227   0.00000  Uiso   1.00
N108   N     0.68613   0.29391   0.05064   0.00000  Uiso   1.00
C109   C     0.78951   0.01706   0.24106   0.00000  Uiso   1.00
N110   N     0.81387   0.03942   0.28269   0.00000  Uiso   1.00
C111   C     0.69820   0.12398   0.31189   0.00000  Uiso   1.00
H112   H     0.70013   0.09053   0.27467   0.00000  Uiso   1.00
O113   O     0.66133   0.13585   0.32591   0.00000  Uiso   1.00
C114   C     0.80180   0.20935   0.02144   0.00000  Uiso   1.00
H115   H     0.79987   0.24282   0.05865   0.00000  Uiso   1.00
O116   O     0.83867   0.19747   0.00743   0.00000  Uiso   1.00
C117   C     0.24769   0.40019   0.15142   0.00000  Uiso   1.00
C118   C     0.25231   0.59981   0.18192   0.00000  Uiso   1.00
C119   C     0.01389   0.40660   0.11681   0.00000  Uiso   1.00
C120   C     0.48611   0.59340   0.21652   0.00000  Uiso   1.00
C121   C     0.24110   0.34457   0.14461   0.00000  Uiso   1.00
C122   C     0.25890   0.65543   0.18872   0.00000  Uiso   1.00
C123   C     0.16480   0.49951   0.16699   0.00000  Uiso   1.00
C124   C     0.33520   0.50049   0.16634   0.00000  Uiso   1.00
C125   C     0.41047   0.54846   0.18787   0.00000  Uiso   1.00
C126   C     0.08953   0.45154   0.14547   0.00000  Uiso   1.00
C127   C     0.38339   0.50086   0.16555   0.00000  Uiso   1.00
C128   C     0.11661   0.49914   0.16778   0.00000  Uiso   1.00
C129   C     0.40179   0.45370   0.14140   0.00000  Uiso   1.00
C130   C     0.09821   0.54630   0.19193   0.00000  Uiso   1.00
C131   C     0.44846   0.45341   0.14094   0.00000  Uiso   1.00
C132   C     0.05154   0.54659   0.19240   0.00000  Uiso   1.00
C133   C     0.47643   0.50035   0.16598   0.00000  Uiso   1.00
C134   C     0.02357   0.49965   0.16735   0.00000  Uiso   1.00
C135   C     0.45748   0.54792   0.18978   0.00000  Uiso   1.00
C136   C     0.04252   0.45208   0.14355   0.00000  Uiso   1.00
C137   C     0.46783   0.40712   0.11608   0.00000  Uiso   1.00
C138   C     0.03217   0.59288   0.21725   0.00000  Uiso   1.00
Cu139  Cu    0.25501   0.50579   0.22813   0.00000  Uiso   1.00
Cu140  Cu    0.24500   0.49421   0.10521   0.00000  Uiso   1.00
H141   H     0.44755   0.37072   0.09540   0.00000  Uiso   1.00
H142   H     0.05245   0.62928   0.23793   0.00000  Uiso   1.00
H143   H     0.02646   0.37012   0.09516   0.00000  Uiso   1.00
H144   H     0.47354   0.62989   0.23818   0.00000  Uiso   1.00
N145   N     0.23745   0.48547   0.01284   0.00000  Uiso   1.00
N146   N     0.26256   0.51453   0.32049   0.00000  Uiso   1.00
O147   O     0.25326   0.42871   0.20659   0.00000  Uiso   1.00
O148   O     0.24675   0.57129   0.12674   0.00000  Uiso   1.00
O149   O     0.24480   0.41892   0.10279   0.00000  Uiso   1.00
O150   O     0.25520   0.58108   0.23055   0.00000  Uiso   1.00
O151   O     0.18936   0.50488   0.21857   0.00000  Uiso   1.00
O152   O     0.31065   0.49512   0.11476   0.00000  Uiso   1.00
O153   O     0.18090   0.49510   0.11477   0.00000  Uiso   1.00
O154   O     0.31910   0.50490   0.21857   0.00000  Uiso   1.00
C155   C     0.38864   0.59819   0.20696   0.00000  Uiso   1.00
H156   H     0.36049   0.59927   0.23406   0.00000  Uiso   1.00
O157   O     0.40039   0.63752   0.18980   0.00000  Uiso   1.00
C158   C     0.11136   0.40181   0.12638   0.00000  Uiso   1.00
H159   H     0.13951   0.40073   0.09928   0.00000  Uiso   1.00
O160   O     0.09961   0.36248   0.14353   0.00000  Uiso   1.00
C161   C     0.37240   0.40565   0.11780   0.00000  Uiso   1.00
N162   N     0.34903   0.36744   0.09899   0.00000  Uiso   1.00
C163   C     0.12760   0.59435   0.21553   0.00000  Uiso   1.00
N164   N     0.15097   0.63256   0.23434   0.00000  Uiso   1.00
C165   C     0.21049   0.64961   0.09227   0.00000  Uiso   1.00
N166   N     0.18613   0.62725   0.05064   0.00000  Uiso   1.00
C167   C     0.28951   0.35039   0.24106   0.00000  Uiso   1.00
N168   N     0.31387   0.37275   0.28269   0.00000  Uiso   1.00
C169   C     0.19820   0.45732   0.31189   0.00000  Uiso   1.00
H170   H     0.20013   0.42386   0.27467   0.00000  Uiso   1.00
O171   O     0.16133   0.46919   0.32591   0.00000  Uiso   1.00
C172   C     0.30180   0.54268   0.02144   0.00000  Uiso   1.00
H173   H     0.29987   0.57615   0.05865   0.00000  Uiso   1.00
O174   O     0.33867   0.53081   0.00743   0.00000  Uiso   1.00
C175   C     0.74769   0.40019   0.15142   0.00000  Uiso   1.00
C176   C     0.75231   0.59981   0.18192   0.00000  Uiso   1.00
C177   C     0.51389   0.40660   0.11681   0.00000  Uiso   1.00
C178   C     0.98611   0.59340   0.21652   0.00000  Uiso   1.00
C179   C     0.74110   0.34457   0.14461   0.00000  Uiso   1.00
C180   C     0.75890   0.65543   0.18872   0.00000  Uiso   1.00
C181   C     0.66480   0.49951   0.16699   0.00000  Uiso   1.00
C182   C     0.83520   0.50049   0.16634   0.00000  Uiso   1.00
C183   C     0.91047   0.54846   0.18787   0.00000  Uiso   1.00
C184   C     0.58953   0.45154   0.14547   0.00000  Uiso   1.00
C185   C     0.88339   0.50086   0.16555   0.00000  Uiso   1.00
C186   C     0.61661   0.49914   0.16778   0.00000  Uiso   1.00
C187   C     0.90179   0.45370   0.14140   0.00000  Uiso   1.00
C188   C     0.59821   0.54630   0.19193   0.00000  Uiso   1.00
C189   C     0.94846   0.45341   0.14094   0.00000  Uiso   1.00
C190   C     0.55154   0.54659   0.19240   0.00000  Uiso   1.00
C191   C     0.97643   0.50035   0.16598   0.00000  Uiso   1.00
C192   C     0.52357   0.49965   0.16735   0.00000  Uiso   1.00
C193   C     0.95748   0.54792   0.18978   0.00000  Uiso   1.00
C194   C     0.54252   0.45208   0.14355   0.00000  Uiso   1.00
C195   C     0.96783   0.40712   0.11608   0.00000  Uiso   1.00
C196   C     0.53217   0.59288   0.21725   0.00000  Uiso   1.00
Cu197  Cu    0.75501   0.50579   0.22813   0.00000  Uiso   1.00
Cu198  Cu    0.74500   0.49421   0.10521   0.00000  Uiso   1.00
H199   H     0.94755   0.37072   0.09540   0.00000  Uiso   1.00
H200   H     0.55245   0.62928   0.23793   0.00000  Uiso   1.00
H201   H     0.52646   0.37012   0.09516   0.00000  Uiso   1.00
H202   H     0.97354   0.62989   0.23818   0.00000  Uiso   1.00
N203   N     0.73745   0.48547   0.01284   0.00000  Uiso   1.00
N204   N     0.76256   0.51453   0.32049   0.00000  Uiso   1.00
O205   O     0.75326   0.42871   0.20659   0.00000  Uiso   1.00
O206   O     0.74675   0.57129   0.12674   0.00000  Uiso   1.00
O207   O     0.74480   0.41892   0.10279   0.00000  Uiso   1.00
O208   O     0.75520   0.58108   0.23055   0.00000  Uiso   1.00
O209   O     0.68936   0.50488   0.21857   0.00000  Uiso   1.00
O210   O     0.81065   0.49512   0.11476   0.00000  Uiso   1.00
O211   O     0.68090   0.49510   0.11477   0.00000  Uiso   1.00
O212   O     0.81910   0.50490   0.21857   0.00000  Uiso   1.00
C213   C     0.88864   0.59819   0.20696   0.00000  Uiso   1.00
H214   H     0.86049   0.59927   0.23406   0.00000  Uiso   1.00
O215   O     0.90039   0.63752   0.18980   0.00000  Uiso   1.00
C216   C     0.61136   0.40181   0.12638   0.00000  Uiso   1.00
H217   H     0.63951   0.40073   0.09928   0.00000  Uiso   1.00
O218   O     0.59961   0.36248   0.14353   0.00000  Uiso   1.00
C219   C     0.87240   0.40565   0.11780   0.00000  Uiso   1.00
N220   N     0.84903   0.36744   0.09899   0.00000  Uiso   1.00
C221   C     0.62760   0.59435   0.21553   0.00000  Uiso   1.00
N222   N     0.65097   0.63256   0.23434   0.00000  Uiso   1.00
C223   C     0.71049   0.64961   0.09227   0.00000  Uiso   1.00
N224   N     0.68613   0.62725   0.05064   0.00000  Uiso   1.00
C225   C     0.78951   0.35039   0.24106   0.00000  Uiso   1.00
N226   N     0.81387   0.37275   0.28269   0.00000  Uiso   1.00
C227   C     0.69820   0.45732   0.31189   0.00000  Uiso   1.00
H228   H     0.70013   0.42386   0.27467   0.00000  Uiso   1.00
O229   O     0.66133   0.46919   0.32591   0.00000  Uiso   1.00
C230   C     0.80180   0.54268   0.02144   0.00000  Uiso   1.00
H231   H     0.79987   0.57615   0.05865   0.00000  Uiso   1.00
O232   O     0.83867   0.53081   0.00743   0.00000  Uiso   1.00
C233   C     0.24769   0.73353   0.15142   0.00000  Uiso   1.00
C234   C     0.25231   0.93314   0.18192   0.00000  Uiso   1.00
C235   C     0.01389   0.73994   0.11681   0.00000  Uiso   1.00
C236   C     0.48611   0.92673   0.21652   0.00000  Uiso   1.00
C237   C     0.24110   0.67790   0.14461   0.00000  Uiso   1.00
C238   C     0.25890   0.98877   0.18872   0.00000  Uiso   1.00
C239   C     0.16480   0.83284   0.16699   0.00000  Uiso   1.00
C240   C     0.33520   0.83382   0.16634   0.00000  Uiso   1.00
C241   C     0.41047   0.88179   0.18787   0.00000  Uiso   1.00
C242   C     0.08953   0.78488   0.14547   0.00000  Uiso   1.00
C243   C     0.38339   0.83419   0.16555   0.00000  Uiso   1.00
C244   C     0.11661   0.83248   0.16778   0.00000  Uiso   1.00
C245   C     0.40179   0.78703   0.14140   0.00000  Uiso   1.00
C246   C     0.09821   0.87964   0.19193   0.00000  Uiso   1.00
C247   C     0.44846   0.78674   0.14094   0.00000  Uiso   1.00
C248   C     0.05154   0.87993   0.19240   0.00000  Uiso   1.00
C249   C     0.47643   0.83368   0.16598   0.00000  Uiso   1.00
C250   C     0.02357   0.83299   0.16735   0.00000  Uiso   1.00
C251   C     0.45748   0.88126   0.18978   0.00000  Uiso   1.00
C252   C     0.04252   0.78541   0.14355   0.00000  Uiso   1.00
C253   C     0.46783   0.74045   0.11608   0.00000  Uiso   1.00
C254   C     0.03217   0.92621   0.21725   0.00000  Uiso   1.00
Cu255  Cu    0.25501   0.83913   0.22813   0.00000  Uiso   1.00
Cu256  Cu    0.24500   0.82754   0.10521   0.00000  Uiso   1.00
H257   H     0.44755   0.70406   0.09540   0.00000  Uiso   1.00
H258   H     0.05245   0.96261   0.23793   0.00000  Uiso   1.00
H259   H     0.02646   0.70345   0.09516   0.00000  Uiso   1.00
H260   H     0.47354   0.96322   0.23818   0.00000  Uiso   1.00
N261   N     0.23745   0.81881   0.01284   0.00000  Uiso   1.00
N262   N     0.26256   0.84786   0.32049   0.00000  Uiso   1.00
O263   O     0.25326   0.76204   0.20659   0.00000  Uiso   1.00
O264   O     0.24675   0.90462   0.12674   0.00000  Uiso   1.00
O265   O     0.24480   0.75226   0.10279   0.00000  Uiso   1.00
O266   O     0.25520   0.91441   0.23055   0.00000  Uiso   1.00
O267   O     0.18936   0.83821   0.21857   0.00000  Uiso   1.00
O268   O     0.31065   0.82845   0.11476   0.00000  Uiso   1.00
O269   O     0.18090   0.82843   0.11477   0.00000  Uiso   1.00
O270   O     0.31910   0.83824   0.21857   0.00000  Uiso   1.00
C271   C     0.38864   0.93153   0.20696   0.00000  Uiso   1.00
H272   H     0.36049   0.93260   0.23406   0.00000  Uiso   1.00
O273   O     0.40039   0.97085   0.18980   0.00000  Uiso   1.00
C274   C     0.11136   0.73514   0.12638   0.00000  Uiso   1.00
H275   H     0.13951   0.73407   0.09928   0.00000  Uiso   1.00
O276   O     0.09961   0.69581   0.14353   0.00000  Uiso   1.00
C277   C     0.37240   0.73899   0.11780   0.00000  Uiso   1.00
N278   N     0.34903   0.70077   0.09899   0.00000  Uiso   1.00
C279   C     0.12760   0.92768   0.21553   0.00000  Uiso   1.00
N280   N     0.15097   0.96589   0.23434   0.00000  Uiso   1.00
C281   C     0.21049   0.98294   0.09227   0.00000  Uiso   1.00
N282   N     0.18613   0.96058   0.05064   0.00000  Uiso   1.00
C283   C     0.28951   0.68373   0.24106   0.00000  Uiso   1.00
N284   N     0.31387   0.70609   0.28269   0.00000  Uiso   1.00
C285   C     0.19820   0.79065   0.31189   0.00000  Uiso   1.00
H286   H     0.20013   0.75719   0.27467   0.00000  Uiso   1.00
O287   O     0.16133   0.80252   0.32591   0.00000  Uiso   1.00
C288   C     0.30180   0.87602   0.02144   0.00000  Uiso   1.00
H289   H     0.29987   0.90948   0.05865   0.00000  Uiso   1.00
O290   O     0.33867   0.86414   0.00743   0.00000  Uiso   1.00
C291   C     0.74769   0.73353   0.15142   0.00000  Uiso   1.00
C292   C     0.75231   0.93314   0.18192   0.00000  Uiso   1.00
C293   C     0.51389   0.73994   0.11681   0.00000  Uiso   1.00
C294   C     0.98611   0.92673   0.21652   0.00000  Uiso   1.00
C295   C     0.74110   0.67790   0.14461   0.00000  Uiso   1.00
C296   C     0.75890   0.98877   0.18872   0.00000  Uiso   1.00
C297   C     0.66480   0.83284   0.16699   0.00000  Uiso   1.00
C298   C     0.83520   0.83382   0.16634   0.00000  Uiso   1.00
C299   C     0.91047   0.88179   0.18787   0.00000  Uiso   1.00
C300   C     0.58953   0.78488   0.14547   0.00000  Uiso   1.00
C301   C     0.88339   0.83419   0.16555   0.00000  Uiso   1.00
C302   C     0.61661   0.83248   0.16778   0.00000  Uiso   1.00
C303   C     0.90179   0.78703   0.14140   0.00000  Uiso   1.00
C304   C     0.59821   0.87964   0.19193   0.00000  Uiso   1.00
C305   C     0.94846   0.78674   0.14094   0.00000  Uiso   1.00
C306   C     0.55154   0.87993   0.19240   0.00000  Uiso   1.00
C307   C     0.97643   0.83368   0.16598   0.00000  Uiso   1.00
C308   C     0.52357   0.83299   0.16735   0.00000  Uiso   1.00
C309   C     0.95748   0.88126   0.18978   0.00000  Uiso   1.00
C310   C     0.54252   0.78541   0.14355   0.00000  Uiso   1.00
C311   C     0.96783   0.74045   0.11608   0.00000  Uiso   1.00
C312   C     0.53217   0.92621   0.21725   0.00000  Uiso   1.00
Cu313  Cu    0.75501   0.83913   0.22813   0.00000  Uiso   1.00
Cu314  Cu    0.74500   0.82754   0.10521   0.00000  Uiso   1.00
H315   H     0.94755   0.70406   0.09540   0.00000  Uiso   1.00
H316   H     0.55245   0.96261   0.23793   0.00000  Uiso   1.00
H317   H     0.52646   0.70345   0.09516   0.00000  Uiso   1.00
H318   H     0.97354   0.96322   0.23818   0.00000  Uiso   1.00
N319   N     0.73745   0.81881   0.01284   0.00000  Uiso   1.00
N320   N     0.76256   0.84786   0.32049   0.00000  Uiso   1.00
O321   O     0.75326   0.76204   0.20659   0.00000  Uiso   1.00
O322   O     0.74675   0.90462   0.12674   0.00000  Uiso   1.00
O323   O     0.74480   0.75226   0.10279   0.00000  Uiso   1.00
O324   O     0.75520   0.91441   0.23055   0.00000  Uiso   1.00
O325   O     0.68936   0.83821   0.21857   0.00000  Uiso   1.00
O326   O     0.81065   0.82845   0.11476   0.00000  Uiso   1.00
O327   O     0.68090   0.82843   0.11477   0.00000  Uiso   1.00
O328   O     0.81910   0.83824   0.21857   0.00000  Uiso   1.00
C329   C     0.88864   0.93153   0.20696   0.00000  Uiso   1.00
H330   H     0.86049   0.93260   0.23406   0.00000  Uiso   1.00
O331   O     0.90039   0.97085   0.18980   0.00000  Uiso   1.00
C332   C     0.61136   0.73514   0.12638   0.00000  Uiso   1.00
H333   H     0.63951   0.73407   0.09928   0.00000  Uiso   1.00
O334   O     0.59961   0.69581   0.14353   0.00000  Uiso   1.00
C335   C     0.87240   0.73899   0.11780   0.00000  Uiso   1.00
N336   N     0.84903   0.70077   0.09899   0.00000  Uiso   1.00
C337   C     0.62760   0.92768   0.21553   0.00000  Uiso   1.00
N338   N     0.65097   0.96589   0.23434   0.00000  Uiso   1.00
C339   C     0.71049   0.98294   0.09227   0.00000  Uiso   1.00
N340   N     0.68613   0.96058   0.05064   0.00000  Uiso   1.00
C341   C     0.78951   0.68373   0.24106   0.00000  Uiso   1.00
N342   N     0.81387   0.70609   0.28269   0.00000  Uiso   1.00
C343   C     0.69820   0.79065   0.31189   0.00000  Uiso   1.00
H344   H     0.70013   0.75719   0.27467   0.00000  Uiso   1.00
O345   O     0.66133   0.80252   0.32591   0.00000  Uiso   1.00
C346   C     0.80180   0.87602   0.02144   0.00000  Uiso   1.00
H347   H     0.79987   0.90948   0.05865   0.00000  Uiso   1.00
O348   O     0.83867   0.86414   0.00743   0.00000  Uiso   1.00
C349   C     0.24769   0.06686   0.48475   0.00000  Uiso   1.00
C350   C     0.25231   0.26647   0.51525   0.00000  Uiso   1.00
C351   C     0.01389   0.07327   0.45015   0.00000  Uiso   1.00
C352   C     0.48611   0.26006   0.54985   0.00000  Uiso   1.00
C353   C     0.24110   0.01123   0.47794   0.00000  Uiso   1.00
C354   C     0.25890   0.32210   0.52206   0.00000  Uiso   1.00
C355   C     0.16480   0.16618   0.50032   0.00000  Uiso   1.00
C356   C     0.33520   0.16716   0.49968   0.00000  Uiso   1.00
C357   C     0.41047   0.21512   0.52120   0.00000  Uiso   1.00
C358   C     0.08953   0.11821   0.47880   0.00000  Uiso   1.00
C359   C     0.38339   0.16752   0.49888   0.00000  Uiso   1.00
C360   C     0.11661   0.16581   0.50112   0.00000  Uiso   1.00
C361   C     0.40179   0.12036   0.47473   0.00000  Uiso   1.00
C362   C     0.09821   0.21297   0.52527   0.00000  Uiso   1.00
C363   C     0.44846   0.12007   0.47427   0.00000  Uiso   1.00
C364   C     0.05154   0.21326   0.52573   0.00000  Uiso   1.00
C365   C     0.47643   0.16701   0.49932   0.00000  Uiso   1.00
C366   C     0.02357   0.16632   0.50068   0.00000  Uiso   1.00
C367   C     0.45748   0.21459   0.52311   0.00000  Uiso   1.00
C368   C     0.04252   0.11874   0.47689   0.00000  Uiso   1.00
C369   C     0.46783   0.07379   0.44942   0.00000  Uiso   1.00
C370   C     0.03217   0.25955   0.55058   0.00000  Uiso   1.00
Cu371  Cu    0.25501   0.17246   0.56146   0.00000  Uiso   1.00
Cu372  Cu    0.24500   0.16087   0.43854   0.00000  Uiso   1.00
H373   H     0.44755   0.03739   0.42874   0.00000  Uiso   1.00
H374   H     0.05245   0.29594   0.57126   0.00000  Uiso   1.00
H375   H     0.02646   0.03678   0.42849   0.00000  Uiso   1.00
H376   H     0.47354   0.29655   0.57151   0.00000  Uiso   1.00
N377   N     0.23745   0.15214   0.34617   0.00000  Uiso   1.00
N378   N     0.26256   0.18119   0.65383   0.00000  Uiso   1.00
O379   O     0.25326   0.09538   0.53992   0.00000  Uiso   1.00
O380   O     0.24675   0.23796   0.46008   0.00000  Uiso   1.00
O381   O     0.24480   0.08559   0.43612   0.00000  Uiso   1.00
O382   O     0.25520   0.24774   0.56388   0.00000  Uiso   1.00
O383   O     0.18936   0.17155   0.55191   0.00000  Uiso   1.00
O384   O     0.31065   0.16179   0.44809   0.00000  Uiso   1.00
O385   O     0.18090   0.16176   0.44810   0.00000  Uiso   1.00
O386   O     0.31910   0.17157   0.55190   0.00000  Uiso   1.00
C387   C     0.38864   0.26486   0.54029   0.00000  Uiso   1.00
H388   H     0.36049   0.26594   0.56739   0.00000  Uiso   1.00
O389   O     0.40039   0.30419   0.52313   0.00000  Uiso   1.00
C390   C     0.11136   0.06847   0.45971   0.00000  Uiso   1.00
H391   H     0.13951   0.06740   0.43261   0.00000  Uiso   1.00
O392   O     0.09961   0.02915   0.47687   0.00000  Uiso   1.00
C393   C     0.37240   0.07232   0.45114   0.00000  Uiso   1.00
N394   N     0.34903   0.03411   0.43233   0.00000  Uiso   1.00
C395   C     0.12760   0.26101   0.54886   0.00000  Uiso   1.00
N396   N     0.15097   0.29923   0.56767   0.00000  Uiso   1.00
C397   C     0.21049   0.31627   0.42561   0.00000  Uiso   1.00
N398   N     0.18613   0.29391   0.38398   0.00000  Uiso   1.00
C399   C     0.28951   0.01706   0.57440   0.00000  Uiso   1.00
N400   N     0.31387   0.03942   0.61602   0.00000  Uiso   1.00
C401   C     0.19820   0.12398   0.64523   0.00000  Uiso   1.00
H402   H     0.20013   0.09053   0.60800   0.00000  Uiso   1.00
O403   O     0.16133   0.13585   0.65925   0.00000  Uiso   1.00
C404   C     0.30180   0.20935   0.35477   0.00000  Uiso   1.00
H405   H     0.29987   0.24282   0.39199   0.00000  Uiso   1.00
O406   O     0.33867   0.19747   0.34076   0.00000  Uiso   1.00
C407   C     0.74769   0.06686   0.48475   0.00000  Uiso   1.00
C408   C     0.75231   0.26647   0.51525   0.00000  Uiso   1.00
C409   C     0.51389   0.07327   0.45015   0.00000  Uiso   1.00
C410   C     0.98611   0.26006   0.54985   0.00000  Uiso   1.00
C411   C     0.74110   0.01123   0.47794   0.00000  Uiso   1.00
C412   C     0.75890   0.32210   0.52206   0.00000  Uiso   1.00
C413   C     0.66480   0.16618   0.50032   0.00000  Uiso   1.00
C414   C     0.83520   0.16716   0.49968   0.00000  Uiso   1.00
C415   C     0.91047   0.21512   0.52120   0.00000  Uiso   1.00
C416   C     0.58953   0.11821   0.47880   0.00000  Uiso   1.00
C417   C     0.88339   0.16752   0.49888   0.00000  Uiso   1.00
C418   C     0.61661   0.16581   0.50112   0.00000  Uiso   1.00
C419   C     0.90179   0.12036   0.47473   0.00000  Uiso   1.00
C420   C     0.59821   0.21297   0.52527   0.00000  Uiso   1.00
C421   C     0.94846   0.12007   0.47427   0.00000  Uiso   1.00
C422   C     0.55154   0.21326   0.52573   0.00000  Uiso   1.00
C423   C     0.97643   0.16701   0.49932   0.00000  Uiso   1.00
C424   C     0.52357   0.16632   0.50068   0.00000  Uiso   1.00
C425   C     0.95748   0.21459   0.52311   0.00000  Uiso   1.00
C426   C     0.54252   0.11874   0.47689   0.00000  Uiso   1.00
C427   C     0.96783   0.07379   0.44942   0.00000  Uiso   1.00
C428   C     0.53217   0.25955   0.55058   0.00000  Uiso   1.00
Cu429  Cu    0.75501   0.17246   0.56146   0.00000  Uiso   1.00
Cu430  Cu    0.74500   0.16087   0.43854   0.00000  Uiso   1.00
H431   H     0.94755   0.03739   0.42874   0.00000  Uiso   1.00
H432   H     0.55245   0.29594   0.57126   0.00000  Uiso   1.00
H433   H     0.52646   0.03678   0.42849   0.00000  Uiso   1.00
H434   H     0.97354   0.29655   0.57151   0.00000  Uiso   1.00
N435   N     0.73745   0.15214   0.34617   0.00000  Uiso   1.00
N436   N     0.76256   0.18119   0.65383   0.00000  Uiso   1.00
O437   O     0.75326   0.09538   0.53992   0.00000  Uiso   1.00
O438   O     0.74675   0.23796   0.46008   0.00000  Uiso   1.00
O439   O     0.74480   0.08559   0.43612   0.00000  Uiso   1.00
O440   O     0.75520   0.24774   0.56388   0.00000  Uiso   1.00
O441   O     0.68936   0.17155   0.55191   0.00000  Uiso   1.00
O442   O     0.81065   0.16179   0.44809   0.00000  Uiso   1.00
O443   O     0.68090   0.16176   0.44810   0.00000  Uiso   1.00
O444   O     0.81910   0.17157   0.55190   0.00000  Uiso   1.00
C445   C     0.88864   0.26486   0.54029   0.00000  Uiso   1.00
H446   H     0.86049   0.26594   0.56739   0.00000  Uiso   1.00
O447   O     0.90039   0.30419   0.52313   0.00000  Uiso   1.00
C448   C     0.61136   0.06847   0.45971   0.00000  Uiso   1.00
H449   H     0.63951   0.06740   0.43261   0.00000  Uiso   1.00
O450   O     0.59961   0.02915   0.47687   0.00000  Uiso   1.00
C451   C     0.87240   0.07232   0.45114   0.00000  Uiso   1.00
N452   N     0.84903   0.03411   0.43233   0.00000  Uiso   1.00
C453   C     0.62760   0.26101   0.54886   0.00000  Uiso   1.00
N454   N     0.65097   0.29923   0.56767   0.00000  Uiso   1.00
C455   C     0.71049   0.31627   0.42561   0.00000  Uiso   1.00
N456   N     0.68613   0.29391   0.38398   0.00000  Uiso   1.00
C457   C     0.78951   0.01706   0.57440   0.00000  Uiso   1.00
N458   N     0.81387   0.03942   0.61602   0.00000  Uiso   1.00
C459   C     0.69820   0.12398   0.64523   0.00000  Uiso   1.00
H460   H     0.70013   0.09053   0.60800   0.00000  Uiso   1.00
O461   O     0.66133   0.13585   0.65925   0.00000  Uiso   1.00
C462   C     0.80180   0.20935   0.35477   0.00000  Uiso   1.00
H463   H     0.79987   0.24282   0.39199   0.00000  Uiso   1.00
O464   O     0.83867   0.19747   0.34076   0.00000  Uiso   1.00
C465   C     0.24769   0.40019   0.48475   0.00000  Uiso   1.00
C466   C     0.25231   0.59981   0.51525   0.00000  Uiso   1.00
C467   C     0.01389   0.40660   0.45015   0.00000  Uiso   1.00
C468   C     0.48611   0.59340   0.54985   0.00000  Uiso   1.00
C469   C     0.24110   0.34457   0.47794   0.00000  Uiso   1.00
C470   C     0.25890   0.65543   0.52206   0.00000  Uiso   1.00
C471   C     0.16480   0.49951   0.50032   0.00000  Uiso   1.00
C472   C     0.33520   0.50049   0.49968   0.00000  Uiso   1.00
C473   C     0.41047   0.54846   0.52120   0.00000  Uiso   1.00
C474   C     0.08953   0.45154   0.47880   0.00000  Uiso   1.00
C475   C     0.38339   0.50086   0.49888   0.00000  Uiso   1.00
C476   C     0.11661   0.49914   0.50112   0.00000  Uiso   1.00
C477   C     0.40179   0.45370   0.47473   0.00000  Uiso   1.00
C478   C     0.09821   0.54630   0.52527   0.00000  Uiso   1.00
C479   C     0.44846   0.45341   0.47427   0.00000  Uiso   1.00
C480   C     0.05154   0.54659   0.52573   0.00000  Uiso   1.00
C481   C     0.47643   0.50035   0.49932   0.00000  Uiso   1.00
C482   C     0.02357   0.49965   0.50068   0.00000  Uiso   1.00
C483   C     0.45748   0.54792   0.52311   0.00000  Uiso   1.00
C484   C     0.04252   0.45208   0.47689   0.00000  Uiso   1.00
C485   C     0.46783   0.40712   0.44942   0.00000  Uiso   1.00
C486   C     0.03217   0.59288   0.55058   0.00000  Uiso   1.00
Cu487  Cu    0.25501   0.50579   0.56146   0.00000  Uiso   1.00
Cu488  Cu    0.24500   0.49421   0.43854   0.00000  Uiso   1.00
H489   H     0.44755   0.37072   0.42874   0.00000  Uiso   1.00
H490   H     0.05245   0.62928   0.57126   0.00000  Uiso   1.00
H491   H     0.02646   0.37012   0.42849   0.00000  Uiso   1.00
H492   H     0.47354   0.62989   0.57151   0.00000  Uiso   1.00
N493   N     0.23745   0.48547   0.34617   0.00000  Uiso   1.00
N494   N     0.26256   0.51453   0.65383   0.00000  Uiso   1.00
O495   O     0.25326   0.42871   0.53992   0.00000  Uiso   1.00
O496   O     0.24675   0.57129   0.46008   0.00000  Uiso   1.00
O497   O     0.24480   0.41892   0.43612   0.00000  Uiso   1.00
O498   O     0.25520   0.58108   0.56388   0.00000  Uiso   1.00
O499   O     0.18936   0.50488   0.55191   0.00000  Uiso   1.00
O500   O     0.31065   0.49512   0.44809   0.00000  Uiso   1.00
O501   O     0.18090   0.49510   0.44810   0.00000  Uiso   1.00
O502   O     0.31910   0.50490   0.55190   0.00000  Uiso   1.00
C503   C     0.38864   0.59819   0.54029   0.00000  Uiso   1.00
H504   H     0.36049   0.59927   0.56739   0.00000  Uiso   1.00
O505   O     0.40039   0.63752   0.52313   0.00000  Uiso   1.00
C506   C     0.11136   0.40181   0.45971   0.00000  Uiso   1.00
H507   H     0.13951   0.40073   0.43261   0.00000  Uiso   1.00
O508   O     0.09961   0.36248   0.47687   0.00000  Uiso   1.00
C509   C     0.37240   0.40565   0.45114   0.00000  Uiso   1.00
N510   N     0.34903   0.36744   0.43233   0.00000  Uiso   1.00
C511   C     0.12760   0.59435   0.54886   0.00000  Uiso   1.00
N512   N     0.15097   0.63256   0.56767   0.00000  Uiso   1.00
C513   C     0.21049   0.64961   0.42561   0.00000  Uiso   1.00
N514   N     0.18613   0.62725   0.38398   0.00000  Uiso   1.00
C515   C     0.28951   0.35039   0.57440   0.00000  Uiso   1.00
N516   N     0.31387   0.37275   0.61602   0.00000  Uiso   1.00
C517   C     0.19820   0.45732   0.64523   0.00000  Uiso   1.00
H518   H     0.20013   0.42386   0.60800   0.00000  Uiso   1.00
O519   O     0.16133   0.46919   0.65925   0.00000  Uiso   1.00
C520   C     0.30180   0.54268   0.35477   0.00000  Uiso   1.00
H521   H     0.29987   0.57615   0.39199   0.00000  Uiso   1.00
O522   O     0.33867   0.53081   0.34076   0.00000  Uiso   1.00
C523   C     0.74769   0.40019   0.48475   0.00000  Uiso   1.00
C524   C     0.75231   0.59981   0.51525   0.00000  Uiso   1.00
C525   C     0.51389   0.40660   0.45015   0.00000  Uiso   1.00
C526   C     0.98611   0.59340   0.54985   0.00000  Uiso   1.00
C527   C     0.74110   0.34457   0.47794   0.00000  Uiso   1.00
C528   C     0.75890   0.65543   0.52206   0.00000  Uiso   1.00
C529   C     0.66480   0.49951   0.50032   0.00000  Uiso   1.00
C530   C     0.83520   0.50049   0.49968   0.00000  Uiso   1.00
C531   C     0.91047   0.54846   0.52120   0.00000  Uiso   1.00
C532   C     0.58953   0.45154   0.47880   0.00000  Uiso   1.00
C533   C     0.88339   0.50086   0.49888   0.00000  Uiso   1.00
C534   C     0.61661   0.49914   0.50112   0.00000  Uiso   1.00
C535   C     0.90179   0.45370   0.47473   0.00000  Uiso   1.00
C536   C     0.59821   0.54630   0.52527   0.00000  Uiso   1.00
C537   C     0.94846   0.45341   0.47427   0.00000  Uiso   1.00
C538   C     0.55154   0.54659   0.52573   0.00000  Uiso   1.00
C539   C     0.97643   0.50035   0.49932   0.00000  Uiso   1.00
C540   C     0.52357   0.49965   0.50068   0.00000  Uiso   1.00
C541   C     0.95748   0.54792   0.52311   0.00000  Uiso   1.00
C542   C     0.54252   0.45208   0.47689   0.00000  Uiso   1.00
C543   C     0.96783   0.40712   0.44942   0.00000  Uiso   1.00
C544   C     0.53217   0.59288   0.55058   0.00000  Uiso   1.00
Cu545  Cu    0.75501   0.50579   0.56146   0.00000  Uiso   1.00
Cu546  Cu    0.74500   0.49421   0.43854   0.00000  Uiso   1.00
H547   H     0.94755   0.37072   0.42874   0.00000  Uiso   1.00
H548   H     0.55245   0.62928   0.57126   0.00000  Uiso   1.00
H549   H     0.52646   0.37012   0.42849   0.00000  Uiso   1.00
H550   H     0.97354   0.62989   0.57151   0.00000  Uiso   1.00
N551   N     0.73745   0.48547   0.34617   0.00000  Uiso   1.00
N552   N     0.76256   0.51453   0.65383   0.00000  Uiso   1.00
O553   O     0.75326   0.42871   0.53992   0.00000  Uiso   1.00
O554   O     0.74675   0.57129   0.46008   0.00000  Uiso   1.00
O555   O     0.74480   0.41892   0.43612   0.00000  Uiso   1.00
O556   O     0.75520   0.58108   0.56388   0.00000  Uiso   1.00
O557   O     0.68936   0.50488   0.55191   0.00000  Uiso   1.00
O558   O     0.81065   0.49512   0.44809   0.00000  Uiso   1.00
O559   O     0.68090   0.49510   0.44810   0.00000  Uiso   1.00
O560   O     0.81910   0.50490   0.55190   0.00000  Uiso   1.00
C561   C     0.88864   0.59819   0.54029   0.00000  Uiso   1.00
H562   H     0.86049   0.59927   0.56739   0.00000  Uiso   1.00
O563   O     0.90039   0.63752   0.52313   0.00000  Uiso   1.00
C564   C     0.61136   0.40181   0.45971   0.00000  Uiso   1.00
H565   H     0.63951   0.40073   0.43261   0.00000  Uiso   1.00
O566   O     0.59961   0.36248   0.47687   0.00000  Uiso   1.00
C567   C     0.87240   0.40565   0.45114   0.00000  Uiso   1.00
N568   N     0.84903   0.36744   0.43233   0.00000  Uiso   1.00
C569   C     0.62760   0.59435   0.54886   0.00000  Uiso   1.00
N570   N     0.65097   0.63256   0.56767   0.00000  Uiso   1.00
C571   C     0.71049   0.64961   0.42561   0.00000  Uiso   1.00
N572   N     0.68613   0.62725   0.38398   0.00000  Uiso   1.00
C573   C     0.78951   0.35039   0.57440   0.00000  Uiso   1.00
N574   N     0.81387   0.37275   0.61602   0.00000  Uiso   1.00
C575   C     0.69820   0.45732   0.64523   0.00000  Uiso   1.00
H576   H     0.70013   0.42386   0.60800   0.00000  Uiso   1.00
O577   O     0.66133   0.46919   0.65925   0.00000  Uiso   1.00
C578   C     0.80180   0.54268   0.35477   0.00000  Uiso   1.00
H579   H     0.79987   0.57615   0.39199   0.00000  Uiso   1.00
O580   O     0.83867   0.53081   0.34076   0.00000  Uiso   1.00
C581   C     0.24769   0.73353   0.48475   0.00000  Uiso   1.00
C582   C     0.25231   0.93314   0.51525   0.00000  Uiso   1.00
C583   C     0.01389   0.73994   0.45015   0.00000  Uiso   1.00
C584   C     0.48611   0.92673   0.54985   0.00000  Uiso   1.00
C585   C     0.24110   0.67790   0.47794   0.00000  Uiso   1.00
C586   C     0.25890   0.98877   0.52206   0.00000  Uiso   1.00
C587   C     0.16480   0.83284   0.50032   0.00000  Uiso   1.00
C588   C     0.33520   0.83382   0.49968   0.00000  Uiso   1.00
C589   C     0.41047   0.88179   0.52120   0.00000  Uiso   1.00
C590   C     0.08953   0.78488   0.47880   0.00000  Uiso   1.00
C591   C     0.38339   0.83419   0.49888   0.00000  Uiso   1.00
C592   C     0.11661   0.83248   0.50112   0.00000  Uiso   1.00
C593   C     0.40179   0.78703   0.47473   0.00000  Uiso   1.00
C594   C     0.09821   0.87964   0.52527   0.00000  Uiso   1.00
C595   C     0.44846   0.78674   0.47427   0.00000  Uiso   1.00
C596   C     0.05154   0.87993   0.52573   0.00000  Uiso   1.00
C597   C     0.47643   0.83368   0.49932   0.00000  Uiso   1.00
C598   C     0.02357   0.83299   0.50068   0.00000  Uiso   1.00
C599   C     0.45748   0.88126   0.52311   0.00000  Uiso   1.00
C600   C     0.04252   0.78541   0.47689   0.00000  Uiso   1.00
C601   C     0.46783   0.74045   0.44942   0.00000  Uiso   1.00
C602   C     0.03217   0.92621   0.55058   0.00000  Uiso   1.00
Cu603  Cu    0.25501   0.83913   0.56146   0.00000  Uiso   1.00
Cu604  Cu    0.24500   0.82754   0.43854   0.00000  Uiso   1.00
H605   H     0.44755   0.70406   0.42874   0.00000  Uiso   1.00
H606   H     0.05245   0.96261   0.57126   0.00000  Uiso   1.00
H607   H     0.02646   0.70345   0.42849   0.00000  Uiso   1.00
H608   H     0.47354   0.96322   0.57151   0.00000  Uiso   1.00
N609   N     0.23745   0.81881   0.34617   0.00000  Uiso   1.00
N610   N     0.26256   0.84786   0.65383   0.00000  Uiso   1.00
O611   O     0.25326   0.76204   0.53992   0.00000  Uiso   1.00
O612   O     0.24675   0.90462   0.46008   0.00000  Uiso   1.00
O613   O     0.24480   0.75226   0.43612   0.00000  Uiso   1.00
O614   O     0.25520   0.91441   0.56388   0.00000  Uiso   1.00
O615   O     0.18936   0.83821   0.55191   0.00000  Uiso   1.00
O616   O     0.31065   0.82845   0.44809   0.00000  Uiso   1.00
O617   O     0.18090   0.82843   0.44810   0.00000  Uiso   1.00
O618   O     0.31910   0.83824   0.55190   0.00000  Uiso   1.00
C619   C     0.38864   0.93153   0.54029   0.00000  Uiso   1.00
H620   H     0.36049   0.93260   0.56739   0.00000  Uiso   1.00
O621   O     0.40039   0.97085   0.52313   0.00000  Uiso   1.00
C622   C     0.11136   0.73514   0.45971   0.00000  Uiso   1.00
H623   H     0.13951   0.73407   0.43261   0.00000  Uiso   1.00
O624   O     0.09961   0.69581   0.47687   0.00000  Uiso   1.00
C625   C     0.37240   0.73899   0.45114   0.00000  Uiso   1.00
N626   N     0.34903   0.70077   0.43233   0.00000  Uiso   1.00
C627   C     0.12760   0.92768   0.54886   0.00000  Uiso   1.00
N628   N     0.15097   0.96589   0.56767   0.00000  Uiso   1.00
C629   C     0.21049   0.98294   0.42561   0.00000  Uiso   1.00
N630   N     0.18613   0.96058   0.38398   0.00000  Uiso   1.00
C631   C     0.28951   0.68373   0.57440   0.00000  Uiso   1.00
N632   N     0.31387   0.70609   0.61602   0.00000  Uiso   1.00
C633   C     0.19820   0.79065   0.64523   0.00000  Uiso   1.00
H634   H     0.20013   0.75719   0.60800   0.00000  Uiso   1.00
O635   O     0.16133   0.80252   0.65925   0.00000  Uiso   1.00
C636   C     0.30180   0.87602   0.35477   0.00000  Uiso   1.00
H637   H     0.29987   0.90948   0.39199   0.00000  Uiso   1.00
O638   O     0.33867   0.86414   0.34076   0.00000  Uiso   1.00
C639   C     0.74769   0.73353   0.48475   0.00000  Uiso   1.00
C640   C     0.75231   0.93314   0.51525   0.00000  Uiso   1.00
C641   C     0.51389   0.73994   0.45015   0.00000  Uiso   1.00
C642   C     0.98611   0.92673   0.54985   0.00000  Uiso   1.00
C643   C     0.74110   0.67790   0.47794   0.00000  Uiso   1.00
C644   C     0.75890   0.98877   0.52206   0.00000  Uiso   1.00
C645   C     0.66480   0.83284   0.50032   0.00000  Uiso   1.00
C646   C     0.83520   0.83382   0.49968   0.00000  Uiso   1.00
C647   C     0.91047   0.88179   0.52120   0.00000  Uiso   1.00
C648   C     0.58953   0.78488   0.47880   0.00000  Uiso   1.00
C649   C     0.88339   0.83419   0.49888   0.00000  Uiso   1.00
C650   C     0.61661   0.83248   0.50112   0.00000  Uiso   1.00
C651   C     0.90179   0.78703   0.47473   0.00000  Uiso   1.00
C652   C     0.59821   0.87964   0.52527   0.00000  Uiso   1.00
C653   C     0.94846   0.78674   0.47427   0.00000  Uiso   1.00
C654   C     0.55154   0.87993   0.52573   0.00000  Uiso   1.00
C655   C     0.97643   0.83368   0.49932   0.00000  Uiso   1.00
C656   C     0.52357   0.83299   0.50068   0.00000  Uiso   1.00
C657   C     0.95748   0.88126   0.52311   0.00000  Uiso   1.00
C658   C     0.54252   0.78541   0.47689   0.00000  Uiso   1.00
C659   C     0.96783   0.74045   0.44942   0.00000  Uiso   1.00
C660   C     0.53217   0.92621   0.55058   0.00000  Uiso   1.00
Cu661  Cu    0.75501   0.83913   0.56146   0.00000  Uiso   1.00
Cu662  Cu    0.74500   0.82754   0.43854   0.00000  Uiso   1.00
H663   H     0.94755   0.70406   0.42874   0.00000  Uiso   1.00
H664   H     0.55245   0.96261   0.57126   0.00000  Uiso   1.00
H665   H     0.52646   0.70345   0.42849   0.00000  Uiso   1.00
H666   H     0.97354   0.96322   0.57151   0.00000  Uiso   1.00
N667   N     0.73745   0.81881   0.34617   0.00000  Uiso   1.00
N668   N     0.76256   0.84786   0.65383   0.00000  Uiso   1.00
O669   O     0.75326   0.76204   0.53992   0.00000  Uiso   1.00
O670   O     0.74675   0.90462   0.46008   0.00000  Uiso   1.00
O671   O     0.74480   0.75226   0.43612   0.00000  Uiso   1.00
O672   O     0.75520   0.91441   0.56388   0.00000  Uiso   1.00
O673   O     0.68936   0.83821   0.55191   0.00000  Uiso   1.00
O674   O     0.81065   0.82845   0.44809   0.00000  Uiso   1.00
O675   O     0.68090   0.82843   0.44810   0.00000  Uiso   1.00
O676   O     0.81910   0.83824   0.55190   0.00000  Uiso   1.00
C677   C     0.88864   0.93153   0.54029   0.00000  Uiso   1.00
H678   H     0.86049   0.93260   0.56739   0.00000  Uiso   1.00
O679   O     0.90039   0.97085   0.52313   0.00000  Uiso   1.00
C680   C     0.61136   0.73514   0.45971   0.00000  Uiso   1.00
H681   H     0.63951   0.73407   0.43261   0.00000  Uiso   1.00
O682   O     0.59961   0.69581   0.47687   0.00000  Uiso   1.00
C683   C     0.87240   0.73899   0.45114   0.00000  Uiso   1.00
N684   N     0.84903   0.70077   0.43233   0.00000  Uiso   1.00
C685   C     0.62760   0.92768   0.54886   0.00000  Uiso   1.00
N686   N     0.65097   0.96589   0.56767   0.00000  Uiso   1.00
C687   C     0.71049   0.98294   0.42561   0.00000  Uiso   1.00
N688   N     0.68613   0.96058   0.38398   0.00000  Uiso   1.00
C689   C     0.78951   0.68373   0.57440   0.00000  Uiso   1.00
N690   N     0.81387   0.70609   0.61602   0.00000  Uiso   1.00
C691   C     0.69820   0.79065   0.64523   0.00000  Uiso   1.00
H692   H     0.70013   0.75719   0.60800   0.00000  Uiso   1.00
O693   O     0.66133   0.80252   0.65925   0.00000  Uiso   1.00
C694   C     0.80180   0.87602   0.35477   0.00000  Uiso   1.00
H695   H     0.79987   0.90948   0.39199   0.00000  Uiso   1.00
O696   O     0.83867   0.86414   0.34076   0.00000  Uiso   1.00
C697   C     0.24769   0.06686   0.81808   0.00000  Uiso   1.00
C698   C     0.25231   0.26647   0.84858   0.00000  Uiso   1.00
C699   C     0.01389   0.07327   0.78348   0.00000  Uiso   1.00
C700   C     0.48611   0.26006   0.88319   0.00000  Uiso   1.00
C701   C     0.24110   0.01123   0.81128   0.00000  Uiso   1.00
C702   C     0.25890   0.32210   0.85539   0.00000  Uiso   1.00
C703   C     0.16480   0.16618   0.83366   0.00000  Uiso   1.00
C704   C     0.33520   0.16716   0.83301   0.00000  Uiso   1.00
C705   C     0.41047   0.21512   0.85453   0.00000  Uiso   1.00
C706   C     0.08953   0.11821   0.81213   0.00000  Uiso   1.00
C707   C     0.38339   0.16752   0.83222   0.00000  Uiso   1.00
C708   C     0.11661   0.16581   0.83445   0.00000  Uiso   1.00
C709   C     0.40179   0.12036   0.80807   0.00000  Uiso   1.00
C710   C     0.09821   0.21297   0.85860   0.00000  Uiso   1.00
C711   C     0.44846   0.12007   0.80760   0.00000  Uiso   1.00
C712   C     0.05154   0.21326   0.85906   0.00000  Uiso   1.00
C713   C     0.47643   0.16701   0.83265   0.00000  Uiso   1.00
C714   C     0.02357   0.16632   0.83402   0.00000  Uiso   1.00
C715   C     0.45748   0.21459   0.85645   0.00000  Uiso   1.00
C716   C     0.04252   0.11874   0.81022   0.00000  Uiso   1.00
C717   C     0.46783   0.07379   0.78275   0.00000  Uiso   1.00
C718   C     0.03217   0.25955   0.88392   0.00000  Uiso   1.00
Cu719  Cu    0.25501   0.17246   0.89479   0.00000  Uiso   1.00
Cu720  Cu    0.24500   0.16087   0.77187   0.00000  Uiso   1.00
H721   H     0.44755   0.03739   0.76207   0.00000  Uiso   1.00
H722   H     0.05245   0.29594   0.90460   0.00000  Uiso   1.00
H723   H     0.02646   0.03678   0.76182   0.00000  Uiso   1.00
H724   H     0.47354   0.29655   0.90484   0.00000  Uiso   1.00
N725   N     0.23745   0.15214   0.67951   0.00000  Uiso   1.00
N726   N     0.26256   0.18119   0.98716   0.00000  Uiso   1.00
O727   O     0.25326   0.09538   0.87326   0.00000  Uiso   1.00
O728   O     0.24675   0.23796   0.79341   0.00000  Uiso   1.00
O729   O     0.24480   0.08559   0.76945   0.00000  Uiso   1.00
O730   O     0.25520   0.24774   0.89721   0.00000  Uiso   1.00
O731   O     0.18936   0.17155   0.88524   0.00000  Uiso   1.00
O732   O     0.31065   0.16179   0.78143   0.00000  Uiso   1.00
O733   O     0.18090   0.16176   0.78143   0.00000  Uiso   1.00
O734   O     0.31910   0.17157   0.88523   0.00000  Uiso   1.00
C735   C     0.38864   0.26486   0.87362   0.00000  Uiso   1.00
H736   H     0.36049   0.26594   0.90073   0.00000  Uiso   1.00
O737   O     0.40039   0.30419   0.85647   0.00000  Uiso   1.00
C738   C     0.11136   0.06847   0.79304   0.00000  Uiso   1.00
H739   H     0.13951   0.06740   0.76594   0.00000  Uiso   1.00
O740   O     0.09961   0.02915   0.81020   0.00000  Uiso   1.00
C741   C     0.37240   0.07232   0.78447   0.00000  Uiso   1.00
N742   N     0.34903   0.03411   0.76566   0.00000  Uiso   1.00
C743   C     0.12760   0.26101   0.88220   0.00000  Uiso   1.00
N744   N     0.15097   0.29923   0.90100   0.00000  Uiso   1.00
C745   C     0.21049   0.31627   0.75894   0.00000  Uiso   1.00
N746   N     0.18613   0.29391   0.71731   0.00000  Uiso   1.00
C747   C     0.28951   0.01706   0.90773   0.00000  Uiso   1.00
N748   N     0.31387   0.03942   0.94936   0.00000  Uiso   1.00
C749   C     0.19820   0.12398   0.97856   0.00000  Uiso   1.00
H750   H     0.20013   0.09053   0.94134   0.00000  Uiso   1.00
O751   O     0.16133   0.13585   0.99258   0.00000  Uiso   1.00
C752   C     0.30180   0.20935   0.68811   0.00000  Uiso   1.00
H753   H     0.29987   0.24282   0.72532   0.00000  Uiso   1.00
O754   O     0.33867   0.19747   0.67410   0.00000  Uiso   1.00
C755   C     0.74769   0.06686   0.81808   0.00000  Uiso   1.00
C756   C     0.75231   0.26647   0.84858   0.00000  Uiso   1.00
C757   C     0.51389   0.07327   0.78348   0.00000  Uiso   1.00
C758   C     0.98611   0.26006   0.88319   0.00000  Uiso   1.00
C759   C     0.74110   0.01123   0.81128   0.00000  Uiso   1.00
C760   C     0.75890   0.32210   0.85539   0.00000  Uiso   1.00
C761   C     0.66480   0.16618   0.83366   0.00000  Uiso   1.00
C762   C     0.83520   0.16716   0.83301   0.00000  Uiso   1.00
C763   C     0.91047   0.21512   0.85453   0.00000  Uiso   1.00
C764   C     0.58953   0.11821   0.81213   0.00000  Uiso   1.00
C765   C     0.88339   0.16752   0.83222   0.00000  Uiso   1.00
C766   C     0.61661   0.16581   0.83445   0.00000  Uiso   1.00
C767   C     0.90179   0.12036   0.80807   0.00000  Uiso   1.00
C768   C     0.59821   0.21297   0.85860   0.00000  Uiso   1.00
C769   C     0.94846   0.12007   0.80760   0.00000  Uiso   1.00
C770   C     0.55154   0.21326   0.85906   0.00000  Uiso   1.00
C771   C     0.97643   0.16701   0.83265   0.00000  Uiso   1.00
C772   C     0.52357   0.16632   0.83402   0.00000  Uiso   1.00
C773   C     0.95748   0.21459   0.85645   0.00000  Uiso   1.00
C774   C     0.54252   0.11874   0.81022   0.00000  Uiso   1.00
C775   C     0.96783   0.07379   0.78275   0.00000  Uiso   1.00
C776   C     0.53217   0.25955   0.88392   0.00000  Uiso   1.00
Cu777  Cu    0.75501   0.17246   0.89479   0.00000  Uiso   1.00
Cu778  Cu    0.74500   0.16087   0.77187   0.00000  Uiso   1.00
H779   H     0.94755   0.03739   0.76207   0.00000  Uiso   1.00
H780   H     0.55245   0.29594   0.90460   0.00000  Uiso   1.00
H781   H     0.52646   0.03678   0.76182   0.00000  Uiso   1.00
H782   H     0.97354   0.29655   0.90484   0.00000  Uiso   1.00
N783   N     0.73745   0.15214   0.67951   0.00000  Uiso   1.00
N784   N     0.76256   0.18119   0.98716   0.00000  Uiso   1.00
O785   O     0.75326   0.09538   0.87326   0.00000  Uiso   1.00
O786   O     0.74675   0.23796   0.79341   0.00000  Uiso   1.00
O787   O     0.74480   0.08559   0.76945   0.00000  Uiso   1.00
O788   O     0.75520   0.24774   0.89721   0.00000  Uiso   1.00
O789   O     0.68936   0.17155   0.88524   0.00000  Uiso   1.00
O790   O     0.81065   0.16179   0.78143   0.00000  Uiso   1.00
O791   O     0.68090   0.16176   0.78143   0.00000  Uiso   1.00
O792   O     0.81910   0.17157   0.88523   0.00000  Uiso   1.00
C793   C     0.88864   0.26486   0.87362   0.00000  Uiso   1.00
H794   H     0.86049   0.26594   0.90073   0.00000  Uiso   1.00
O795   O     0.90039   0.30419   0.85647   0.00000  Uiso   1.00
C796   C     0.61136   0.06847   0.79304   0.00000  Uiso   1.00
H797   H     0.63951   0.06740   0.76594   0.00000  Uiso   1.00
O798   O     0.59961   0.02915   0.81020   0.00000  Uiso   1.00
C799   C     0.87240   0.07232   0.78447   0.00000  Uiso   1.00
N800   N     0.84903   0.03411   0.76566   0.00000  Uiso   1.00
C801   C     0.62760   0.26101   0.88220   0.00000  Uiso   1.00
N802   N     0.65097   0.29923   0.90100   0.00000  Uiso   1.00
C803   C     0.71049   0.31627   0.75894   0.00000  Uiso   1.00
N804   N     0.68613   0.29391   0.71731   0.00000  Uiso   1.00
C805   C     0.78951   0.01706   0.90773   0.00000  Uiso   1.00
N806   N     0.81387   0.03942   0.94936   0.00000  Uiso   1.00
C807   C     0.69820   0.12398   0.97856   0.00000  Uiso   1.00
H808   H     0.70013   0.09053   0.94134   0.00000  Uiso   1.00
O809   O     0.66133   0.13585   0.99258   0.00000  Uiso   1.00
C810   C     0.80180   0.20935   0.68811   0.00000  Uiso   1.00
H811   H     0.79987   0.24282   0.72532   0.00000  Uiso   1.00
O812   O     0.83867   0.19747   0.67410   0.00000  Uiso   1.00
C813   C     0.24769   0.40019   0.81808   0.00000  Uiso   1.00
C814   C     0.25231   0.59981   0.84858   0.00000  Uiso   1.00
C815   C     0.01389   0.40660   0.78348   0.00000  Uiso   1.00
C816   C     0.48611   0.59340   0.88319   0.00000  Uiso   1.00
C817   C     0.24110   0.34457   0.81128   0.00000  Uiso   1.00
C818   C     0.25890   0.65543   0.85539   0.00000  Uiso   1.00
C819   C     0.16480   0.49951   0.83366   0.00000  Uiso   1.00
C820   C     0.33520   0.50049   0.83301   0.00000  Uiso   1.00
C821   C     0.41047   0.54846   0.85453   0.00000  Uiso   1.00
C822   C     0.08953   0.45154   0.81213   0.00000  Uiso   1.00
C823   C     0.38339   0.50086   0.83222   0.00000  Uiso   1.00
C824   C     0.11661   0.49914   0.83445   0.00000  Uiso   1.00
C825   C     0.40179   0.45370   0.80807   0.00000  Uiso   1.00
C826   C     0.09821   0.54630   0.85860   0.00000  Uiso   1.00
C827   C     0.44846   0.45341   0.80760   0.00000  Uiso   1.00
C828   C     0.05154   0.54659   0.85906   0.00000  Uiso   1.00
C829   C     0.47643   0.50035   0.83265   0.00000  Uiso   1.00
C830   C     0.02357   0.49965   0.83402   0.00000  Uiso   1.00
C831   C     0.45748   0.54792   0.85645   0.00000  Uiso   1.00
C832   C     0.04252   0.45208   0.81022   0.00000  Uiso   1.00
C833   C     0.46783   0.40712   0.78275   0.00000  Uiso   1.00
C834   C     0.03217   0.59288   0.88392   0.00000  Uiso   1.00
Cu835  Cu    0.25501   0.50579   0.89479   0.00000  Uiso   1.00
Cu836  Cu    0.24500   0.49421   0.77187   0.00000  Uiso   1.00
H837   H     0.44755   0.37072   0.76207   0.00000  Uiso   1.00
H838   H     0.05245   0.62928   0.90460   0.00000  Uiso   1.00
H839   H     0.02646   0.37012   0.76182   0.00000  Uiso   1.00
H840   H     0.47354   0.62989   0.90484   0.00000  Uiso   1.00
N841   N     0.23745   0.48547   0.67951   0.00000  Uiso   1.00
N842   N     0.26256   0.51453   0.98716   0.00000  Uiso   1.00
O843   O     0.25326   0.42871   0.87326   0.00000  Uiso   1.00
O844   O     0.24675   0.57129   0.79341   0.00000  Uiso   1.00
O845   O     0.24480   0.41892   0.76945   0.00000  Uiso   1.00
O846   O     0.25520   0.58108   0.89721   0.00000  Uiso   1.00
O847   O     0.18936   0.50488   0.88524   0.00000  Uiso   1.00
O848   O     0.31065   0.49512   0.78143   0.00000  Uiso   1.00
O849   O     0.18090   0.49510   0.78143   0.00000  Uiso   1.00
O850   O     0.31910   0.50490   0.88523   0.00000  Uiso   1.00
C851   C     0.38864   0.59819   0.87362   0.00000  Uiso   1.00
H852   H     0.36049   0.59927   0.90073   0.00000  Uiso   1.00
O853   O     0.40039   0.63752   0.85647   0.00000  Uiso   1.00
C854   C     0.11136   0.40181   0.79304   0.00000  Uiso   1.00
H855   H     0.13951   0.40073   0.76594   0.00000  Uiso   1.00
O856   O     0.09961   0.36248   0.81020   0.00000  Uiso   1.00
C857   C     0.37240   0.40565   0.78447   0.00000  Uiso   1.00
N858   N     0.34903   0.36744   0.76566   0.00000  Uiso   1.00
C859   C     0.12760   0.59435   0.88220   0.00000  Uiso   1.00
N860   N     0.15097   0.63256   0.90100   0.00000  Uiso   1.00
C861   C     0.21049   0.64961   0.75894   0.00000  Uiso   1.00
N862   N     0.18613   0.62725   0.71731   0.00000  Uiso   1.00
C863   C     0.28951   0.35039   0.90773   0.00000  Uiso   1.00
N864   N     0.31387   0.37275   0.94936   0.00000  Uiso   1.00
C865   C     0.19820   0.45732   0.97856   0.00000  Uiso   1.00
H866   H     0.20013   0.42386   0.94134   0.00000  Uiso   1.00
O867   O     0.16133   0.46919   0.99258   0.00000  Uiso   1.00
C868   C     0.30180   0.54268   0.68811   0.00000  Uiso   1.00
H869   H     0.29987   0.57615   0.72532   0.00000  Uiso   1.00
O870   O     0.33867   0.53081   0.67410   0.00000  Uiso   1.00
C871   C     0.74769   0.40019   0.81808   0.00000  Uiso   1.00
C872   C     0.75231   0.59981   0.84858   0.00000  Uiso   1.00
C873   C     0.51389   0.40660   0.78348   0.00000  Uiso   1.00
C874   C     0.98611   0.59340   0.88319   0.00000  Uiso   1.00
C875   C     0.74110   0.34457   0.81128   0.00000  Uiso   1.00
C876   C     0.75890   0.65543   0.85539   0.00000  Uiso   1.00
C877   C     0.66480   0.49951   0.83366   0.00000  Uiso   1.00
C878   C     0.83520   0.50049   0.83301   0.00000  Uiso   1.00
C879   C     0.91047   0.54846   0.85453   0.00000  Uiso   1.00
C880   C     0.58953   0.45154   0.81213   0.00000  Uiso   1.00
C881   C     0.88339   0.50086   0.83222   0.00000  Uiso   1.00
C882   C     0.61661   0.49914   0.83445   0.00000  Uiso   1.00
C883   C     0.90179   0.45370   0.80807   0.00000  Uiso   1.00
C884   C     0.59821   0.54630   0.85860   0.00000  Uiso   1.00
C885   C     0.94846   0.45341   0.80760   0.00000  Uiso   1.00
C886   C     0.55154   0.54659   0.85906   0.00000  Uiso   1.00
C887   C     0.97643   0.50035   0.83265   0.00000  Uiso   1.00
C888   C     0.52357   0.49965   0.83402   0.00000  Uiso   1.00
C889   C     0.95748   0.54792   0.85645   0.00000  Uiso   1.00
C890   C     0.54252   0.45208   0.81022   0.00000  Uiso   1.00
C891   C     0.96783   0.40712   0.78275   0.00000  Uiso   1.00
C892   C     0.53217   0.59288   0.88392   0.00000  Uiso   1.00
Cu893  Cu    0.75501   0.50579   0.89479   0.00000  Uiso   1.00
Cu894  Cu    0.74500   0.49421   0.77187   0.00000  Uiso   1.00
H895   H     0.94755   0.37072   0.76207   0.00000  Uiso   1.00
H896   H     0.55245   0.62928   0.90460   0.00000  Uiso   1.00
H897   H     0.52646   0.37012   0.76182   0.00000  Uiso   1.00
H898   H     0.97354   0.62989   0.90484   0.00000  Uiso   1.00
N899   N     0.73745   0.48547   0.67951   0.00000  Uiso   1.00
N900   N     0.76256   0.51453   0.98716   0.00000  Uiso   1.00
O901   O     0.75326   0.42871   0.87326   0.00000  Uiso   1.00
O902   O     0.74675   0.57129   0.79341   0.00000  Uiso   1.00
O903   O     0.74480   0.41892   0.76945   0.00000  Uiso   1.00
O904   O     0.75520   0.58108   0.89721   0.00000  Uiso   1.00
O905   O     0.68936   0.50488   0.88524   0.00000  Uiso   1.00
O906   O     0.81065   0.49512   0.78143   0.00000  Uiso   1.00
O907   O     0.68090   0.49510   0.78143   0.00000  Uiso   1.00
O908   O     0.81910   0.50490   0.88523   0.00000  Uiso   1.00
C909   C     0.88864   0.59819   0.87362   0.00000  Uiso   1.00
H910   H     0.86049   0.59927   0.90073   0.00000  Uiso   1.00
O911   O     0.90039   0.63752   0.85647   0.00000  Uiso   1.00
C912   C     0.61136   0.40181   0.79304   0.00000  Uiso   1.00
H913   H     0.63951   0.40073   0.76594   0.00000  Uiso   1.00
O914   O     0.59961   0.36248   0.81020   0.00000  Uiso   1.00
C915   C     0.87240   0.40565   0.78447   0.00000  Uiso   1.00
N916   N     0.84903   0.36744   0.76566   0.00000  Uiso   1.00
C917   C     0.62760   0.59435   0.88220   0.00000  Uiso   1.00
N918   N     0.65097   0.63256   0.90100   0.00000  Uiso   1.00
C919   C     0.71049   0.64961   0.75894   0.00000  Uiso   1.00
N920   N     0.68613   0.62725   0.71731   0.00000  Uiso   1.00
C921   C     0.78951   0.35039   0.90773   0.00000  Uiso   1.00
N922   N     0.81387   0.37275   0.94936   0.00000  Uiso   1.00
C923   C     0.69820   0.45732   0.97856   0.00000  Uiso   1.00
H924   H     0.70013   0.42386   0.94134   0.00000  Uiso   1.00
O925   O     0.66133   0.46919   0.99258   0.00000  Uiso   1.00
C926   C     0.80180   0.54268   0.68811   0.00000  Uiso   1.00
H927   H     0.79987   0.57615   0.72532   0.00000  Uiso   1.00
O928   O     0.83867   0.53081   0.67410   0.00000  Uiso   1.00
C929   C     0.24769   0.73353   0.81808   0.00000  Uiso   1.00
C930   C     0.25231   0.93314   0.84858   0.00000  Uiso   1.00
C931   C     0.01389   0.73994   0.78348   0.00000  Uiso   1.00
C932   C     0.48611   0.92673   0.88319   0.00000  Uiso   1.00
C933   C     0.24110   0.67790   0.81128   0.00000  Uiso   1.00
C934   C     0.25890   0.98877   0.85539   0.00000  Uiso   1.00
C935   C     0.16480   0.83284   0.83366   0.00000  Uiso   1.00
C936   C     0.33520   0.83382   0.83301   0.00000  Uiso   1.00
C937   C     0.41047   0.88179   0.85453   0.00000  Uiso   1.00
C938   C     0.08953   0.78488   0.81213   0.00000  Uiso   1.00
C939   C     0.38339   0.83419   0.83222   0.00000  Uiso   1.00
C940   C     0.11661   0.83248   0.83445   0.00000  Uiso   1.00
C941   C     0.40179   0.78703   0.80807   0.00000  Uiso   1.00
C942   C     0.09821   0.87964   0.85860   0.00000  Uiso   1.00
C943   C     0.44846   0.78674   0.80760   0.00000  Uiso   1.00
C944   C     0.05154   0.87993   0.85906   0.00000  Uiso   1.00
C945   C     0.47643   0.83368   0.83265   0.00000  Uiso   1.00
C946   C     0.02357   0.83299   0.83402   0.00000  Uiso   1.00
C947   C     0.45748   0.88126   0.85645   0.00000  Uiso   1.00
C948   C     0.04252   0.78541   0.81022   0.00000  Uiso   1.00
C949   C     0.46783   0.74045   0.78275   0.00000  Uiso   1.00
C950   C     0.03217   0.92621   0.88392   0.00000  Uiso   1.00
Cu951  Cu    0.25501   0.83913   0.89479   0.00000  Uiso   1.00
Cu952  Cu    0.24500   0.82754   0.77187   0.00000  Uiso   1.00
H953   H     0.44755   0.70406   0.76207   0.00000  Uiso   1.00
H954   H     0.05245   0.96261   0.90460   0.00000  Uiso   1.00
H955   H     0.02646   0.70345   0.76182   0.00000  Uiso   1.00
H956   H     0.47354   0.96322   0.90484   0.00000  Uiso   1.00
N957   N     0.23745   0.81881   0.67951   0.00000  Uiso   1.00
N958   N     0.26256   0.84786   0.98716   0.00000  Uiso   1.00
O959   O     0.25326   0.76204   0.87326   0.00000  Uiso   1.00
O960   O     0.24675   0.90462   0.79341   0.00000  Uiso   1.00
O961   O     0.24480   0.75226   0.76945   0.00000  Uiso   1.00
O962   O     0.25520   0.91441   0.89721   0.00000  Uiso   1.00
O963   O     0.18936   0.83821   0.88524   0.00000  Uiso   1.00
O964   O     0.31065   0.82845   0.78143   0.00000  Uiso   1.00
O965   O     0.18090   0.82843   0.78143   0.00000  Uiso   1.00
O966   O     0.31910   0.83824   0.88523   0.00000  Uiso   1.00
C967   C     0.38864   0.93153   0.87362   0.00000  Uiso   1.00
H968   H     0.36049   0.93260   0.90073   0.00000  Uiso   1.00
O969   O     0.40039   0.97085   0.85647   0.00000  Uiso   1.00
C970   C     0.11136   0.73514   0.79304   0.00000  Uiso   1.00
H971   H     0.13951   0.73407   0.76594   0.00000  Uiso   1.00
O972   O     0.09961   0.69581   0.81020   0.00000  Uiso   1.00
C973   C     0.37240   0.73899   0.78447   0.00000  Uiso   1.00
N974   N     0.34903   0.70077   0.76566   0.00000  Uiso   1.00
C975   C     0.12760   0.92768   0.88220   0.00000  Uiso   1.00
N976   N     0.15097   0.96589   0.90100   0.00000  Uiso   1.00
C977   C     0.21049   0.98294   0.75894   0.00000  Uiso   1.00
N978   N     0.18613   0.96058   0.71731   0.00000  Uiso   1.00
C979   C     0.28951   0.68373   0.90773   0.00000  Uiso   1.00
N980   N     0.31387   0.70609   0.94936   0.00000  Uiso   1.00
C981   C     0.19820   0.79065   0.97856   0.00000  Uiso   1.00
H982   H     0.20013   0.75719   0.94134   0.00000  Uiso   1.00
O983   O     0.16133   0.80252   0.99258   0.00000  Uiso   1.00
C984   C     0.30180   0.87602   0.68811   0.00000  Uiso   1.00
H985   H     0.29987   0.90948   0.72532   0.00000  Uiso   1.00
O986   O     0.33867   0.86414   0.67410   0.00000  Uiso   1.00
C987   C     0.74769   0.73353   0.81808   0.00000  Uiso   1.00
C988   C     0.75231   0.93314   0.84858   0.00000  Uiso   1.00
C989   C     0.51389   0.73994   0.78348   0.00000  Uiso   1.00
C990   C     0.98611   0.92673   0.88319   0.00000  Uiso   1.00
C991   C     0.74110   0.67790   0.81128   0.00000  Uiso   1.00
C992   C     0.75890   0.98877   0.85539   0.00000  Uiso   1.00
C993   C     0.66480   0.83284   0.83366   0.00000  Uiso   1.00
C994   C     0.83520   0.83382   0.83301   0.00000  Uiso   1.00
C995   C     0.91047   0.88179   0.85453   0.00000  Uiso   1.00
C996   C     0.58953   0.78488   0.81213   0.00000  Uiso   1.00
C997   C     0.88339   0.83419   0.83222   0.00000  Uiso   1.00
C998   C     0.61661   0.83248   0.83445   0.00000  Uiso   1.00
C999   C     0.90179   0.78703   0.80807   0.00000  Uiso   1.00
C1000  C     0.59821   0.87964   0.85860   0.00000  Uiso   1.00
C1001  C     0.94846   0.78674   0.80760   0.00000  Uiso   1.00
C1002  C     0.55154   0.87993   0.85906   0.00000  Uiso   1.00
C1003  C     0.97643   0.83368   0.83265   0.00000  Uiso   1.00
C1004  C     0.52357   0.83299   0.83402   0.00000  Uiso   1.00
C1005  C     0.95748   0.88126   0.85645   0.00000  Uiso   1.00
C1006  C     0.54252   0.78541   0.81022   0.00000  Uiso   1.00
C1007  C     0.96783   0.74045   0.78275   0.00000  Uiso   1.00
C1008  C     0.53217   0.92621   0.88392   0.00000  Uiso   1.00
Cu1009 Cu    0.75501   0.83913   0.89479   0.00000  Uiso   1.00
Cu1010 Cu    0.74500   0.82754   0.77187   0.00000  Uiso   1.00
H1011  H     0.94755   0.70406   0.76207   0.00000  Uiso   1.00
H1012  H     0.55245   0.96261   0.90460   0.00000  Uiso   1.00
H1013  H     0.52646   0.70345   0.76182   0.00000  Uiso   1.00
H1014  H     0.97354   0.96322   0.90484   0.00000  Uiso   1.00
N1015  N     0.73745   0.81881   0.67951   0.00000  Uiso   1.00
N1016  N     0.76256   0.84786   0.98716   0.00000  Uiso   1.00
O1017  O     0.75326   0.76204   0.87326   0.00000  Uiso   1.00
O1018  O     0.74675   0.90462   0.79341   0.00000  Uiso   1.00
O1019  O     0.74480   0.75226   0.76945   0.00000  Uiso   1.00
O1020  O     0.75520   0.91441   0.89721   0.00000  Uiso   1.00
O1021  O     0.68936   0.83821   0.88524   0.00000  Uiso   1.00
O1022  O     0.81065   0.82845   0.78143   0.00000  Uiso   1.00
O1023  O     0.68090   0.82843   0.78143   0.00000  Uiso   1.00
O1024  O     0.81910   0.83824   0.88523   0.00000  Uiso   1.00
C1025  C     0.88864   0.93153   0.87362   0.00000  Uiso   1.00
H1026  H     0.86049   0.93260   0.90073   0.00000  Uiso   1.00
O1027  O     0.90039   0.97085   0.85647   0.00000  Uiso   1.00
C1028  C     0.61136   0.73514   0.79304   0.00000  Uiso   1.00
H1029  H     0.63951   0.73407   0.76594   0.00000  Uiso   1.00
O1030  O     0.59961   0.69581   0.81020   0.00000  Uiso   1.00
C1031  C     0.87240   0.73899   0.78447   0.00000  Uiso   1.00
N1032  N     0.84903   0.70077   0.76566   0.00000  Uiso   1.00
C1033  C     0.62760   0.92768   0.88220   0.00000  Uiso   1.00
N1034  N     0.65097   0.96589   0.90100   0.00000  Uiso   1.00
C1035  C     0.71049   0.98294   0.75894   0.00000  Uiso   1.00
N1036  N     0.68613   0.96058   0.71731   0.00000  Uiso   1.00
C1037  C     0.78951   0.68373   0.90773   0.00000  Uiso   1.00
N1038  N     0.81387   0.70609   0.94936   0.00000  Uiso   1.00
C1039  C     0.69820   0.79065   0.97856   0.00000  Uiso   1.00
H1040  H     0.70013   0.75719   0.94134   0.00000  Uiso   1.00
O1041  O     0.66133   0.80252   0.99258   0.00000  Uiso   1.00
C1042  C     0.80180   0.87602   0.68811   0.00000  Uiso   1.00
H1043  H     0.79987   0.90948   0.72532   0.00000  Uiso   1.00
O1044  O     0.83867   0.86414   0.67410   0.00000  Uiso   1.00
loop_
_geom_bond_atom_site_label_1
_geom_bond_atom_site_label_2
_geom_bond_distance
_geom_bond_site_symmetry_2
_ccdc_geom_bond_type
C1     O31     1.292   .     A
C1     O33     1.299   .     A
C1     C5      1.429   .     S
C2     O34     1.299   .     A
C2     C6      1.429   .     S
C2     O32     1.292   .     A
C3     H27     1.080   .     S
C3     C20     1.405   .     A
C3     C79     1.384   1_455 S
C4     H28     1.080   .     S
C4     C19     1.405   .     A
C4     C80     1.384   .     S
C5     C238    1.356   1_545 S
C5     C281    1.457   1_545 S
C6     C121    1.356   .     S
C6     C167    1.457   .     S
C7     O37     1.298   .     A
C7     O35     1.299   .     A
C7     C12     1.449   .     S
C8     O38     1.298   .     A
C8     C11     1.449   .     S
C8     O36     1.299   .     A
C9     C11     1.408   .     A
C9     C19     1.411   .     A
C9     C39     1.492   .     S
C10    C42     1.492   .     S
C10    C12     1.408   .     A
C10    C20     1.411   .     A
C11    C13     1.404   .     A
C12    C14     1.404   .     A
C13    C45     1.455   .     S
C13    C15     1.404   .     A
C14    C47     1.455   .     S
C14    C16     1.404   .     A
C15    C21     1.404   .     A
C15    C17     1.417   .     A
C16    C18     1.417   .     A
C16    C22     1.404   .     A
C17    C19     1.420   .     A
C17    C76     1.415   .     S
C18    C20     1.420   .     A
C18    C75     1.415   1_455 S
C21    H25     1.083   .     S
C21    C61     1.384   .     S
C22    H26     1.083   .     S
C22    C62     1.384   1_455 S
Cu23   Cu24    2.713   .     S
Cu23   O38     1.958   .     S
Cu23   O34     1.961   .     S
Cu23   O35     1.964   .     S
Cu23   N30     2.039   .     S
Cu23   O31     1.965   .     S
Cu24   O32     1.965   .     S
Cu24   O33     1.961   .     S
Cu24   O37     1.958   .     S
Cu24   O36     1.964   .     S
Cu24   N29     2.039   .     S
N29    N726    1.297   1_554 S
N29    C749    1.416   1_554 S
N30    N377    1.297   .     S
N30    C404    1.416   .     S
C39    O41     1.221   .     D
C39    H40     1.085   .     S
C42    O44     1.221   .     D
C42    H43     1.085   .     S
C45    N46     1.157   .     T
C47    N48     1.157   .     T
C49    N50     1.158   .     T
C49    C121    1.457   .     S
C51    N52     1.158   .     T
C51    C238    1.457   1_545 S
C53    O55     1.220   .     D
C53    H54     1.079   .     S
C53    N377    1.416   .     S
C56    H57     1.079   .     S
C56    O58     1.220   .     D
C56    N726    1.416   1_554 S
C59    O89     1.292   .     A
C59    O91     1.299   .     A
C59    C63     1.429   .     S
C60    O92     1.299   .     A
C60    C64     1.429   .     S
C60    O90     1.292   .     A
C61    H85     1.080   .     S
C61    C78     1.405   .     A
C62    H86     1.080   .     S
C62    C77     1.405   .     A
C62    C22     1.384   1_655 S
C63    C296    1.356   1_545 S
C63    C339    1.457   1_545 S
C64    C179    1.356   .     S
C64    C225    1.457   .     S
C65    O95     1.298   .     A
C65    O93     1.299   .     A
C65    C70     1.449   .     S
C66    O96     1.298   .     A
C66    C69     1.449   .     S
C66    O94     1.299   .     A
C67    C69     1.408   .     A
C67    C77     1.411   .     A
C67    C97     1.492   .     S
C68    C100    1.492   .     S
C68    C70     1.408   .     A
C68    C78     1.411   .     A
C69    C71     1.404   .     A
C70    C72     1.404   .     A
C71    C103    1.455   .     S
C71    C73     1.404   .     A
C72    C105    1.455   .     S
C72    C74     1.404   .     A
C73    C79     1.404   .     A
C73    C75     1.417   .     A
C74    C76     1.417   .     A
C74    C80     1.404   .     A
C75    C77     1.420   .     A
C75    C18     1.415   1_655 S
C76    C78     1.420   .     A
C79    H83     1.083   .     S
C79    C3      1.384   1_655 S
C80    H84     1.083   .     S
Cu81   Cu82    2.713   .     S
Cu81   O96     1.958   .     S
Cu81   O92     1.961   .     S
Cu81   O93     1.964   .     S
Cu81   N88     2.039   .     S
Cu81   O89     1.965   .     S
Cu82   O90     1.965   .     S
Cu82   O91     1.961   .     S
Cu82   O95     1.958   .     S
Cu82   O94     1.964   .     S
Cu82   N87     2.039   .     S
N87    N784    1.297   1_554 S
N87    C807    1.416   1_554 S
N88    N435    1.297   .     S
N88    C462    1.416   .     S
C97    O99     1.221   .     D
C97    H98     1.085   .     S
C100   O102    1.221   .     D
C100   H101    1.085   .     S
C103   N104    1.157   .     T
C105   N106    1.157   .     T
C107   N108    1.158   .     T
C107   C179    1.457   .     S
C109   N110    1.158   .     T
C109   C296    1.457   1_545 S
C111   O113    1.220   .     D
C111   H112    1.079   .     S
C111   N435    1.416   .     S
C114   H115    1.079   .     S
C114   O116    1.220   .     D
C114   N784    1.416   1_554 S
C117   O147    1.292   .     A
C117   O149    1.299   .     A
C117   C121    1.429   .     S
C118   O150    1.299   .     A
C118   C122    1.429   .     S
C118   O148    1.292   .     A
C119   H143    1.080   .     S
C119   C136    1.405   .     A
C119   C195    1.384   1_455 S
C120   H144    1.080   .     S
C120   C135    1.405   .     A
C120   C196    1.384   .     S
C122   C237    1.356   .     S
C122   C283    1.457   .     S
C123   O153    1.298   .     A
C123   O151    1.299   .     A
C123   C128    1.449   .     S
C124   O154    1.298   .     A
C124   C127    1.449   .     S
C124   O152    1.299   .     A
C125   C127    1.408   .     A
C125   C135    1.411   .     A
C125   C155    1.492   .     S
C126   C158    1.492   .     S
C126   C128    1.408   .     A
C126   C136    1.411   .     A
C127   C129    1.404   .     A
C128   C130    1.404   .     A
C129   C161    1.455   .     S
C129   C131    1.404   .     A
C130   C163    1.455   .     S
C130   C132    1.404   .     A
C131   C137    1.404   .     A
C131   C133    1.417   .     A
C132   C134    1.417   .     A
C132   C138    1.404   .     A
C133   C135    1.420   .     A
C133   C192    1.415   .     S
C134   C136    1.420   .     A
C134   C191    1.415   1_455 S
C137   H141    1.083   .     S
C137   C177    1.384   .     S
C138   H142    1.083   .     S
C138   C178    1.384   1_455 S
Cu139  Cu140   2.713   .     S
Cu139  O154    1.958   .     S
Cu139  O150    1.961   .     S
Cu139  O151    1.964   .     S
Cu139  N146    2.039   .     S
Cu139  O147    1.965   .     S
Cu140  O148    1.965   .     S
Cu140  O149    1.961   .     S
Cu140  O153    1.958   .     S
Cu140  O152    1.964   .     S
Cu140  N145    2.039   .     S
N145   N842    1.297   1_554 S
N145   C865    1.416   1_554 S
N146   N493    1.297   .     S
N146   C520    1.416   .     S
C155   O157    1.221   .     D
C155   H156    1.085   .     S
C158   O160    1.221   .     D
C158   H159    1.085   .     S
C161   N162    1.157   .     T
C163   N164    1.157   .     T
C165   N166    1.158   .     T
C165   C237    1.457   .     S
C167   N168    1.158   .     T
C169   O171    1.220   .     D
C169   H170    1.079   .     S
C169   N493    1.416   .     S
C172   H173    1.079   .     S
C172   O174    1.220   .     D
C172   N842    1.416   1_554 S
C175   O205    1.292   .     A
C175   O207    1.299   .     A
C175   C179    1.429   .     S
C176   O208    1.299   .     A
C176   C180    1.429   .     S
C176   O206    1.292   .     A
C177   H201    1.080   .     S
C177   C194    1.405   .     A
C178   H202    1.080   .     S
C178   C193    1.405   .     A
C178   C138    1.384   1_655 S
C180   C295    1.356   .     S
C180   C341    1.457   .     S
C181   O211    1.298   .     A
C181   O209    1.299   .     A
C181   C186    1.449   .     S
C182   O212    1.298   .     A
C182   C185    1.449   .     S
C182   O210    1.299   .     A
C183   C185    1.408   .     A
C183   C193    1.411   .     A
C183   C213    1.492   .     S
C184   C216    1.492   .     S
C184   C186    1.408   .     A
C184   C194    1.411   .     A
C185   C187    1.404   .     A
C186   C188    1.404   .     A
C187   C219    1.455   .     S
C187   C189    1.404   .     A
C188   C221    1.455   .     S
C188   C190    1.404   .     A
C189   C195    1.404   .     A
C189   C191    1.417   .     A
C190   C192    1.417   .     A
C190   C196    1.404   .     A
C191   C193    1.420   .     A
C191   C134    1.415   1_655 S
C192   C194    1.420   .     A
C195   H199    1.083   .     S
C195   C119    1.384   1_655 S
C196   H200    1.083   .     S
Cu197  Cu198   2.713   .     S
Cu197  O212    1.958   .     S
Cu197  O208    1.961   .     S
Cu197  O209    1.964   .     S
Cu197  N204    2.039   .     S
Cu197  O205    1.965   .     S
Cu198  O206    1.965   .     S
Cu198  O207    1.961   .     S
Cu198  O211    1.958   .     S
Cu198  O210    1.964   .     S
Cu198  N203    2.039   .     S
N203   N900    1.297   1_554 S
N203   C923    1.416   1_554 S
N204   N551    1.297   .     S
N204   C578    1.416   .     S
C213   O215    1.221   .     D
C213   H214    1.085   .     S
C216   O218    1.221   .     D
C216   H217    1.085   .     S
C219   N220    1.157   .     T
C221   N222    1.157   .     T
C223   N224    1.158   .     T
C223   C295    1.457   .     S
C225   N226    1.158   .     T
C227   O229    1.220   .     D
C227   H228    1.079   .     S
C227   N551    1.416   .     S
C230   H231    1.079   .     S
C230   O232    1.220   .     D
C230   N900    1.416   1_554 S
C233   O263    1.292   .     A
C233   O265    1.299   .     A
C233   C237    1.429   .     S
C234   O266    1.299   .     A
C234   C238    1.429   .     S
C234   O264    1.292   .     A
C235   H259    1.080   .     S
C235   C252    1.405   .     A
C235   C311    1.384   1_455 S
C236   H260    1.080   .     S
C236   C251    1.405   .     A
C236   C312    1.384   .     S
C238   C5      1.356   1_565 S
C238   C51     1.457   1_565 S
C239   O269    1.298   .     A
C239   O267    1.299   .     A
C239   C244    1.449   .     S
C240   O270    1.298   .     A
C240   C243    1.449   .     S
C240   O268    1.299   .     A
C241   C243    1.408   .     A
C241   C251    1.411   .     A
C241   C271    1.492   .     S
C242   C274    1.492   .     S
C242   C244    1.408   .     A
C242   C252    1.411   .     A
C243   C245    1.404   .     A
C244   C246    1.404   .     A
C245   C277    1.455   .     S
C245   C247    1.404   .     A
C246   C279    1.455   .     S
C246   C248    1.404   .     A
C247   C253    1.404   .     A
C247   C249    1.417   .     A
C248   C250    1.417   .     A
C248   C254    1.404   .     A
C249   C251    1.420   .     A
C249   C308    1.415   .     S
C250   C252    1.420   .     A
C250   C307    1.415   1_455 S
C253   H257    1.083   .     S
C253   C293    1.384   .     S
C254   H258    1.083   .     S
C254   C294    1.384   1_455 S
Cu255  Cu256   2.713   .     S
Cu255  O270    1.958   .     S
Cu255  O266    1.961   .     S
Cu255  O267    1.964   .     S
Cu255  N262    2.039   .     S
Cu255  O263    1.965   .     S
Cu256  O264    1.965   .     S
Cu256  O265    1.961   .     S
Cu256  O269    1.958   .     S
Cu256  O268    1.964   .     S
Cu256  N261    2.039   .     S
N261   N958    1.297   1_554 S
N261   C981    1.416   1_554 S
N262   N609    1.297   .     S
N262   C636    1.416   .     S
C271   O273    1.221   .     D
C271   H272    1.085   .     S
C274   O276    1.221   .     D
C274   H275    1.085   .     S
C277   N278    1.157   .     T
C279   N280    1.157   .     T
C281   N282    1.158   .     T
C281   C5      1.457   1_565 S
C283   N284    1.158   .     T
C285   O287    1.220   .     D
C285   H286    1.079   .     S
C285   N609    1.416   .     S
C288   H289    1.079   .     S
C288   O290    1.220   .     D
C288   N958    1.416   1_554 S
C291   O321    1.292   .     A
C291   O323    1.299   .     A
C291   C295    1.429   .     S
C292   O324    1.299   .     A
C292   C296    1.429   .     S
C292   O322    1.292   .     A
C293   H317    1.080   .     S
C293   C310    1.405   .     A
C294   H318    1.080   .     S
C294   C309    1.405   .     A
C294   C254    1.384   1_655 S
C296   C63     1.356   1_565 S
C296   C109    1.457   1_565 S
C297   O327    1.298   .     A
C297   O325    1.299   .     A
C297   C302    1.449   .     S
C298   O328    1.298   .     A
C298   C301    1.449   .     S
C298   O326    1.299   .     A
C299   C301    1.408   .     A
C299   C309    1.411   .     A
C299   C329    1.492   .     S
C300   C332    1.492   .     S
C300   C302    1.408   .     A
C300   C310    1.411   .     A
C301   C303    1.404   .     A
C302   C304    1.404   .     A
C303   C335    1.455   .     S
C303   C305    1.404   .     A
C304   C337    1.455   .     S
C304   C306    1.404   .     A
C305   C311    1.404   .     A
C305   C307    1.417   .     A
C306   C308    1.417   .     A
C306   C312    1.404   .     A
C307   C309    1.420   .     A
C307   C250    1.415   1_655 S
C308   C310    1.420   .     A
C311   H315    1.083   .     S
C311   C235    1.384   1_655 S
C312   H316    1.083   .     S
Cu313  Cu314   2.713   .     S
Cu313  O328    1.958   .     S
Cu313  O324    1.961   .     S
Cu313  O325    1.964   .     S
Cu313  N320    2.039   .     S
Cu313  O321    1.965   .     S
Cu314  O322    1.965   .     S
Cu314  O323    1.961   .     S
Cu314  O327    1.958   .     S
Cu314  O326    1.964   .     S
Cu314  N319    2.039   .     S
N319   N1016   1.297   1_554 S
N319   C1039   1.416   1_554 S
N320   N667    1.297   .     S
N320   C694    1.416   .     S
C329   O331    1.221   .     D
C329   H330    1.085   .     S
C332   O334    1.221   .     D
C332   H333    1.085   .     S
C335   N336    1.157   .     T
C337   N338    1.157   .     T
C339   N340    1.158   .     T
C339   C63     1.457   1_565 S
C341   N342    1.158   .     T
C343   O345    1.220   .     D
C343   H344    1.079   .     S
C343   N667    1.416   .     S
C346   H347    1.079   .     S
C346   O348    1.220   .     D
C346   N1016   1.416   1_554 S
C349   O379    1.292   .     A
C349   O381    1.299   .     A
C349   C353    1.429   .     S
C350   O382    1.299   .     A
C350   C354    1.429   .     S
C350   O380    1.292   .     A
C351   H375    1.080   .     S
C351   C368    1.405   .     A
C351   C427    1.384   1_455 S
C352   H376    1.080   .     S
C352   C367    1.405   .     A
C352   C428    1.384   .     S
C353   C586    1.356   1_545 S
C353   C629    1.457   1_545 S
C354   C469    1.356   .     S
C354   C515    1.457   .     S
C355   O385    1.298   .     A
C355   O383    1.299   .     A
C355   C360    1.449   .     S
C356   O386    1.298   .     A
C356   C359    1.449   .     S
C356   O384    1.299   .     A
C357   C359    1.408   .     A
C357   C367    1.411   .     A
C357   C387    1.492   .     S
C358   C390    1.492   .     S
C358   C360    1.408   .     A
C358   C368    1.411   .     A
C359   C361    1.404   .     A
C360   C362    1.404   .     A
C361   C393    1.455   .     S
C361   C363    1.404   .     A
C362   C395    1.455   .     S
C362   C364    1.404   .     A
C363   C369    1.404   .     A
C363   C365    1.417   .     A
C364   C366    1.417   .     A
C364   C370    1.404   .     A
C365   C367    1.420   .     A
C365   C424    1.415   .     S
C366   C368    1.420   .     A
C366   C423    1.415   1_455 S
C369   H373    1.083   .     S
C369   C409    1.384   .     S
C370   H374    1.083   .     S
C370   C410    1.384   1_455 S
Cu371  Cu372   2.713   .     S
Cu371  O386    1.958   .     S
Cu371  O382    1.961   .     S
Cu371  O383    1.964   .     S
Cu371  N378    2.039   .     S
Cu371  O379    1.965   .     S
Cu372  O380    1.965   .     S
Cu372  O381    1.961   .     S
Cu372  O385    1.958   .     S
Cu372  O384    1.964   .     S
Cu372  N377    2.039   .     S
N378   N725    1.297   .     S
N378   C752    1.416   .     S
C387   O389    1.221   .     D
C387   H388    1.085   .     S
C390   O392    1.221   .     D
C390   H391    1.085   .     S
C393   N394    1.157   .     T
C395   N396    1.157   .     T
C397   N398    1.158   .     T
C397   C469    1.457   .     S
C399   N400    1.158   .     T
C399   C586    1.457   1_545 S
C401   O403    1.220   .     D
C401   H402    1.079   .     S
C401   N725    1.416   .     S
C404   H405    1.079   .     S
C404   O406    1.220   .     D
C407   O437    1.292   .     A
C407   O439    1.299   .     A
C407   C411    1.429   .     S
C408   O440    1.299   .     A
C408   C412    1.429   .     S
C408   O438    1.292   .     A
C409   H433    1.080   .     S
C409   C426    1.405   .     A
C410   H434    1.080   .     S
C410   C425    1.405   .     A
C410   C370    1.384   1_655 S
C411   C644    1.356   1_545 S
C411   C687    1.457   1_545 S
C412   C527    1.356   .     S
C412   C573    1.457   .     S
C413   O443    1.298   .     A
C413   O441    1.299   .     A
C413   C418    1.449   .     S
C414   O444    1.298   .     A
C414   C417    1.449   .     S
C414   O442    1.299   .     A
C415   C417    1.408   .     A
C415   C425    1.411   .     A
C415   C445    1.492   .     S
C416   C448    1.492   .     S
C416   C418    1.408   .     A
C416   C426    1.411   .     A
C417   C419    1.404   .     A
C418   C420    1.404   .     A
C419   C451    1.455   .     S
C419   C421    1.404   .     A
C420   C453    1.455   .     S
C420   C422    1.404   .     A
C421   C427    1.404   .     A
C421   C423    1.417   .     A
C422   C424    1.417   .     A
C422   C428    1.404   .     A
C423   C425    1.420   .     A
C423   C366    1.415   1_655 S
C424   C426    1.420   .     A
C427   H431    1.083   .     S
C427   C351    1.384   1_655 S
C428   H432    1.083   .     S
Cu429  Cu430   2.713   .     S
Cu429  O444    1.958   .     S
Cu429  O440    1.961   .     S
Cu429  O441    1.964   .     S
Cu429  N436    2.039   .     S
Cu429  O437    1.965   .     S
Cu430  O438    1.965   .     S
Cu430  O439    1.961   .     S
Cu430  O443    1.958   .     S
Cu430  O442    1.964   .     S
Cu430  N435    2.039   .     S
N436   N783    1.297   .     S
N436   C810    1.416   .     S
C445   O447    1.221   .     D
C445   H446    1.085   .     S
C448   O450    1.221   .     D
C448   H449    1.085   .     S
C451   N452    1.157   .     T
C453   N454    1.157   .     T
C455   N456    1.158   .     T
C455   C527    1.457   .     S
C457   N458    1.158   .     T
C457   C644    1.457   1_545 S
C459   O461    1.220   .     D
C459   H460    1.079   .     S
C459   N783    1.416   .     S
C462   H463    1.079   .     S
C462   O464    1.220   .     D
C465   O495    1.292   .     A
C465   O497    1.299   .     A
C465   C469    1.429   .     S
C466   O498    1.299   .     A
C466   C470    1.429   .     S
C466   O496    1.292   .     A
C467   H491    1.080   .     S
C467   C484    1.405   .     A
C467   C543    1.384   1_455 S
C468   H492    1.080   .     S
C468   C483    1.405   .     A
C468   C544    1.384   .     S
C470   C585    1.356   .     S
C470   C631    1.457   .     S
C471   O501    1.298   .     A
C471   O499    1.299   .     A
C471   C476    1.449   .     S
C472   O502    1.298   .     A
C472   C475    1.449   .     S
C472   O500    1.299   .     A
C473   C475    1.408   .     A
C473   C483    1.411   .     A
C473   C503    1.492   .     S
C474   C506    1.492   .     S
C474   C476    1.408   .     A
C474   C484    1.411   .     A
C475   C477    1.404   .     A
C476   C478    1.404   .     A
C477   C509    1.455   .     S
C477   C479    1.404   .     A
C478   C511    1.455   .     S
C478   C480    1.404   .     A
C479   C485    1.404   .     A
C479   C481    1.417   .     A
C480   C482    1.417   .     A
C480   C486    1.404   .     A
C481   C483    1.420   .     A
C481   C540    1.415   .     S
C482   C484    1.420   .     A
C482   C539    1.415   1_455 S
C485   H489    1.083   .     S
C485   C525    1.384   .     S
C486   H490    1.083   .     S
C486   C526    1.384   1_455 S
Cu487  Cu488   2.713   .     S
Cu487  O502    1.958   .     S
Cu487  O498    1.961   .     S
Cu487  O499    1.964   .     S
Cu487  N494    2.039   .     S
Cu487  O495    1.965   .     S
Cu488  O496    1.965   .     S
Cu488  O497    1.961   .     S
Cu488  O501    1.958   .     S
Cu488  O500    1.964   .     S
Cu488  N493    2.039   .     S
N494   N841    1.297   .     S
N494   C868    1.416   .     S
C503   O505    1.221   .     D
C503   H504    1.085   .     S
C506   O508    1.221   .     D
C506   H507    1.085   .     S
C509   N510    1.157   .     T
C511   N512    1.157   .     T
C513   N514    1.158   .     T
C513   C585    1.457   .     S
C515   N516    1.158   .     T
C517   O519    1.220   .     D
C517   H518    1.079   .     S
C517   N841    1.416   .     S
C520   H521    1.079   .     S
C520   O522    1.220   .     D
C523   O553    1.292   .     A
C523   O555    1.299   .     A
C523   C527    1.429   .     S
C524   O556    1.299   .     A
C524   C528    1.429   .     S
C524   O554    1.292   .     A
C525   H549    1.080   .     S
C525   C542    1.405   .     A
C526   H550    1.080   .     S
C526   C541    1.405   .     A
C526   C486    1.384   1_655 S
C528   C643    1.356   .     S
C528   C689    1.457   .     S
C529   O559    1.298   .     A
C529   O557    1.299   .     A
C529   C534    1.449   .     S
C530   O560    1.298   .     A
C530   C533    1.449   .     S
C530   O558    1.299   .     A
C531   C533    1.408   .     A
C531   C541    1.411   .     A
C531   C561    1.492   .     S
C532   C564    1.492   .     S
C532   C534    1.408   .     A
C532   C542    1.411   .     A
C533   C535    1.404   .     A
C534   C536    1.404   .     A
C535   C567    1.455   .     S
C535   C537    1.404   .     A
C536   C569    1.455   .     S
C536   C538    1.404   .     A
C537   C543    1.404   .     A
C537   C539    1.417   .     A
C538   C540    1.417   .     A
C538   C544    1.404   .     A
C539   C541    1.420   .     A
C539   C482    1.415   1_655 S
C540   C542    1.420   .     A
C543   H547    1.083   .     S
C543   C467    1.384   1_655 S
C544   H548    1.083   .     S
Cu545  Cu546   2.713   .     S
Cu545  O560    1.958   .     S
Cu545  O556    1.961   .     S
Cu545  O557    1.964   .     S
Cu545  N552    2.039   .     S
Cu545  O553    1.965   .     S
Cu546  O554    1.965   .     S
Cu546  O555    1.961   .     S
Cu546  O559    1.958   .     S
Cu546  O558    1.964   .     S
Cu546  N551    2.039   .     S
N552   N899    1.297   .     S
N552   C926    1.416   .     S
C561   O563    1.221   .     D
C561   H562    1.085   .     S
C564   O566    1.221   .     D
C564   H565    1.085   .     S
C567   N568    1.157   .     T
C569   N570    1.157   .     T
C571   N572    1.158   .     T
C571   C643    1.457   .     S
C573   N574    1.158   .     T
C575   O577    1.220   .     D
C575   H576    1.079   .     S
C575   N899    1.416   .     S
C578   H579    1.079   .     S
C578   O580    1.220   .     D
C581   O611    1.292   .     A
C581   O613    1.299   .     A
C581   C585    1.429   .     S
C582   O614    1.299   .     A
C582   C586    1.429   .     S
C582   O612    1.292   .     A
C583   H607    1.080   .     S
C583   C600    1.405   .     A
C583   C659    1.384   1_455 S
C584   H608    1.080   .     S
C584   C599    1.405   .     A
C584   C660    1.384   .     S
C586   C353    1.356   1_565 S
C586   C399    1.457   1_565 S
C587   O617    1.298   .     A
C587   O615    1.299   .     A
C587   C592    1.449   .     S
C588   O618    1.298   .     A
C588   C591    1.449   .     S
C588   O616    1.299   .     A
C589   C591    1.408   .     A
C589   C599    1.411   .     A
C589   C619    1.492   .     S
C590   C622    1.492   .     S
C590   C592    1.408   .     A
C590   C600    1.411   .     A
C591   C593    1.404   .     A
C592   C594    1.404   .     A
C593   C625    1.455   .     S
C593   C595    1.404   .     A
C594   C627    1.455   .     S
C594   C596    1.404   .     A
C595   C601    1.404   .     A
C595   C597    1.417   .     A
C596   C598    1.417   .     A
C596   C602    1.404   .     A
C597   C599    1.420   .     A
C597   C656    1.415   .     S
C598   C600    1.420   .     A
C598   C655    1.415   1_455 S
C601   H605    1.083   .     S
C601   C641    1.384   .     S
C602   H606    1.083   .     S
C602   C642    1.384   1_455 S
Cu603  Cu604   2.713   .     S
Cu603  O618    1.958   .     S
Cu603  O614    1.961   .     S
Cu603  O615    1.964   .     S
Cu603  N610    2.039   .     S
Cu603  O611    1.965   .     S
Cu604  O612    1.965   .     S
Cu604  O613    1.961   .     S
Cu604  O617    1.958   .     S
Cu604  O616    1.964   .     S
Cu604  N609    2.039   .     S
N610   N957    1.297   .     S
N610   C984    1.416   .     S
C619   O621    1.221   .     D
C619   H620    1.085   .     S
C622   O624    1.221   .     D
C622   H623    1.085   .     S
C625   N626    1.157   .     T
C627   N628    1.157   .     T
C629   N630    1.158   .     T
C629   C353    1.457   1_565 S
C631   N632    1.158   .     T
C633   O635    1.220   .     D
C633   H634    1.079   .     S
C633   N957    1.416   .     S
C636   H637    1.079   .     S
C636   O638    1.220   .     D
C639   O669    1.292   .     A
C639   O671    1.299   .     A
C639   C643    1.429   .     S
C640   O672    1.299   .     A
C640   C644    1.429   .     S
C640   O670    1.292   .     A
C641   H665    1.080   .     S
C641   C658    1.405   .     A
C642   H666    1.080   .     S
C642   C657    1.405   .     A
C642   C602    1.384   1_655 S
C644   C411    1.356   1_565 S
C644   C457    1.457   1_565 S
C645   O675    1.298   .     A
C645   O673    1.299   .     A
C645   C650    1.449   .     S
C646   O676    1.298   .     A
C646   C649    1.449   .     S
C646   O674    1.299   .     A
C647   C649    1.408   .     A
C647   C657    1.411   .     A
C647   C677    1.492   .     S
C648   C680    1.492   .     S
C648   C650    1.408   .     A
C648   C658    1.411   .     A
C649   C651    1.404   .     A
C650   C652    1.404   .     A
C651   C683    1.455   .     S
C651   C653    1.404   .     A
C652   C685    1.455   .     S
C652   C654    1.404   .     A
C653   C659    1.404   .     A
C653   C655    1.417   .     A
C654   C656    1.417   .     A
C654   C660    1.404   .     A
C655   C657    1.420   .     A
C655   C598    1.415   1_655 S
C656   C658    1.420   .     A
C659   H663    1.083   .     S
C659   C583    1.384   1_655 S
C660   H664    1.083   .     S
Cu661  Cu662   2.713   .     S
Cu661  O676    1.958   .     S
Cu661  O672    1.961   .     S
Cu661  O673    1.964   .     S
Cu661  N668    2.039   .     S
Cu661  O669    1.965   .     S
Cu662  O670    1.965   .     S
Cu662  O671    1.961   .     S
Cu662  O675    1.958   .     S
Cu662  O674    1.964   .     S
Cu662  N667    2.039   .     S
N668   N1015   1.297   .     S
N668   C1042   1.416   .     S
C677   O679    1.221   .     D
C677   H678    1.085   .     S
C680   O682    1.221   .     D
C680   H681    1.085   .     S
C683   N684    1.157   .     T
C685   N686    1.157   .     T
C687   N688    1.158   .     T
C687   C411    1.457   1_565 S
C689   N690    1.158   .     T
C691   O693    1.220   .     D
C691   H692    1.079   .     S
C691   N1015   1.416   .     S
C694   H695    1.079   .     S
C694   O696    1.220   .     D
C697   O727    1.292   .     A
C697   O729    1.299   .     A
C697   C701    1.429   .     S
C698   O730    1.299   .     A
C698   C702    1.429   .     S
C698   O728    1.292   .     A
C699   H723    1.080   .     S
C699   C716    1.405   .     A
C699   C775    1.384   1_455 S
C700   H724    1.080   .     S
C700   C715    1.405   .     A
C700   C776    1.384   .     S
C701   C934    1.356   1_545 S
C701   C977    1.457   1_545 S
C702   C817    1.356   .     S
C702   C863    1.457   .     S
C703   O733    1.298   .     A
C703   O731    1.299   .     A
C703   C708    1.449   .     S
C704   O734    1.298   .     A
C704   C707    1.449   .     S
C704   O732    1.299   .     A
C705   C707    1.408   .     A
C705   C715    1.411   .     A
C705   C735    1.492   .     S
C706   C738    1.492   .     S
C706   C708    1.408   .     A
C706   C716    1.411   .     A
C707   C709    1.404   .     A
C708   C710    1.404   .     A
C709   C741    1.455   .     S
C709   C711    1.404   .     A
C710   C743    1.455   .     S
C710   C712    1.404   .     A
C711   C717    1.404   .     A
C711   C713    1.417   .     A
C712   C714    1.417   .     A
C712   C718    1.404   .     A
C713   C715    1.420   .     A
C713   C772    1.415   .     S
C714   C716    1.420   .     A
C714   C771    1.415   1_455 S
C717   H721    1.083   .     S
C717   C757    1.384   .     S
C718   H722    1.083   .     S
C718   C758    1.384   1_455 S
Cu719  Cu720   2.713   .     S
Cu719  O734    1.958   .     S
Cu719  O730    1.961   .     S
Cu719  O731    1.964   .     S
Cu719  N726    2.039   .     S
Cu719  O727    1.965   .     S
Cu720  O728    1.965   .     S
Cu720  O729    1.961   .     S
Cu720  O733    1.958   .     S
Cu720  O732    1.964   .     S
Cu720  N725    2.039   .     S
N726   N29     1.297   1_556 S
N726   C56     1.416   1_556 S
C735   O737    1.221   .     D
C735   H736    1.085   .     S
C738   O740    1.221   .     D
C738   H739    1.085   .     S
C741   N742    1.157   .     T
C743   N744    1.157   .     T
C745   N746    1.158   .     T
C745   C817    1.457   .     S
C747   N748    1.158   .     T
C747   C934    1.457   1_545 S
C749   O751    1.220   .     D
C749   H750    1.079   .     S
C749   N29     1.416   1_556 S
C752   H753    1.079   .     S
C752   O754    1.220   .     D
C755   O785    1.292   .     A
C755   O787    1.299   .     A
C755   C759    1.429   .     S
C756   O788    1.299   .     A
C756   C760    1.429   .     S
C756   O786    1.292   .     A
C757   H781    1.080   .     S
C757   C774    1.405   .     A
C758   H782    1.080   .     S
C758   C773    1.405   .     A
C758   C718    1.384   1_655 S
C759   C992    1.356   1_545 S
C759   C1035   1.457   1_545 S
C760   C875    1.356   .     S
C760   C921    1.457   .     S
C761   O791    1.298   .     A
C761   O789    1.299   .     A
C761   C766    1.449   .     S
C762   O792    1.298   .     A
C762   C765    1.449   .     S
C762   O790    1.299   .     A
C763   C765    1.408   .     A
C763   C773    1.411   .     A
C763   C793    1.492   .     S
C764   C796    1.492   .     S
C764   C766    1.408   .     A
C764   C774    1.411   .     A
C765   C767    1.404   .     A
C766   C768    1.404   .     A
C767   C799    1.455   .     S
C767   C769    1.404   .     A
C768   C801    1.455   .     S
C768   C770    1.404   .     A
C769   C775    1.404   .     A
C769   C771    1.417   .     A
C770   C772    1.417   .     A
C770   C776    1.404   .     A
C771   C773    1.420   .     A
C771   C714    1.415   1_655 S
C772   C774    1.420   .     A
C775   H779    1.083   .     S
C775   C699    1.384   1_655 S
C776   H780    1.083   .     S
Cu777  Cu778   2.713   .     S
Cu777  O792    1.958   .     S
Cu777  O788    1.961   .     S
Cu777  O789    1.964   .     S
Cu777  N784    2.039   .     S
Cu777  O785    1.965   .     S
Cu778  O786    1.965   .     S
Cu778  O787    1.961   .     S
Cu778  O791    1.958   .     S
Cu778  O790    1.964   .     S
Cu778  N783    2.039   .     S
N784   N87     1.297   1_556 S
N784   C114    1.416   1_556 S
C793   O795    1.221   .     D
C793   H794    1.085   .     S
C796   O798    1.221   .     D
C796   H797    1.085   .     S
C799   N800    1.157   .     T
C801   N802    1.157   .     T
C803   N804    1.158   .     T
C803   C875    1.457   .     S
C805   N806    1.158   .     T
C805   C992    1.457   1_545 S
C807   O809    1.220   .     D
C807   H808    1.079   .     S
C807   N87     1.416   1_556 S
C810   H811    1.079   .     S
C810   O812    1.220   .     D
C813   O843    1.292   .     A
C813   O845    1.299   .     A
C813   C817    1.429   .     S
C814   O846    1.299   .     A
C814   C818    1.429   .     S
C814   O844    1.292   .     A
C815   H839    1.080   .     S
C815   C832    1.405   .     A
C815   C891    1.384   1_455 S
C816   H840    1.080   .     S
C816   C831    1.405   .     A
C816   C892    1.384   .     S
C818   C933    1.356   .     S
C818   C979    1.457   .     S
C819   O849    1.298   .     A
C819   O847    1.299   .     A
C819   C824    1.449   .     S
C820   O850    1.298   .     A
C820   C823    1.449   .     S
C820   O848    1.299   .     A
C821   C823    1.408   .     A
C821   C831    1.411   .     A
C821   C851    1.492   .     S
C822   C854    1.492   .     S
C822   C824    1.408   .     A
C822   C832    1.411   .     A
C823   C825    1.404   .     A
C824   C826    1.404   .     A
C825   C857    1.455   .     S
C825   C827    1.404   .     A
C826   C859    1.455   .     S
C826   C828    1.404   .     A
C827   C833    1.404   .     A
C827   C829    1.417   .     A
C828   C830    1.417   .     A
C828   C834    1.404   .     A
C829   C831    1.420   .     A
C829   C888    1.415   .     S
C830   C832    1.420   .     A
C830   C887    1.415   1_455 S
C833   H837    1.083   .     S
C833   C873    1.384   .     S
C834   H838    1.083   .     S
C834   C874    1.384   1_455 S
Cu835  Cu836   2.713   .     S
Cu835  O850    1.958   .     S
Cu835  O846    1.961   .     S
Cu835  O847    1.964   .     S
Cu835  N842    2.039   .     S
Cu835  O843    1.965   .     S
Cu836  O844    1.965   .     S
Cu836  O845    1.961   .     S
Cu836  O849    1.958   .     S
Cu836  O848    1.964   .     S
Cu836  N841    2.039   .     S
N842   N145    1.297   1_556 S
N842   C172    1.416   1_556 S
C851   O853    1.221   .     D
C851   H852    1.085   .     S
C854   O856    1.221   .     D
C854   H855    1.085   .     S
C857   N858    1.157   .     T
C859   N860    1.157   .     T
C861   N862    1.158   .     T
C861   C933    1.457   .     S
C863   N864    1.158   .     T
C865   O867    1.220   .     D
C865   H866    1.079   .     S
C865   N145    1.416   1_556 S
C868   H869    1.079   .     S
C868   O870    1.220   .     D
C871   O901    1.292   .     A
C871   O903    1.299   .     A
C871   C875    1.429   .     S
C872   O904    1.299   .     A
C872   C876    1.429   .     S
C872   O902    1.292   .     A
C873   H897    1.080   .     S
C873   C890    1.405   .     A
C874   H898    1.080   .     S
C874   C889    1.405   .     A
C874   C834    1.384   1_655 S
C876   C991    1.356   .     S
C876   C1037   1.457   .     S
C877   O907    1.298   .     A
C877   O905    1.299   .     A
C877   C882    1.449   .     S
C878   O908    1.298   .     A
C878   C881    1.449   .     S
C878   O906    1.299   .     A
C879   C881    1.408   .     A
C879   C889    1.411   .     A
C879   C909    1.492   .     S
C880   C912    1.492   .     S
C880   C882    1.408   .     A
C880   C890    1.411   .     A
C881   C883    1.404   .     A
C882   C884    1.404   .     A
C883   C915    1.455   .     S
C883   C885    1.404   .     A
C884   C917    1.455   .     S
C884   C886    1.404   .     A
C885   C891    1.404   .     A
C885   C887    1.417   .     A
C886   C888    1.417   .     A
C886   C892    1.404   .     A
C887   C889    1.420   .     A
C887   C830    1.415   1_655 S
C888   C890    1.420   .     A
C891   H895    1.083   .     S
C891   C815    1.384   1_655 S
C892   H896    1.083   .     S
Cu893  Cu894   2.713   .     S
Cu893  O908    1.958   .     S
Cu893  O904    1.961   .     S
Cu893  O905    1.964   .     S
Cu893  N900    2.039   .     S
Cu893  O901    1.965   .     S
Cu894  O902    1.965   .     S
Cu894  O903    1.961   .     S
Cu894  O907    1.958   .     S
Cu894  O906    1.964   .     S
Cu894  N899    2.039   .     S
N900   N203    1.297   1_556 S
N900   C230    1.416   1_556 S
C909   O911    1.221   .     D
C909   H910    1.085   .     S
C912   O914    1.221   .     D
C912   H913    1.085   .     S
C915   N916    1.157   .     T
C917   N918    1.157   .     T
C919   N920    1.158   .     T
C919   C991    1.457   .     S
C921   N922    1.158   .     T
C923   O925    1.220   .     D
C923   H924    1.079   .     S
C923   N203    1.416   1_556 S
C926   H927    1.079   .     S
C926   O928    1.220   .     D
C929   O959    1.292   .     A
C929   O961    1.299   .     A
C929   C933    1.429   .     S
C930   O962    1.299   .     A
C930   C934    1.429   .     S
C930   O960    1.292   .     A
C931   H955    1.080   .     S
C931   C948    1.405   .     A
C931   C1007   1.384   1_455 S
C932   H956    1.080   .     S
C932   C947    1.405   .     A
C932   C1008   1.384   .     S
C934   C701    1.356   1_565 S
C934   C747    1.457   1_565 S
C935   O965    1.298   .     A
C935   O963    1.299   .     A
C935   C940    1.449   .     S
C936   O966    1.298   .     A
C936   C939    1.449   .     S
C936   O964    1.299   .     A
C937   C939    1.408   .     A
C937   C947    1.411   .     A
C937   C967    1.492   .     S
C938   C970    1.492   .     S
C938   C940    1.408   .     A
C938   C948    1.411   .     A
C939   C941    1.404   .     A
C940   C942    1.404   .     A
C941   C973    1.455   .     S
C941   C943    1.404   .     A
C942   C975    1.455   .     S
C942   C944    1.404   .     A
C943   C949    1.404   .     A
C943   C945    1.417   .     A
C944   C946    1.417   .     A
C944   C950    1.404   .     A
C945   C947    1.420   .     A
C945   C1004   1.415   .     S
C946   C948    1.420   .     A
C946   C1003   1.415   1_455 S
C949   H953    1.083   .     S
C949   C989    1.384   .     S
C950   H954    1.083   .     S
C950   C990    1.384   1_455 S
Cu951  Cu952   2.713   .     S
Cu951  O966    1.958   .     S
Cu951  O962    1.961   .     S
Cu951  O963    1.964   .     S
Cu951  N958    2.039   .     S
Cu951  O959    1.965   .     S
Cu952  O960    1.965   .     S
Cu952  O961    1.961   .     S
Cu952  O965    1.958   .     S
Cu952  O964    1.964   .     S
Cu952  N957    2.039   .     S
N958   N261    1.297   1_556 S
N958   C288    1.416   1_556 S
C967   O969    1.221   .     D
C967   H968    1.085   .     S
C970   O972    1.221   .     D
C970   H971    1.085   .     S
C973   N974    1.157   .     T
C975   N976    1.157   .     T
C977   N978    1.158   .     T
C977   C701    1.457   1_565 S
C979   N980    1.158   .     T
C981   O983    1.220   .     D
C981   H982    1.079   .     S
C981   N261    1.416   1_556 S
C984   H985    1.079   .     S
C984   O986    1.220   .     D
C987   O1017   1.292   .     A
C987   O1019   1.299   .     A
C987   C991    1.429   .     S
C988   O1020   1.299   .     A
C988   C992    1.429   .     S
C988   O1018   1.292   .     A
C989   H1013   1.080   .     S
C989   C1006   1.405   .     A
C990   H1014   1.080   .     S
C990   C1005   1.405   .     A
C990   C950    1.384   1_655 S
C992   C759    1.356   1_565 S
C992   C805    1.457   1_565 S
C993   O1023   1.298   .     A
C993   O1021   1.299   .     A
C993   C998    1.449   .     S
C994   O1024   1.298   .     A
C994   C997    1.449   .     S
C994   O1022   1.299   .     A
C995   C997    1.408   .     A
C995   C1005   1.411   .     A
C995   C1025   1.492   .     S
C996   C1028   1.492   .     S
C996   C998    1.408   .     A
C996   C1006   1.411   .     A
C997   C999    1.404   .     A
C998   C1000   1.404   .     A
C999   C1031   1.455   .     S
C999   C1001   1.404   .     A
C1000  C1033   1.455   .     S
C1000  C1002   1.404   .     A
C1001  C1007   1.404   .     A
C1001  C1003   1.417   .     A
C1002  C1004   1.417   .     A
C1002  C1008   1.404   .     A
C1003  C1005   1.420   .     A
C1003  C946    1.415   1_655 S
C1004  C1006   1.420   .     A
C1007  H1011   1.083   .     S
C1007  C931    1.384   1_655 S
C1008  H1012   1.083   .     S
Cu1009 Cu1010  2.713   .     S
Cu1009 O1024   1.958   .     S
Cu1009 O1020   1.961   .     S
Cu1009 O1021   1.964   .     S
Cu1009 N1016   2.039   .     S
Cu1009 O1017   1.965   .     S
Cu1010 O1018   1.965   .     S
Cu1010 O1019   1.961   .     S
Cu1010 O1023   1.958   .     S
Cu1010 O1022   1.964   .     S
Cu1010 N1015   2.039   .     S
N1016  N319    1.297   1_556 S
N1016  C346    1.416   1_556 S
C1025  O1027   1.221   .     D
C1025  H1026   1.085   .     S
C1028  O1030   1.221   .     D
C1028  H1029   1.085   .     S
C1031  N1032   1.157   .     T
C1033  N1034   1.157   .     T
C1035  N1036   1.158   .     T
C1035  C759    1.457   1_565 S
C1037  N1038   1.158   .     T
C1039  O1041   1.220   .     D
C1039  H1040   1.079   .     S
C1039  N319    1.416   1_556 S
C1042  H1043   1.079   .     S
C1042  O1044   1.220   .     D
