data_str_m2_o5_o17_pcu_sym.18
_audit_creation_date              2020-01-03
_audit_creation_method            'Materials Studio'
_symmetry_space_group_name_H-M    'P1'
_symmetry_Int_Tables_number       1
_symmetry_cell_setting            triclinic
loop_
_symmetry_equiv_pos_as_xyz
  x,y,z
_cell_length_a                    30.1030
_cell_length_b                    27.2434
_cell_length_c                    23.3882
_cell_angle_alpha                 89.9444
_cell_angle_beta                  89.9999
_cell_angle_gamma                 90.0001
loop_
_atom_site_label
_atom_site_type_symbol
_atom_site_fract_x
_atom_site_fract_y
_atom_site_fract_z
_atom_site_U_iso_or_equiv
_atom_site_adp_type
_atom_site_occupancy
O1     O     0.25000   0.09613   0.21425   0.00000  Uiso   1.00
O2     O     0.25000   0.23720   0.11908   0.00000  Uiso   1.00
O3     O     0.25000   0.23720   0.21425   0.00000  Uiso   1.00
O4     O     0.25000   0.09613   0.11908   0.00000  Uiso   1.00
H5     H     0.46002   0.04409   0.14115   0.00000  Uiso   1.00
H6     H     0.03998   0.28924   0.19220   0.00000  Uiso   1.00
H7     H     0.46002   0.28924   0.19220   0.00000  Uiso   1.00
H8     H     0.03998   0.04409   0.14115   0.00000  Uiso   1.00
C9     C     0.25000   0.07336   0.16668   0.00000  Uiso   1.00
C10    C     0.25000   0.25997   0.16665   0.00000  Uiso   1.00
O11    O     0.18513   0.16667   0.21427   0.00000  Uiso   1.00
O12    O     0.31487   0.16667   0.11907   0.00000  Uiso   1.00
O13    O     0.31487   0.16667   0.21427   0.00000  Uiso   1.00
O14    O     0.18513   0.16667   0.11907   0.00000  Uiso   1.00
C15    C     0.16437   0.16667   0.16667   0.00000  Uiso   1.00
C16    C     0.33563   0.16667   0.16667   0.00000  Uiso   1.00
Cu17   Cu    0.25000   0.16667   0.22303   0.00000  Uiso   1.00
Cu18   Cu    0.25000   0.16667   0.11031   0.00000  Uiso   1.00
N19    N     0.25000   0.16667   0.02561   0.00000  Uiso   1.00
N20    N     0.25000   0.16667   0.30773   0.00000  Uiso   1.00
C21    C     0.40663   0.21096   0.17601   0.00000  Uiso   1.00
C22    C     0.09337   0.12237   0.15733   0.00000  Uiso   1.00
C23    C     0.40663   0.12237   0.15733   0.00000  Uiso   1.00
C24    C     0.09337   0.21096   0.17601   0.00000  Uiso   1.00
C25    C     0.38374   0.16667   0.16667   0.00000  Uiso   1.00
C26    C     0.11626   0.16667   0.16667   0.00000  Uiso   1.00
C27    C     0.45320   0.12228   0.15739   0.00000  Uiso   1.00
C28    C     0.04680   0.21105   0.17595   0.00000  Uiso   1.00
C29    C     0.45320   0.21105   0.17595   0.00000  Uiso   1.00
C30    C     0.04680   0.12228   0.15739   0.00000  Uiso   1.00
C31    C     0.47656   0.16667   0.16667   0.00000  Uiso   1.00
C32    C     0.02344   0.16667   0.16667   0.00000  Uiso   1.00
C33    C     0.47693   0.07861   0.14835   0.00000  Uiso   1.00
C34    C     0.02307   0.25472   0.18499   0.00000  Uiso   1.00
C35    C     0.47693   0.25472   0.18499   0.00000  Uiso   1.00
C36    C     0.02307   0.07861   0.14835   0.00000  Uiso   1.00
C37    C     0.25000   0.02180   0.16669   0.00000  Uiso   1.00
C38    C     0.25000   0.31153   0.16664   0.00000  Uiso   1.00
N39    N     0.38276   0.25603   0.18499   0.00000  Uiso   1.00
H40    H     0.36232   0.26243   0.14962   0.00000  Uiso   1.00
H41    H     0.36272   0.25213   0.22121   0.00000  Uiso   1.00
N42    N     0.11723   0.07731   0.14834   0.00000  Uiso   1.00
H43    H     0.13727   0.08121   0.11212   0.00000  Uiso   1.00
H44    H     0.13768   0.07091   0.18371   0.00000  Uiso   1.00
N45    N     0.38276   0.07731   0.14834   0.00000  Uiso   1.00
H46    H     0.36231   0.07091   0.18370   0.00000  Uiso   1.00
H47    H     0.36273   0.08121   0.11211   0.00000  Uiso   1.00
N48    N     0.11723   0.25603   0.18499   0.00000  Uiso   1.00
H49    H     0.13728   0.25213   0.22121   0.00000  Uiso   1.00
H50    H     0.13768   0.26243   0.14961   0.00000  Uiso   1.00
O51    O     0.75000   0.09613   0.21425   0.00000  Uiso   1.00
O52    O     0.75000   0.23720   0.11908   0.00000  Uiso   1.00
O53    O     0.75000   0.23720   0.21425   0.00000  Uiso   1.00
O54    O     0.75000   0.09613   0.11908   0.00000  Uiso   1.00
H55    H     0.96002   0.04409   0.14115   0.00000  Uiso   1.00
H56    H     0.53998   0.28924   0.19220   0.00000  Uiso   1.00
H57    H     0.96002   0.28924   0.19220   0.00000  Uiso   1.00
H58    H     0.53998   0.04409   0.14115   0.00000  Uiso   1.00
C59    C     0.75000   0.07336   0.16668   0.00000  Uiso   1.00
C60    C     0.75000   0.25997   0.16665   0.00000  Uiso   1.00
O61    O     0.68513   0.16667   0.21427   0.00000  Uiso   1.00
O62    O     0.81487   0.16667   0.11907   0.00000  Uiso   1.00
O63    O     0.81487   0.16667   0.21427   0.00000  Uiso   1.00
O64    O     0.68513   0.16667   0.11907   0.00000  Uiso   1.00
C65    C     0.66437   0.16667   0.16667   0.00000  Uiso   1.00
C66    C     0.83563   0.16667   0.16667   0.00000  Uiso   1.00
Cu67   Cu    0.75000   0.16667   0.22303   0.00000  Uiso   1.00
Cu68   Cu    0.75000   0.16667   0.11031   0.00000  Uiso   1.00
N69    N     0.75000   0.16667   0.02561   0.00000  Uiso   1.00
N70    N     0.75000   0.16667   0.30773   0.00000  Uiso   1.00
C71    C     0.90663   0.21096   0.17601   0.00000  Uiso   1.00
C72    C     0.59337   0.12237   0.15733   0.00000  Uiso   1.00
C73    C     0.90663   0.12237   0.15733   0.00000  Uiso   1.00
C74    C     0.59337   0.21096   0.17601   0.00000  Uiso   1.00
C75    C     0.88374   0.16667   0.16667   0.00000  Uiso   1.00
C76    C     0.61626   0.16667   0.16667   0.00000  Uiso   1.00
C77    C     0.95320   0.12228   0.15739   0.00000  Uiso   1.00
C78    C     0.54680   0.21105   0.17595   0.00000  Uiso   1.00
C79    C     0.95320   0.21105   0.17595   0.00000  Uiso   1.00
C80    C     0.54680   0.12228   0.15739   0.00000  Uiso   1.00
C81    C     0.97656   0.16667   0.16667   0.00000  Uiso   1.00
C82    C     0.52344   0.16667   0.16667   0.00000  Uiso   1.00
C83    C     0.97693   0.07861   0.14835   0.00000  Uiso   1.00
C84    C     0.52307   0.25472   0.18499   0.00000  Uiso   1.00
C85    C     0.97693   0.25472   0.18499   0.00000  Uiso   1.00
C86    C     0.52307   0.07861   0.14835   0.00000  Uiso   1.00
C87    C     0.75000   0.02180   0.16669   0.00000  Uiso   1.00
C88    C     0.75000   0.31153   0.16664   0.00000  Uiso   1.00
N89    N     0.88276   0.25603   0.18499   0.00000  Uiso   1.00
H90    H     0.86232   0.26243   0.14962   0.00000  Uiso   1.00
H91    H     0.86272   0.25213   0.22121   0.00000  Uiso   1.00
N92    N     0.61723   0.07731   0.14834   0.00000  Uiso   1.00
H93    H     0.63727   0.08121   0.11212   0.00000  Uiso   1.00
H94    H     0.63768   0.07091   0.18371   0.00000  Uiso   1.00
N95    N     0.88276   0.07731   0.14834   0.00000  Uiso   1.00
H96    H     0.86231   0.07091   0.18370   0.00000  Uiso   1.00
H97    H     0.86273   0.08121   0.11211   0.00000  Uiso   1.00
N98    N     0.61723   0.25603   0.18499   0.00000  Uiso   1.00
H99    H     0.63728   0.25213   0.22121   0.00000  Uiso   1.00
H100   H     0.63768   0.26243   0.14961   0.00000  Uiso   1.00
O101   O     0.25000   0.42946   0.21425   0.00000  Uiso   1.00
O102   O     0.25000   0.57054   0.11908   0.00000  Uiso   1.00
O103   O     0.25000   0.57054   0.21425   0.00000  Uiso   1.00
O104   O     0.25000   0.42946   0.11908   0.00000  Uiso   1.00
H105   H     0.46002   0.37742   0.14115   0.00000  Uiso   1.00
H106   H     0.03998   0.62258   0.19220   0.00000  Uiso   1.00
H107   H     0.46002   0.62258   0.19220   0.00000  Uiso   1.00
H108   H     0.03998   0.37742   0.14115   0.00000  Uiso   1.00
C109   C     0.25000   0.40669   0.16668   0.00000  Uiso   1.00
C110   C     0.25000   0.59331   0.16665   0.00000  Uiso   1.00
O111   O     0.18513   0.50000   0.21427   0.00000  Uiso   1.00
O112   O     0.31487   0.50000   0.11907   0.00000  Uiso   1.00
O113   O     0.31487   0.50000   0.21427   0.00000  Uiso   1.00
O114   O     0.18513   0.50000   0.11907   0.00000  Uiso   1.00
C115   C     0.16437   0.50000   0.16667   0.00000  Uiso   1.00
C116   C     0.33563   0.50000   0.16667   0.00000  Uiso   1.00
Cu117  Cu    0.25000   0.50000   0.22303   0.00000  Uiso   1.00
Cu118  Cu    0.25000   0.50000   0.11031   0.00000  Uiso   1.00
N119   N     0.25000   0.50000   0.02561   0.00000  Uiso   1.00
N120   N     0.25000   0.50000   0.30773   0.00000  Uiso   1.00
C121   C     0.40663   0.54430   0.17601   0.00000  Uiso   1.00
C122   C     0.09337   0.45570   0.15733   0.00000  Uiso   1.00
C123   C     0.40663   0.45570   0.15733   0.00000  Uiso   1.00
C124   C     0.09337   0.54430   0.17601   0.00000  Uiso   1.00
C125   C     0.38374   0.50000   0.16667   0.00000  Uiso   1.00
C126   C     0.11626   0.50000   0.16667   0.00000  Uiso   1.00
C127   C     0.45320   0.45562   0.15739   0.00000  Uiso   1.00
C128   C     0.04680   0.54438   0.17595   0.00000  Uiso   1.00
C129   C     0.45320   0.54438   0.17595   0.00000  Uiso   1.00
C130   C     0.04680   0.45562   0.15739   0.00000  Uiso   1.00
C131   C     0.47656   0.50000   0.16667   0.00000  Uiso   1.00
C132   C     0.02344   0.50000   0.16667   0.00000  Uiso   1.00
C133   C     0.47693   0.41195   0.14835   0.00000  Uiso   1.00
C134   C     0.02307   0.58805   0.18499   0.00000  Uiso   1.00
C135   C     0.47693   0.58805   0.18499   0.00000  Uiso   1.00
C136   C     0.02307   0.41195   0.14835   0.00000  Uiso   1.00
C137   C     0.25000   0.35514   0.16669   0.00000  Uiso   1.00
C138   C     0.25000   0.64486   0.16664   0.00000  Uiso   1.00
N139   N     0.38276   0.58936   0.18499   0.00000  Uiso   1.00
H140   H     0.36232   0.59576   0.14962   0.00000  Uiso   1.00
H141   H     0.36272   0.58546   0.22121   0.00000  Uiso   1.00
N142   N     0.11723   0.41064   0.14834   0.00000  Uiso   1.00
H143   H     0.13727   0.41454   0.11212   0.00000  Uiso   1.00
H144   H     0.13768   0.40424   0.18371   0.00000  Uiso   1.00
N145   N     0.38276   0.41064   0.14834   0.00000  Uiso   1.00
H146   H     0.36231   0.40424   0.18370   0.00000  Uiso   1.00
H147   H     0.36273   0.41454   0.11211   0.00000  Uiso   1.00
N148   N     0.11723   0.58936   0.18499   0.00000  Uiso   1.00
H149   H     0.13728   0.58546   0.22121   0.00000  Uiso   1.00
H150   H     0.13768   0.59576   0.14961   0.00000  Uiso   1.00
O151   O     0.75000   0.42946   0.21425   0.00000  Uiso   1.00
O152   O     0.75000   0.57054   0.11908   0.00000  Uiso   1.00
O153   O     0.75000   0.57054   0.21425   0.00000  Uiso   1.00
O154   O     0.75000   0.42946   0.11908   0.00000  Uiso   1.00
H155   H     0.96002   0.37742   0.14115   0.00000  Uiso   1.00
H156   H     0.53998   0.62258   0.19220   0.00000  Uiso   1.00
H157   H     0.96002   0.62258   0.19220   0.00000  Uiso   1.00
H158   H     0.53998   0.37742   0.14115   0.00000  Uiso   1.00
C159   C     0.75000   0.40669   0.16668   0.00000  Uiso   1.00
C160   C     0.75000   0.59331   0.16665   0.00000  Uiso   1.00
O161   O     0.68513   0.50000   0.21427   0.00000  Uiso   1.00
O162   O     0.81487   0.50000   0.11907   0.00000  Uiso   1.00
O163   O     0.81487   0.50000   0.21427   0.00000  Uiso   1.00
O164   O     0.68513   0.50000   0.11907   0.00000  Uiso   1.00
C165   C     0.66437   0.50000   0.16667   0.00000  Uiso   1.00
C166   C     0.83563   0.50000   0.16667   0.00000  Uiso   1.00
Cu167  Cu    0.75000   0.50000   0.22303   0.00000  Uiso   1.00
Cu168  Cu    0.75000   0.50000   0.11031   0.00000  Uiso   1.00
N169   N     0.75000   0.50000   0.02561   0.00000  Uiso   1.00
N170   N     0.75000   0.50000   0.30773   0.00000  Uiso   1.00
C171   C     0.90663   0.54430   0.17601   0.00000  Uiso   1.00
C172   C     0.59337   0.45570   0.15733   0.00000  Uiso   1.00
C173   C     0.90663   0.45570   0.15733   0.00000  Uiso   1.00
C174   C     0.59337   0.54430   0.17601   0.00000  Uiso   1.00
C175   C     0.88374   0.50000   0.16667   0.00000  Uiso   1.00
C176   C     0.61626   0.50000   0.16667   0.00000  Uiso   1.00
C177   C     0.95320   0.45562   0.15739   0.00000  Uiso   1.00
C178   C     0.54680   0.54438   0.17595   0.00000  Uiso   1.00
C179   C     0.95320   0.54438   0.17595   0.00000  Uiso   1.00
C180   C     0.54680   0.45562   0.15739   0.00000  Uiso   1.00
C181   C     0.97656   0.50000   0.16667   0.00000  Uiso   1.00
C182   C     0.52344   0.50000   0.16667   0.00000  Uiso   1.00
C183   C     0.97693   0.41195   0.14835   0.00000  Uiso   1.00
C184   C     0.52307   0.58805   0.18499   0.00000  Uiso   1.00
C185   C     0.97693   0.58805   0.18499   0.00000  Uiso   1.00
C186   C     0.52307   0.41195   0.14835   0.00000  Uiso   1.00
C187   C     0.75000   0.35514   0.16669   0.00000  Uiso   1.00
C188   C     0.75000   0.64486   0.16664   0.00000  Uiso   1.00
N189   N     0.88276   0.58936   0.18499   0.00000  Uiso   1.00
H190   H     0.86232   0.59576   0.14962   0.00000  Uiso   1.00
H191   H     0.86272   0.58546   0.22121   0.00000  Uiso   1.00
N192   N     0.61723   0.41064   0.14834   0.00000  Uiso   1.00
H193   H     0.63727   0.41454   0.11212   0.00000  Uiso   1.00
H194   H     0.63768   0.40424   0.18371   0.00000  Uiso   1.00
N195   N     0.88276   0.41064   0.14834   0.00000  Uiso   1.00
H196   H     0.86231   0.40424   0.18370   0.00000  Uiso   1.00
H197   H     0.86273   0.41454   0.11211   0.00000  Uiso   1.00
N198   N     0.61723   0.58936   0.18499   0.00000  Uiso   1.00
H199   H     0.63728   0.58546   0.22121   0.00000  Uiso   1.00
H200   H     0.63768   0.59576   0.14961   0.00000  Uiso   1.00
O201   O     0.25000   0.76280   0.21425   0.00000  Uiso   1.00
O202   O     0.25000   0.90387   0.11908   0.00000  Uiso   1.00
O203   O     0.25000   0.90387   0.21425   0.00000  Uiso   1.00
O204   O     0.25000   0.76280   0.11908   0.00000  Uiso   1.00
H205   H     0.46002   0.71076   0.14115   0.00000  Uiso   1.00
H206   H     0.03998   0.95591   0.19220   0.00000  Uiso   1.00
H207   H     0.46002   0.95591   0.19220   0.00000  Uiso   1.00
H208   H     0.03998   0.71076   0.14115   0.00000  Uiso   1.00
C209   C     0.25000   0.74003   0.16668   0.00000  Uiso   1.00
C210   C     0.25000   0.92664   0.16665   0.00000  Uiso   1.00
O211   O     0.18513   0.83333   0.21427   0.00000  Uiso   1.00
O212   O     0.31487   0.83333   0.11907   0.00000  Uiso   1.00
O213   O     0.31487   0.83333   0.21427   0.00000  Uiso   1.00
O214   O     0.18513   0.83333   0.11907   0.00000  Uiso   1.00
C215   C     0.16437   0.83333   0.16667   0.00000  Uiso   1.00
C216   C     0.33563   0.83333   0.16667   0.00000  Uiso   1.00
Cu217  Cu    0.25000   0.83333   0.22303   0.00000  Uiso   1.00
Cu218  Cu    0.25000   0.83333   0.11031   0.00000  Uiso   1.00
N219   N     0.25000   0.83333   0.02561   0.00000  Uiso   1.00
N220   N     0.25000   0.83333   0.30773   0.00000  Uiso   1.00
C221   C     0.40663   0.87763   0.17601   0.00000  Uiso   1.00
C222   C     0.09337   0.78904   0.15733   0.00000  Uiso   1.00
C223   C     0.40663   0.78904   0.15733   0.00000  Uiso   1.00
C224   C     0.09337   0.87763   0.17601   0.00000  Uiso   1.00
C225   C     0.38374   0.83333   0.16667   0.00000  Uiso   1.00
C226   C     0.11626   0.83333   0.16667   0.00000  Uiso   1.00
C227   C     0.45320   0.78895   0.15739   0.00000  Uiso   1.00
C228   C     0.04680   0.87772   0.17595   0.00000  Uiso   1.00
C229   C     0.45320   0.87772   0.17595   0.00000  Uiso   1.00
C230   C     0.04680   0.78895   0.15739   0.00000  Uiso   1.00
C231   C     0.47656   0.83333   0.16667   0.00000  Uiso   1.00
C232   C     0.02344   0.83333   0.16667   0.00000  Uiso   1.00
C233   C     0.47693   0.74528   0.14835   0.00000  Uiso   1.00
C234   C     0.02307   0.92139   0.18499   0.00000  Uiso   1.00
C235   C     0.47693   0.92139   0.18499   0.00000  Uiso   1.00
C236   C     0.02307   0.74528   0.14835   0.00000  Uiso   1.00
C237   C     0.25000   0.68847   0.16669   0.00000  Uiso   1.00
C238   C     0.25000   0.97820   0.16664   0.00000  Uiso   1.00
N239   N     0.38276   0.92269   0.18499   0.00000  Uiso   1.00
H240   H     0.36232   0.92909   0.14962   0.00000  Uiso   1.00
H241   H     0.36272   0.91879   0.22121   0.00000  Uiso   1.00
N242   N     0.11723   0.74397   0.14834   0.00000  Uiso   1.00
H243   H     0.13727   0.74787   0.11212   0.00000  Uiso   1.00
H244   H     0.13768   0.73757   0.18371   0.00000  Uiso   1.00
N245   N     0.38276   0.74397   0.14834   0.00000  Uiso   1.00
H246   H     0.36231   0.73758   0.18370   0.00000  Uiso   1.00
H247   H     0.36273   0.74787   0.11211   0.00000  Uiso   1.00
N248   N     0.11723   0.92269   0.18499   0.00000  Uiso   1.00
H249   H     0.13728   0.91879   0.22121   0.00000  Uiso   1.00
H250   H     0.13768   0.92910   0.14961   0.00000  Uiso   1.00
O251   O     0.75000   0.76280   0.21425   0.00000  Uiso   1.00
O252   O     0.75000   0.90387   0.11908   0.00000  Uiso   1.00
O253   O     0.75000   0.90387   0.21425   0.00000  Uiso   1.00
O254   O     0.75000   0.76280   0.11908   0.00000  Uiso   1.00
H255   H     0.96002   0.71076   0.14115   0.00000  Uiso   1.00
H256   H     0.53998   0.95591   0.19220   0.00000  Uiso   1.00
H257   H     0.96002   0.95591   0.19220   0.00000  Uiso   1.00
H258   H     0.53998   0.71076   0.14115   0.00000  Uiso   1.00
C259   C     0.75000   0.74003   0.16668   0.00000  Uiso   1.00
C260   C     0.75000   0.92664   0.16665   0.00000  Uiso   1.00
O261   O     0.68513   0.83333   0.21427   0.00000  Uiso   1.00
O262   O     0.81487   0.83333   0.11907   0.00000  Uiso   1.00
O263   O     0.81487   0.83333   0.21427   0.00000  Uiso   1.00
O264   O     0.68513   0.83333   0.11907   0.00000  Uiso   1.00
C265   C     0.66437   0.83333   0.16667   0.00000  Uiso   1.00
C266   C     0.83563   0.83333   0.16667   0.00000  Uiso   1.00
Cu267  Cu    0.75000   0.83333   0.22303   0.00000  Uiso   1.00
Cu268  Cu    0.75000   0.83333   0.11031   0.00000  Uiso   1.00
N269   N     0.75000   0.83333   0.02561   0.00000  Uiso   1.00
N270   N     0.75000   0.83333   0.30773   0.00000  Uiso   1.00
C271   C     0.90663   0.87763   0.17601   0.00000  Uiso   1.00
C272   C     0.59337   0.78904   0.15733   0.00000  Uiso   1.00
C273   C     0.90663   0.78904   0.15733   0.00000  Uiso   1.00
C274   C     0.59337   0.87763   0.17601   0.00000  Uiso   1.00
C275   C     0.88374   0.83333   0.16667   0.00000  Uiso   1.00
C276   C     0.61626   0.83333   0.16667   0.00000  Uiso   1.00
C277   C     0.95320   0.78895   0.15739   0.00000  Uiso   1.00
C278   C     0.54680   0.87772   0.17595   0.00000  Uiso   1.00
C279   C     0.95320   0.87772   0.17595   0.00000  Uiso   1.00
C280   C     0.54680   0.78895   0.15739   0.00000  Uiso   1.00
C281   C     0.97656   0.83333   0.16667   0.00000  Uiso   1.00
C282   C     0.52344   0.83333   0.16667   0.00000  Uiso   1.00
C283   C     0.97693   0.74528   0.14835   0.00000  Uiso   1.00
C284   C     0.52307   0.92139   0.18499   0.00000  Uiso   1.00
C285   C     0.97693   0.92139   0.18499   0.00000  Uiso   1.00
C286   C     0.52307   0.74528   0.14835   0.00000  Uiso   1.00
C287   C     0.75000   0.68847   0.16669   0.00000  Uiso   1.00
C288   C     0.75000   0.97820   0.16664   0.00000  Uiso   1.00
N289   N     0.88276   0.92269   0.18499   0.00000  Uiso   1.00
H290   H     0.86232   0.92909   0.14962   0.00000  Uiso   1.00
H291   H     0.86272   0.91879   0.22121   0.00000  Uiso   1.00
N292   N     0.61723   0.74397   0.14834   0.00000  Uiso   1.00
H293   H     0.63727   0.74787   0.11212   0.00000  Uiso   1.00
H294   H     0.63768   0.73757   0.18371   0.00000  Uiso   1.00
N295   N     0.88276   0.74397   0.14834   0.00000  Uiso   1.00
H296   H     0.86231   0.73758   0.18370   0.00000  Uiso   1.00
H297   H     0.86273   0.74787   0.11211   0.00000  Uiso   1.00
N298   N     0.61723   0.92269   0.18499   0.00000  Uiso   1.00
H299   H     0.63728   0.91879   0.22121   0.00000  Uiso   1.00
H300   H     0.63768   0.92910   0.14961   0.00000  Uiso   1.00
O301   O     0.25000   0.09613   0.54759   0.00000  Uiso   1.00
O302   O     0.25000   0.23720   0.45241   0.00000  Uiso   1.00
O303   O     0.25000   0.23720   0.54759   0.00000  Uiso   1.00
O304   O     0.25000   0.09613   0.45241   0.00000  Uiso   1.00
H305   H     0.46002   0.04409   0.47448   0.00000  Uiso   1.00
H306   H     0.03998   0.28924   0.52553   0.00000  Uiso   1.00
H307   H     0.46002   0.28924   0.52553   0.00000  Uiso   1.00
H308   H     0.03998   0.04409   0.47448   0.00000  Uiso   1.00
C309   C     0.25000   0.07336   0.50002   0.00000  Uiso   1.00
C310   C     0.25000   0.25997   0.49998   0.00000  Uiso   1.00
O311   O     0.18513   0.16667   0.54760   0.00000  Uiso   1.00
O312   O     0.31487   0.16667   0.45240   0.00000  Uiso   1.00
O313   O     0.31487   0.16667   0.54760   0.00000  Uiso   1.00
O314   O     0.18513   0.16667   0.45240   0.00000  Uiso   1.00
C315   C     0.16437   0.16667   0.50000   0.00000  Uiso   1.00
C316   C     0.33563   0.16667   0.50000   0.00000  Uiso   1.00
Cu317  Cu    0.25000   0.16667   0.55636   0.00000  Uiso   1.00
Cu318  Cu    0.25000   0.16667   0.44364   0.00000  Uiso   1.00
N319   N     0.25000   0.16667   0.35894   0.00000  Uiso   1.00
N320   N     0.25000   0.16667   0.64106   0.00000  Uiso   1.00
C321   C     0.40663   0.21096   0.50934   0.00000  Uiso   1.00
C322   C     0.09337   0.12237   0.49066   0.00000  Uiso   1.00
C323   C     0.40663   0.12237   0.49066   0.00000  Uiso   1.00
C324   C     0.09337   0.21096   0.50934   0.00000  Uiso   1.00
C325   C     0.38374   0.16667   0.50000   0.00000  Uiso   1.00
C326   C     0.11626   0.16667   0.50000   0.00000  Uiso   1.00
C327   C     0.45320   0.12228   0.49072   0.00000  Uiso   1.00
C328   C     0.04680   0.21105   0.50929   0.00000  Uiso   1.00
C329   C     0.45320   0.21105   0.50929   0.00000  Uiso   1.00
C330   C     0.04680   0.12228   0.49072   0.00000  Uiso   1.00
C331   C     0.47656   0.16667   0.50000   0.00000  Uiso   1.00
C332   C     0.02344   0.16667   0.50000   0.00000  Uiso   1.00
C333   C     0.47693   0.07861   0.48169   0.00000  Uiso   1.00
C334   C     0.02307   0.25472   0.51832   0.00000  Uiso   1.00
C335   C     0.47693   0.25472   0.51832   0.00000  Uiso   1.00
C336   C     0.02307   0.07861   0.48169   0.00000  Uiso   1.00
C337   C     0.25000   0.02180   0.50002   0.00000  Uiso   1.00
C338   C     0.25000   0.31153   0.49998   0.00000  Uiso   1.00
N339   N     0.38276   0.25603   0.51833   0.00000  Uiso   1.00
H340   H     0.36232   0.26243   0.48295   0.00000  Uiso   1.00
H341   H     0.36272   0.25213   0.55455   0.00000  Uiso   1.00
N342   N     0.11723   0.07731   0.48168   0.00000  Uiso   1.00
H343   H     0.13727   0.08121   0.44545   0.00000  Uiso   1.00
H344   H     0.13768   0.07091   0.51705   0.00000  Uiso   1.00
N345   N     0.38276   0.07731   0.48167   0.00000  Uiso   1.00
H346   H     0.36231   0.07091   0.51704   0.00000  Uiso   1.00
H347   H     0.36273   0.08121   0.44544   0.00000  Uiso   1.00
N348   N     0.11723   0.25603   0.51832   0.00000  Uiso   1.00
H349   H     0.13728   0.25213   0.55454   0.00000  Uiso   1.00
H350   H     0.13768   0.26243   0.48295   0.00000  Uiso   1.00
O351   O     0.75000   0.09613   0.54759   0.00000  Uiso   1.00
O352   O     0.75000   0.23720   0.45241   0.00000  Uiso   1.00
O353   O     0.75000   0.23720   0.54759   0.00000  Uiso   1.00
O354   O     0.75000   0.09613   0.45241   0.00000  Uiso   1.00
H355   H     0.96002   0.04409   0.47448   0.00000  Uiso   1.00
H356   H     0.53998   0.28924   0.52553   0.00000  Uiso   1.00
H357   H     0.96002   0.28924   0.52553   0.00000  Uiso   1.00
H358   H     0.53998   0.04409   0.47448   0.00000  Uiso   1.00
C359   C     0.75000   0.07336   0.50002   0.00000  Uiso   1.00
C360   C     0.75000   0.25997   0.49998   0.00000  Uiso   1.00
O361   O     0.68513   0.16667   0.54760   0.00000  Uiso   1.00
O362   O     0.81487   0.16667   0.45240   0.00000  Uiso   1.00
O363   O     0.81487   0.16667   0.54760   0.00000  Uiso   1.00
O364   O     0.68513   0.16667   0.45240   0.00000  Uiso   1.00
C365   C     0.66437   0.16667   0.50000   0.00000  Uiso   1.00
C366   C     0.83563   0.16667   0.50000   0.00000  Uiso   1.00
Cu367  Cu    0.75000   0.16667   0.55636   0.00000  Uiso   1.00
Cu368  Cu    0.75000   0.16667   0.44364   0.00000  Uiso   1.00
N369   N     0.75000   0.16667   0.35894   0.00000  Uiso   1.00
N370   N     0.75000   0.16667   0.64106   0.00000  Uiso   1.00
C371   C     0.90663   0.21096   0.50934   0.00000  Uiso   1.00
C372   C     0.59337   0.12237   0.49066   0.00000  Uiso   1.00
C373   C     0.90663   0.12237   0.49066   0.00000  Uiso   1.00
C374   C     0.59337   0.21096   0.50934   0.00000  Uiso   1.00
C375   C     0.88374   0.16667   0.50000   0.00000  Uiso   1.00
C376   C     0.61626   0.16667   0.50000   0.00000  Uiso   1.00
C377   C     0.95320   0.12228   0.49072   0.00000  Uiso   1.00
C378   C     0.54680   0.21105   0.50929   0.00000  Uiso   1.00
C379   C     0.95320   0.21105   0.50929   0.00000  Uiso   1.00
C380   C     0.54680   0.12228   0.49072   0.00000  Uiso   1.00
C381   C     0.97656   0.16667   0.50000   0.00000  Uiso   1.00
C382   C     0.52344   0.16667   0.50000   0.00000  Uiso   1.00
C383   C     0.97693   0.07861   0.48169   0.00000  Uiso   1.00
C384   C     0.52307   0.25472   0.51832   0.00000  Uiso   1.00
C385   C     0.97693   0.25472   0.51832   0.00000  Uiso   1.00
C386   C     0.52307   0.07861   0.48169   0.00000  Uiso   1.00
C387   C     0.75000   0.02180   0.50002   0.00000  Uiso   1.00
C388   C     0.75000   0.31153   0.49998   0.00000  Uiso   1.00
N389   N     0.88276   0.25603   0.51833   0.00000  Uiso   1.00
H390   H     0.86232   0.26243   0.48295   0.00000  Uiso   1.00
H391   H     0.86272   0.25213   0.55455   0.00000  Uiso   1.00
N392   N     0.61723   0.07731   0.48168   0.00000  Uiso   1.00
H393   H     0.63727   0.08121   0.44545   0.00000  Uiso   1.00
H394   H     0.63768   0.07091   0.51705   0.00000  Uiso   1.00
N395   N     0.88276   0.07731   0.48167   0.00000  Uiso   1.00
H396   H     0.86231   0.07091   0.51704   0.00000  Uiso   1.00
H397   H     0.86273   0.08121   0.44544   0.00000  Uiso   1.00
N398   N     0.61723   0.25603   0.51832   0.00000  Uiso   1.00
H399   H     0.63728   0.25213   0.55454   0.00000  Uiso   1.00
H400   H     0.63768   0.26243   0.48295   0.00000  Uiso   1.00
O401   O     0.25000   0.42946   0.54759   0.00000  Uiso   1.00
O402   O     0.25000   0.57054   0.45241   0.00000  Uiso   1.00
O403   O     0.25000   0.57054   0.54759   0.00000  Uiso   1.00
O404   O     0.25000   0.42946   0.45241   0.00000  Uiso   1.00
H405   H     0.46002   0.37742   0.47448   0.00000  Uiso   1.00
H406   H     0.03998   0.62258   0.52553   0.00000  Uiso   1.00
H407   H     0.46002   0.62258   0.52553   0.00000  Uiso   1.00
H408   H     0.03998   0.37742   0.47448   0.00000  Uiso   1.00
C409   C     0.25000   0.40669   0.50002   0.00000  Uiso   1.00
C410   C     0.25000   0.59331   0.49998   0.00000  Uiso   1.00
O411   O     0.18513   0.50000   0.54760   0.00000  Uiso   1.00
O412   O     0.31487   0.50000   0.45240   0.00000  Uiso   1.00
O413   O     0.31487   0.50000   0.54760   0.00000  Uiso   1.00
O414   O     0.18513   0.50000   0.45240   0.00000  Uiso   1.00
C415   C     0.16437   0.50000   0.50000   0.00000  Uiso   1.00
C416   C     0.33563   0.50000   0.50000   0.00000  Uiso   1.00
Cu417  Cu    0.25000   0.50000   0.55636   0.00000  Uiso   1.00
Cu418  Cu    0.25000   0.50000   0.44364   0.00000  Uiso   1.00
N419   N     0.25000   0.50000   0.35894   0.00000  Uiso   1.00
N420   N     0.25000   0.50000   0.64106   0.00000  Uiso   1.00
C421   C     0.40663   0.54430   0.50934   0.00000  Uiso   1.00
C422   C     0.09337   0.45570   0.49066   0.00000  Uiso   1.00
C423   C     0.40663   0.45570   0.49066   0.00000  Uiso   1.00
C424   C     0.09337   0.54430   0.50934   0.00000  Uiso   1.00
C425   C     0.38374   0.50000   0.50000   0.00000  Uiso   1.00
C426   C     0.11626   0.50000   0.50000   0.00000  Uiso   1.00
C427   C     0.45320   0.45562   0.49072   0.00000  Uiso   1.00
C428   C     0.04680   0.54438   0.50929   0.00000  Uiso   1.00
C429   C     0.45320   0.54438   0.50929   0.00000  Uiso   1.00
C430   C     0.04680   0.45562   0.49072   0.00000  Uiso   1.00
C431   C     0.47656   0.50000   0.50000   0.00000  Uiso   1.00
C432   C     0.02344   0.50000   0.50000   0.00000  Uiso   1.00
C433   C     0.47693   0.41195   0.48169   0.00000  Uiso   1.00
C434   C     0.02307   0.58805   0.51832   0.00000  Uiso   1.00
C435   C     0.47693   0.58805   0.51832   0.00000  Uiso   1.00
C436   C     0.02307   0.41195   0.48169   0.00000  Uiso   1.00
C437   C     0.25000   0.35514   0.50002   0.00000  Uiso   1.00
C438   C     0.25000   0.64486   0.49998   0.00000  Uiso   1.00
N439   N     0.38276   0.58936   0.51833   0.00000  Uiso   1.00
H440   H     0.36232   0.59576   0.48295   0.00000  Uiso   1.00
H441   H     0.36272   0.58546   0.55455   0.00000  Uiso   1.00
N442   N     0.11723   0.41064   0.48168   0.00000  Uiso   1.00
H443   H     0.13727   0.41454   0.44545   0.00000  Uiso   1.00
H444   H     0.13768   0.40424   0.51705   0.00000  Uiso   1.00
N445   N     0.38276   0.41064   0.48167   0.00000  Uiso   1.00
H446   H     0.36231   0.40424   0.51704   0.00000  Uiso   1.00
H447   H     0.36273   0.41454   0.44544   0.00000  Uiso   1.00
N448   N     0.11723   0.58936   0.51832   0.00000  Uiso   1.00
H449   H     0.13728   0.58546   0.55454   0.00000  Uiso   1.00
H450   H     0.13768   0.59576   0.48295   0.00000  Uiso   1.00
O451   O     0.75000   0.42946   0.54759   0.00000  Uiso   1.00
O452   O     0.75000   0.57054   0.45241   0.00000  Uiso   1.00
O453   O     0.75000   0.57054   0.54759   0.00000  Uiso   1.00
O454   O     0.75000   0.42946   0.45241   0.00000  Uiso   1.00
H455   H     0.96002   0.37742   0.47448   0.00000  Uiso   1.00
H456   H     0.53998   0.62258   0.52553   0.00000  Uiso   1.00
H457   H     0.96002   0.62258   0.52553   0.00000  Uiso   1.00
H458   H     0.53998   0.37742   0.47448   0.00000  Uiso   1.00
C459   C     0.75000   0.40669   0.50002   0.00000  Uiso   1.00
C460   C     0.75000   0.59331   0.49998   0.00000  Uiso   1.00
O461   O     0.68513   0.50000   0.54760   0.00000  Uiso   1.00
O462   O     0.81487   0.50000   0.45240   0.00000  Uiso   1.00
O463   O     0.81487   0.50000   0.54760   0.00000  Uiso   1.00
O464   O     0.68513   0.50000   0.45240   0.00000  Uiso   1.00
C465   C     0.66437   0.50000   0.50000   0.00000  Uiso   1.00
C466   C     0.83563   0.50000   0.50000   0.00000  Uiso   1.00
Cu467  Cu    0.75000   0.50000   0.55636   0.00000  Uiso   1.00
Cu468  Cu    0.75000   0.50000   0.44364   0.00000  Uiso   1.00
N469   N     0.75000   0.50000   0.35894   0.00000  Uiso   1.00
N470   N     0.75000   0.50000   0.64106   0.00000  Uiso   1.00
C471   C     0.90663   0.54430   0.50934   0.00000  Uiso   1.00
C472   C     0.59337   0.45570   0.49066   0.00000  Uiso   1.00
C473   C     0.90663   0.45570   0.49066   0.00000  Uiso   1.00
C474   C     0.59337   0.54430   0.50934   0.00000  Uiso   1.00
C475   C     0.88374   0.50000   0.50000   0.00000  Uiso   1.00
C476   C     0.61626   0.50000   0.50000   0.00000  Uiso   1.00
C477   C     0.95320   0.45562   0.49072   0.00000  Uiso   1.00
C478   C     0.54680   0.54438   0.50929   0.00000  Uiso   1.00
C479   C     0.95320   0.54438   0.50929   0.00000  Uiso   1.00
C480   C     0.54680   0.45562   0.49072   0.00000  Uiso   1.00
C481   C     0.97656   0.50000   0.50000   0.00000  Uiso   1.00
C482   C     0.52344   0.50000   0.50000   0.00000  Uiso   1.00
C483   C     0.97693   0.41195   0.48169   0.00000  Uiso   1.00
C484   C     0.52307   0.58805   0.51832   0.00000  Uiso   1.00
C485   C     0.97693   0.58805   0.51832   0.00000  Uiso   1.00
C486   C     0.52307   0.41195   0.48169   0.00000  Uiso   1.00
C487   C     0.75000   0.35514   0.50002   0.00000  Uiso   1.00
C488   C     0.75000   0.64486   0.49998   0.00000  Uiso   1.00
N489   N     0.88276   0.58936   0.51833   0.00000  Uiso   1.00
H490   H     0.86232   0.59576   0.48295   0.00000  Uiso   1.00
H491   H     0.86272   0.58546   0.55455   0.00000  Uiso   1.00
N492   N     0.61723   0.41064   0.48168   0.00000  Uiso   1.00
H493   H     0.63727   0.41454   0.44545   0.00000  Uiso   1.00
H494   H     0.63768   0.40424   0.51705   0.00000  Uiso   1.00
N495   N     0.88276   0.41064   0.48167   0.00000  Uiso   1.00
H496   H     0.86231   0.40424   0.51704   0.00000  Uiso   1.00
H497   H     0.86273   0.41454   0.44544   0.00000  Uiso   1.00
N498   N     0.61723   0.58936   0.51832   0.00000  Uiso   1.00
H499   H     0.63728   0.58546   0.55454   0.00000  Uiso   1.00
H500   H     0.63768   0.59576   0.48295   0.00000  Uiso   1.00
O501   O     0.25000   0.76280   0.54759   0.00000  Uiso   1.00
O502   O     0.25000   0.90387   0.45241   0.00000  Uiso   1.00
O503   O     0.25000   0.90387   0.54759   0.00000  Uiso   1.00
O504   O     0.25000   0.76280   0.45241   0.00000  Uiso   1.00
H505   H     0.46002   0.71076   0.47448   0.00000  Uiso   1.00
H506   H     0.03998   0.95591   0.52553   0.00000  Uiso   1.00
H507   H     0.46002   0.95591   0.52553   0.00000  Uiso   1.00
H508   H     0.03998   0.71076   0.47448   0.00000  Uiso   1.00
C509   C     0.25000   0.74003   0.50002   0.00000  Uiso   1.00
C510   C     0.25000   0.92664   0.49998   0.00000  Uiso   1.00
O511   O     0.18513   0.83333   0.54760   0.00000  Uiso   1.00
O512   O     0.31487   0.83333   0.45240   0.00000  Uiso   1.00
O513   O     0.31487   0.83333   0.54760   0.00000  Uiso   1.00
O514   O     0.18513   0.83333   0.45240   0.00000  Uiso   1.00
C515   C     0.16437   0.83333   0.50000   0.00000  Uiso   1.00
C516   C     0.33563   0.83333   0.50000   0.00000  Uiso   1.00
Cu517  Cu    0.25000   0.83333   0.55636   0.00000  Uiso   1.00
Cu518  Cu    0.25000   0.83333   0.44364   0.00000  Uiso   1.00
N519   N     0.25000   0.83333   0.35894   0.00000  Uiso   1.00
N520   N     0.25000   0.83333   0.64106   0.00000  Uiso   1.00
C521   C     0.40663   0.87763   0.50934   0.00000  Uiso   1.00
C522   C     0.09337   0.78904   0.49066   0.00000  Uiso   1.00
C523   C     0.40663   0.78904   0.49066   0.00000  Uiso   1.00
C524   C     0.09337   0.87763   0.50934   0.00000  Uiso   1.00
C525   C     0.38374   0.83333   0.50000   0.00000  Uiso   1.00
C526   C     0.11626   0.83333   0.50000   0.00000  Uiso   1.00
C527   C     0.45320   0.78895   0.49072   0.00000  Uiso   1.00
C528   C     0.04680   0.87772   0.50929   0.00000  Uiso   1.00
C529   C     0.45320   0.87772   0.50929   0.00000  Uiso   1.00
C530   C     0.04680   0.78895   0.49072   0.00000  Uiso   1.00
C531   C     0.47656   0.83333   0.50000   0.00000  Uiso   1.00
C532   C     0.02344   0.83333   0.50000   0.00000  Uiso   1.00
C533   C     0.47693   0.74528   0.48169   0.00000  Uiso   1.00
C534   C     0.02307   0.92139   0.51832   0.00000  Uiso   1.00
C535   C     0.47693   0.92139   0.51832   0.00000  Uiso   1.00
C536   C     0.02307   0.74528   0.48169   0.00000  Uiso   1.00
C537   C     0.25000   0.68847   0.50002   0.00000  Uiso   1.00
C538   C     0.25000   0.97820   0.49998   0.00000  Uiso   1.00
N539   N     0.38276   0.92269   0.51833   0.00000  Uiso   1.00
H540   H     0.36232   0.92909   0.48295   0.00000  Uiso   1.00
H541   H     0.36272   0.91879   0.55455   0.00000  Uiso   1.00
N542   N     0.11723   0.74397   0.48168   0.00000  Uiso   1.00
H543   H     0.13727   0.74787   0.44545   0.00000  Uiso   1.00
H544   H     0.13768   0.73757   0.51705   0.00000  Uiso   1.00
N545   N     0.38276   0.74397   0.48167   0.00000  Uiso   1.00
H546   H     0.36231   0.73758   0.51704   0.00000  Uiso   1.00
H547   H     0.36273   0.74787   0.44544   0.00000  Uiso   1.00
N548   N     0.11723   0.92269   0.51832   0.00000  Uiso   1.00
H549   H     0.13728   0.91879   0.55454   0.00000  Uiso   1.00
H550   H     0.13768   0.92910   0.48295   0.00000  Uiso   1.00
O551   O     0.75000   0.76280   0.54759   0.00000  Uiso   1.00
O552   O     0.75000   0.90387   0.45241   0.00000  Uiso   1.00
O553   O     0.75000   0.90387   0.54759   0.00000  Uiso   1.00
O554   O     0.75000   0.76280   0.45241   0.00000  Uiso   1.00
H555   H     0.96002   0.71076   0.47448   0.00000  Uiso   1.00
H556   H     0.53998   0.95591   0.52553   0.00000  Uiso   1.00
H557   H     0.96002   0.95591   0.52553   0.00000  Uiso   1.00
H558   H     0.53998   0.71076   0.47448   0.00000  Uiso   1.00
C559   C     0.75000   0.74003   0.50002   0.00000  Uiso   1.00
C560   C     0.75000   0.92664   0.49998   0.00000  Uiso   1.00
O561   O     0.68513   0.83333   0.54760   0.00000  Uiso   1.00
O562   O     0.81487   0.83333   0.45240   0.00000  Uiso   1.00
O563   O     0.81487   0.83333   0.54760   0.00000  Uiso   1.00
O564   O     0.68513   0.83333   0.45240   0.00000  Uiso   1.00
C565   C     0.66437   0.83333   0.50000   0.00000  Uiso   1.00
C566   C     0.83563   0.83333   0.50000   0.00000  Uiso   1.00
Cu567  Cu    0.75000   0.83333   0.55636   0.00000  Uiso   1.00
Cu568  Cu    0.75000   0.83333   0.44364   0.00000  Uiso   1.00
N569   N     0.75000   0.83333   0.35894   0.00000  Uiso   1.00
N570   N     0.75000   0.83333   0.64106   0.00000  Uiso   1.00
C571   C     0.90663   0.87763   0.50934   0.00000  Uiso   1.00
C572   C     0.59337   0.78904   0.49066   0.00000  Uiso   1.00
C573   C     0.90663   0.78904   0.49066   0.00000  Uiso   1.00
C574   C     0.59337   0.87763   0.50934   0.00000  Uiso   1.00
C575   C     0.88374   0.83333   0.50000   0.00000  Uiso   1.00
C576   C     0.61626   0.83333   0.50000   0.00000  Uiso   1.00
C577   C     0.95320   0.78895   0.49072   0.00000  Uiso   1.00
C578   C     0.54680   0.87772   0.50929   0.00000  Uiso   1.00
C579   C     0.95320   0.87772   0.50929   0.00000  Uiso   1.00
C580   C     0.54680   0.78895   0.49072   0.00000  Uiso   1.00
C581   C     0.97656   0.83333   0.50000   0.00000  Uiso   1.00
C582   C     0.52344   0.83333   0.50000   0.00000  Uiso   1.00
C583   C     0.97693   0.74528   0.48169   0.00000  Uiso   1.00
C584   C     0.52307   0.92139   0.51832   0.00000  Uiso   1.00
C585   C     0.97693   0.92139   0.51832   0.00000  Uiso   1.00
C586   C     0.52307   0.74528   0.48169   0.00000  Uiso   1.00
C587   C     0.75000   0.68847   0.50002   0.00000  Uiso   1.00
C588   C     0.75000   0.97820   0.49998   0.00000  Uiso   1.00
N589   N     0.88276   0.92269   0.51833   0.00000  Uiso   1.00
H590   H     0.86232   0.92909   0.48295   0.00000  Uiso   1.00
H591   H     0.86272   0.91879   0.55455   0.00000  Uiso   1.00
N592   N     0.61723   0.74397   0.48168   0.00000  Uiso   1.00
H593   H     0.63727   0.74787   0.44545   0.00000  Uiso   1.00
H594   H     0.63768   0.73757   0.51705   0.00000  Uiso   1.00
N595   N     0.88276   0.74397   0.48167   0.00000  Uiso   1.00
H596   H     0.86231   0.73758   0.51704   0.00000  Uiso   1.00
H597   H     0.86273   0.74787   0.44544   0.00000  Uiso   1.00
N598   N     0.61723   0.92269   0.51832   0.00000  Uiso   1.00
H599   H     0.63728   0.91879   0.55454   0.00000  Uiso   1.00
H600   H     0.63768   0.92910   0.48295   0.00000  Uiso   1.00
O601   O     0.25000   0.09613   0.88092   0.00000  Uiso   1.00
O602   O     0.25000   0.23720   0.78575   0.00000  Uiso   1.00
O603   O     0.25000   0.23720   0.88092   0.00000  Uiso   1.00
O604   O     0.25000   0.09613   0.78575   0.00000  Uiso   1.00
H605   H     0.46002   0.04409   0.80781   0.00000  Uiso   1.00
H606   H     0.03998   0.28924   0.85886   0.00000  Uiso   1.00
H607   H     0.46002   0.28924   0.85886   0.00000  Uiso   1.00
H608   H     0.03998   0.04409   0.80781   0.00000  Uiso   1.00
C609   C     0.25000   0.07336   0.83335   0.00000  Uiso   1.00
C610   C     0.25000   0.25997   0.83332   0.00000  Uiso   1.00
O611   O     0.18513   0.16667   0.88093   0.00000  Uiso   1.00
O612   O     0.31487   0.16667   0.78573   0.00000  Uiso   1.00
O613   O     0.31487   0.16667   0.88093   0.00000  Uiso   1.00
O614   O     0.18513   0.16667   0.78573   0.00000  Uiso   1.00
C615   C     0.16437   0.16667   0.83333   0.00000  Uiso   1.00
C616   C     0.33563   0.16667   0.83333   0.00000  Uiso   1.00
Cu617  Cu    0.25000   0.16667   0.88969   0.00000  Uiso   1.00
Cu618  Cu    0.25000   0.16667   0.77697   0.00000  Uiso   1.00
N619   N     0.25000   0.16667   0.69227   0.00000  Uiso   1.00
N620   N     0.25000   0.16667   0.97439   0.00000  Uiso   1.00
C621   C     0.40663   0.21096   0.84267   0.00000  Uiso   1.00
C622   C     0.09337   0.12237   0.82400   0.00000  Uiso   1.00
C623   C     0.40663   0.12237   0.82400   0.00000  Uiso   1.00
C624   C     0.09337   0.21096   0.84267   0.00000  Uiso   1.00
C625   C     0.38374   0.16667   0.83333   0.00000  Uiso   1.00
C626   C     0.11626   0.16667   0.83333   0.00000  Uiso   1.00
C627   C     0.45320   0.12228   0.82406   0.00000  Uiso   1.00
C628   C     0.04680   0.21105   0.84262   0.00000  Uiso   1.00
C629   C     0.45320   0.21105   0.84262   0.00000  Uiso   1.00
C630   C     0.04680   0.12228   0.82405   0.00000  Uiso   1.00
C631   C     0.47656   0.16667   0.83334   0.00000  Uiso   1.00
C632   C     0.02344   0.16667   0.83334   0.00000  Uiso   1.00
C633   C     0.47693   0.07861   0.81502   0.00000  Uiso   1.00
C634   C     0.02307   0.25472   0.85166   0.00000  Uiso   1.00
C635   C     0.47693   0.25472   0.85165   0.00000  Uiso   1.00
C636   C     0.02307   0.07861   0.81502   0.00000  Uiso   1.00
C637   C     0.25000   0.02180   0.83336   0.00000  Uiso   1.00
C638   C     0.25000   0.31153   0.83331   0.00000  Uiso   1.00
N639   N     0.38276   0.25603   0.85166   0.00000  Uiso   1.00
H640   H     0.36232   0.26243   0.81629   0.00000  Uiso   1.00
H641   H     0.36272   0.25213   0.88788   0.00000  Uiso   1.00
N642   N     0.11723   0.07731   0.81501   0.00000  Uiso   1.00
H643   H     0.13727   0.08121   0.77878   0.00000  Uiso   1.00
H644   H     0.13768   0.07091   0.85038   0.00000  Uiso   1.00
N645   N     0.38276   0.07731   0.81501   0.00000  Uiso   1.00
H646   H     0.36231   0.07091   0.85037   0.00000  Uiso   1.00
H647   H     0.36273   0.08121   0.77878   0.00000  Uiso   1.00
N648   N     0.11723   0.25603   0.85166   0.00000  Uiso   1.00
H649   H     0.13728   0.25213   0.88788   0.00000  Uiso   1.00
H650   H     0.13768   0.26243   0.81628   0.00000  Uiso   1.00
O651   O     0.75000   0.09613   0.88092   0.00000  Uiso   1.00
O652   O     0.75000   0.23720   0.78575   0.00000  Uiso   1.00
O653   O     0.75000   0.23720   0.88092   0.00000  Uiso   1.00
O654   O     0.75000   0.09613   0.78575   0.00000  Uiso   1.00
H655   H     0.96002   0.04409   0.80781   0.00000  Uiso   1.00
H656   H     0.53998   0.28924   0.85886   0.00000  Uiso   1.00
H657   H     0.96002   0.28924   0.85886   0.00000  Uiso   1.00
H658   H     0.53998   0.04409   0.80781   0.00000  Uiso   1.00
C659   C     0.75000   0.07336   0.83335   0.00000  Uiso   1.00
C660   C     0.75000   0.25997   0.83332   0.00000  Uiso   1.00
O661   O     0.68513   0.16667   0.88093   0.00000  Uiso   1.00
O662   O     0.81487   0.16667   0.78573   0.00000  Uiso   1.00
O663   O     0.81487   0.16667   0.88093   0.00000  Uiso   1.00
O664   O     0.68513   0.16667   0.78573   0.00000  Uiso   1.00
C665   C     0.66437   0.16667   0.83333   0.00000  Uiso   1.00
C666   C     0.83563   0.16667   0.83333   0.00000  Uiso   1.00
Cu667  Cu    0.75000   0.16667   0.88969   0.00000  Uiso   1.00
Cu668  Cu    0.75000   0.16667   0.77697   0.00000  Uiso   1.00
N669   N     0.75000   0.16667   0.69227   0.00000  Uiso   1.00
N670   N     0.75000   0.16667   0.97439   0.00000  Uiso   1.00
C671   C     0.90663   0.21096   0.84267   0.00000  Uiso   1.00
C672   C     0.59337   0.12237   0.82400   0.00000  Uiso   1.00
C673   C     0.90663   0.12237   0.82400   0.00000  Uiso   1.00
C674   C     0.59337   0.21096   0.84267   0.00000  Uiso   1.00
C675   C     0.88374   0.16667   0.83333   0.00000  Uiso   1.00
C676   C     0.61626   0.16667   0.83333   0.00000  Uiso   1.00
C677   C     0.95320   0.12228   0.82406   0.00000  Uiso   1.00
C678   C     0.54680   0.21105   0.84262   0.00000  Uiso   1.00
C679   C     0.95320   0.21105   0.84262   0.00000  Uiso   1.00
C680   C     0.54680   0.12228   0.82405   0.00000  Uiso   1.00
C681   C     0.97656   0.16667   0.83334   0.00000  Uiso   1.00
C682   C     0.52344   0.16667   0.83334   0.00000  Uiso   1.00
C683   C     0.97693   0.07861   0.81502   0.00000  Uiso   1.00
C684   C     0.52307   0.25472   0.85166   0.00000  Uiso   1.00
C685   C     0.97693   0.25472   0.85165   0.00000  Uiso   1.00
C686   C     0.52307   0.07861   0.81502   0.00000  Uiso   1.00
C687   C     0.75000   0.02180   0.83336   0.00000  Uiso   1.00
C688   C     0.75000   0.31153   0.83331   0.00000  Uiso   1.00
N689   N     0.88276   0.25603   0.85166   0.00000  Uiso   1.00
H690   H     0.86232   0.26243   0.81629   0.00000  Uiso   1.00
H691   H     0.86272   0.25213   0.88788   0.00000  Uiso   1.00
N692   N     0.61723   0.07731   0.81501   0.00000  Uiso   1.00
H693   H     0.63727   0.08121   0.77878   0.00000  Uiso   1.00
H694   H     0.63768   0.07091   0.85038   0.00000  Uiso   1.00
N695   N     0.88276   0.07731   0.81501   0.00000  Uiso   1.00
H696   H     0.86231   0.07091   0.85037   0.00000  Uiso   1.00
H697   H     0.86273   0.08121   0.77878   0.00000  Uiso   1.00
N698   N     0.61723   0.25603   0.85166   0.00000  Uiso   1.00
H699   H     0.63728   0.25213   0.88788   0.00000  Uiso   1.00
H700   H     0.63768   0.26243   0.81628   0.00000  Uiso   1.00
O701   O     0.25000   0.42946   0.88092   0.00000  Uiso   1.00
O702   O     0.25000   0.57054   0.78575   0.00000  Uiso   1.00
O703   O     0.25000   0.57054   0.88092   0.00000  Uiso   1.00
O704   O     0.25000   0.42946   0.78575   0.00000  Uiso   1.00
H705   H     0.46002   0.37742   0.80781   0.00000  Uiso   1.00
H706   H     0.03998   0.62258   0.85886   0.00000  Uiso   1.00
H707   H     0.46002   0.62258   0.85886   0.00000  Uiso   1.00
H708   H     0.03998   0.37742   0.80781   0.00000  Uiso   1.00
C709   C     0.25000   0.40669   0.83335   0.00000  Uiso   1.00
C710   C     0.25000   0.59331   0.83332   0.00000  Uiso   1.00
O711   O     0.18513   0.50000   0.88093   0.00000  Uiso   1.00
O712   O     0.31487   0.50000   0.78573   0.00000  Uiso   1.00
O713   O     0.31487   0.50000   0.88093   0.00000  Uiso   1.00
O714   O     0.18513   0.50000   0.78573   0.00000  Uiso   1.00
C715   C     0.16437   0.50000   0.83333   0.00000  Uiso   1.00
C716   C     0.33563   0.50000   0.83333   0.00000  Uiso   1.00
Cu717  Cu    0.25000   0.50000   0.88969   0.00000  Uiso   1.00
Cu718  Cu    0.25000   0.50000   0.77697   0.00000  Uiso   1.00
N719   N     0.25000   0.50000   0.69227   0.00000  Uiso   1.00
N720   N     0.25000   0.50000   0.97439   0.00000  Uiso   1.00
C721   C     0.40663   0.54430   0.84267   0.00000  Uiso   1.00
C722   C     0.09337   0.45570   0.82400   0.00000  Uiso   1.00
C723   C     0.40663   0.45570   0.82400   0.00000  Uiso   1.00
C724   C     0.09337   0.54430   0.84267   0.00000  Uiso   1.00
C725   C     0.38374   0.50000   0.83333   0.00000  Uiso   1.00
C726   C     0.11626   0.50000   0.83333   0.00000  Uiso   1.00
C727   C     0.45320   0.45562   0.82406   0.00000  Uiso   1.00
C728   C     0.04680   0.54438   0.84262   0.00000  Uiso   1.00
C729   C     0.45320   0.54438   0.84262   0.00000  Uiso   1.00
C730   C     0.04680   0.45562   0.82405   0.00000  Uiso   1.00
C731   C     0.47656   0.50000   0.83334   0.00000  Uiso   1.00
C732   C     0.02344   0.50000   0.83334   0.00000  Uiso   1.00
C733   C     0.47693   0.41195   0.81502   0.00000  Uiso   1.00
C734   C     0.02307   0.58805   0.85166   0.00000  Uiso   1.00
C735   C     0.47693   0.58805   0.85165   0.00000  Uiso   1.00
C736   C     0.02307   0.41195   0.81502   0.00000  Uiso   1.00
C737   C     0.25000   0.35514   0.83336   0.00000  Uiso   1.00
C738   C     0.25000   0.64486   0.83331   0.00000  Uiso   1.00
N739   N     0.38276   0.58936   0.85166   0.00000  Uiso   1.00
H740   H     0.36232   0.59576   0.81629   0.00000  Uiso   1.00
H741   H     0.36272   0.58546   0.88788   0.00000  Uiso   1.00
N742   N     0.11723   0.41064   0.81501   0.00000  Uiso   1.00
H743   H     0.13727   0.41454   0.77878   0.00000  Uiso   1.00
H744   H     0.13768   0.40424   0.85038   0.00000  Uiso   1.00
N745   N     0.38276   0.41064   0.81501   0.00000  Uiso   1.00
H746   H     0.36231   0.40424   0.85037   0.00000  Uiso   1.00
H747   H     0.36273   0.41454   0.77878   0.00000  Uiso   1.00
N748   N     0.11723   0.58936   0.85166   0.00000  Uiso   1.00
H749   H     0.13728   0.58546   0.88788   0.00000  Uiso   1.00
H750   H     0.13768   0.59576   0.81628   0.00000  Uiso   1.00
O751   O     0.75000   0.42946   0.88092   0.00000  Uiso   1.00
O752   O     0.75000   0.57054   0.78575   0.00000  Uiso   1.00
O753   O     0.75000   0.57054   0.88092   0.00000  Uiso   1.00
O754   O     0.75000   0.42946   0.78575   0.00000  Uiso   1.00
H755   H     0.96002   0.37742   0.80781   0.00000  Uiso   1.00
H756   H     0.53998   0.62258   0.85886   0.00000  Uiso   1.00
H757   H     0.96002   0.62258   0.85886   0.00000  Uiso   1.00
H758   H     0.53998   0.37742   0.80781   0.00000  Uiso   1.00
C759   C     0.75000   0.40669   0.83335   0.00000  Uiso   1.00
C760   C     0.75000   0.59331   0.83332   0.00000  Uiso   1.00
O761   O     0.68513   0.50000   0.88093   0.00000  Uiso   1.00
O762   O     0.81487   0.50000   0.78573   0.00000  Uiso   1.00
O763   O     0.81487   0.50000   0.88093   0.00000  Uiso   1.00
O764   O     0.68513   0.50000   0.78573   0.00000  Uiso   1.00
C765   C     0.66437   0.50000   0.83333   0.00000  Uiso   1.00
C766   C     0.83563   0.50000   0.83333   0.00000  Uiso   1.00
Cu767  Cu    0.75000   0.50000   0.88969   0.00000  Uiso   1.00
Cu768  Cu    0.75000   0.50000   0.77697   0.00000  Uiso   1.00
N769   N     0.75000   0.50000   0.69227   0.00000  Uiso   1.00
N770   N     0.75000   0.50000   0.97439   0.00000  Uiso   1.00
C771   C     0.90663   0.54430   0.84267   0.00000  Uiso   1.00
C772   C     0.59337   0.45570   0.82400   0.00000  Uiso   1.00
C773   C     0.90663   0.45570   0.82400   0.00000  Uiso   1.00
C774   C     0.59337   0.54430   0.84267   0.00000  Uiso   1.00
C775   C     0.88374   0.50000   0.83333   0.00000  Uiso   1.00
C776   C     0.61626   0.50000   0.83333   0.00000  Uiso   1.00
C777   C     0.95320   0.45562   0.82406   0.00000  Uiso   1.00
C778   C     0.54680   0.54438   0.84262   0.00000  Uiso   1.00
C779   C     0.95320   0.54438   0.84262   0.00000  Uiso   1.00
C780   C     0.54680   0.45562   0.82405   0.00000  Uiso   1.00
C781   C     0.97656   0.50000   0.83334   0.00000  Uiso   1.00
C782   C     0.52344   0.50000   0.83334   0.00000  Uiso   1.00
C783   C     0.97693   0.41195   0.81502   0.00000  Uiso   1.00
C784   C     0.52307   0.58805   0.85166   0.00000  Uiso   1.00
C785   C     0.97693   0.58805   0.85165   0.00000  Uiso   1.00
C786   C     0.52307   0.41195   0.81502   0.00000  Uiso   1.00
C787   C     0.75000   0.35514   0.83336   0.00000  Uiso   1.00
C788   C     0.75000   0.64486   0.83331   0.00000  Uiso   1.00
N789   N     0.88276   0.58936   0.85166   0.00000  Uiso   1.00
H790   H     0.86232   0.59576   0.81629   0.00000  Uiso   1.00
H791   H     0.86272   0.58546   0.88788   0.00000  Uiso   1.00
N792   N     0.61723   0.41064   0.81501   0.00000  Uiso   1.00
H793   H     0.63727   0.41454   0.77878   0.00000  Uiso   1.00
H794   H     0.63768   0.40424   0.85038   0.00000  Uiso   1.00
N795   N     0.88276   0.41064   0.81501   0.00000  Uiso   1.00
H796   H     0.86231   0.40424   0.85037   0.00000  Uiso   1.00
H797   H     0.86273   0.41454   0.77878   0.00000  Uiso   1.00
N798   N     0.61723   0.58936   0.85166   0.00000  Uiso   1.00
H799   H     0.63728   0.58546   0.88788   0.00000  Uiso   1.00
H800   H     0.63768   0.59576   0.81628   0.00000  Uiso   1.00
O801   O     0.25000   0.76280   0.88092   0.00000  Uiso   1.00
O802   O     0.25000   0.90387   0.78575   0.00000  Uiso   1.00
O803   O     0.25000   0.90387   0.88092   0.00000  Uiso   1.00
O804   O     0.25000   0.76280   0.78575   0.00000  Uiso   1.00
H805   H     0.46002   0.71076   0.80781   0.00000  Uiso   1.00
H806   H     0.03998   0.95591   0.85886   0.00000  Uiso   1.00
H807   H     0.46002   0.95591   0.85886   0.00000  Uiso   1.00
H808   H     0.03998   0.71076   0.80781   0.00000  Uiso   1.00
C809   C     0.25000   0.74003   0.83335   0.00000  Uiso   1.00
C810   C     0.25000   0.92664   0.83332   0.00000  Uiso   1.00
O811   O     0.18513   0.83333   0.88093   0.00000  Uiso   1.00
O812   O     0.31487   0.83333   0.78573   0.00000  Uiso   1.00
O813   O     0.31487   0.83333   0.88093   0.00000  Uiso   1.00
O814   O     0.18513   0.83333   0.78573   0.00000  Uiso   1.00
C815   C     0.16437   0.83333   0.83333   0.00000  Uiso   1.00
C816   C     0.33563   0.83333   0.83333   0.00000  Uiso   1.00
Cu817  Cu    0.25000   0.83333   0.88969   0.00000  Uiso   1.00
Cu818  Cu    0.25000   0.83333   0.77697   0.00000  Uiso   1.00
N819   N     0.25000   0.83333   0.69227   0.00000  Uiso   1.00
N820   N     0.25000   0.83333   0.97439   0.00000  Uiso   1.00
C821   C     0.40663   0.87763   0.84267   0.00000  Uiso   1.00
C822   C     0.09337   0.78904   0.82400   0.00000  Uiso   1.00
C823   C     0.40663   0.78904   0.82400   0.00000  Uiso   1.00
C824   C     0.09337   0.87763   0.84267   0.00000  Uiso   1.00
C825   C     0.38374   0.83333   0.83333   0.00000  Uiso   1.00
C826   C     0.11626   0.83333   0.83333   0.00000  Uiso   1.00
C827   C     0.45320   0.78895   0.82406   0.00000  Uiso   1.00
C828   C     0.04680   0.87772   0.84262   0.00000  Uiso   1.00
C829   C     0.45320   0.87772   0.84262   0.00000  Uiso   1.00
C830   C     0.04680   0.78895   0.82405   0.00000  Uiso   1.00
C831   C     0.47656   0.83333   0.83334   0.00000  Uiso   1.00
C832   C     0.02344   0.83333   0.83334   0.00000  Uiso   1.00
C833   C     0.47693   0.74528   0.81502   0.00000  Uiso   1.00
C834   C     0.02307   0.92139   0.85166   0.00000  Uiso   1.00
C835   C     0.47693   0.92139   0.85165   0.00000  Uiso   1.00
C836   C     0.02307   0.74528   0.81502   0.00000  Uiso   1.00
C837   C     0.25000   0.68847   0.83336   0.00000  Uiso   1.00
C838   C     0.25000   0.97820   0.83331   0.00000  Uiso   1.00
N839   N     0.38276   0.92269   0.85166   0.00000  Uiso   1.00
H840   H     0.36232   0.92909   0.81629   0.00000  Uiso   1.00
H841   H     0.36272   0.91879   0.88788   0.00000  Uiso   1.00
N842   N     0.11723   0.74397   0.81501   0.00000  Uiso   1.00
H843   H     0.13727   0.74787   0.77878   0.00000  Uiso   1.00
H844   H     0.13768   0.73757   0.85038   0.00000  Uiso   1.00
N845   N     0.38276   0.74397   0.81501   0.00000  Uiso   1.00
H846   H     0.36231   0.73758   0.85037   0.00000  Uiso   1.00
H847   H     0.36273   0.74787   0.77878   0.00000  Uiso   1.00
N848   N     0.11723   0.92269   0.85166   0.00000  Uiso   1.00
H849   H     0.13728   0.91879   0.88788   0.00000  Uiso   1.00
H850   H     0.13768   0.92910   0.81628   0.00000  Uiso   1.00
O851   O     0.75000   0.76280   0.88092   0.00000  Uiso   1.00
O852   O     0.75000   0.90387   0.78575   0.00000  Uiso   1.00
O853   O     0.75000   0.90387   0.88092   0.00000  Uiso   1.00
O854   O     0.75000   0.76280   0.78575   0.00000  Uiso   1.00
H855   H     0.96002   0.71076   0.80781   0.00000  Uiso   1.00
H856   H     0.53998   0.95591   0.85886   0.00000  Uiso   1.00
H857   H     0.96002   0.95591   0.85886   0.00000  Uiso   1.00
H858   H     0.53998   0.71076   0.80781   0.00000  Uiso   1.00
C859   C     0.75000   0.74003   0.83335   0.00000  Uiso   1.00
C860   C     0.75000   0.92664   0.83332   0.00000  Uiso   1.00
O861   O     0.68513   0.83333   0.88093   0.00000  Uiso   1.00
O862   O     0.81487   0.83333   0.78573   0.00000  Uiso   1.00
O863   O     0.81487   0.83333   0.88093   0.00000  Uiso   1.00
O864   O     0.68513   0.83333   0.78573   0.00000  Uiso   1.00
C865   C     0.66437   0.83333   0.83333   0.00000  Uiso   1.00
C866   C     0.83563   0.83333   0.83333   0.00000  Uiso   1.00
Cu867  Cu    0.75000   0.83333   0.88969   0.00000  Uiso   1.00
Cu868  Cu    0.75000   0.83333   0.77697   0.00000  Uiso   1.00
N869   N     0.75000   0.83333   0.69227   0.00000  Uiso   1.00
N870   N     0.75000   0.83333   0.97439   0.00000  Uiso   1.00
C871   C     0.90663   0.87763   0.84267   0.00000  Uiso   1.00
C872   C     0.59337   0.78904   0.82400   0.00000  Uiso   1.00
C873   C     0.90663   0.78904   0.82400   0.00000  Uiso   1.00
C874   C     0.59337   0.87763   0.84267   0.00000  Uiso   1.00
C875   C     0.88374   0.83333   0.83333   0.00000  Uiso   1.00
C876   C     0.61626   0.83333   0.83333   0.00000  Uiso   1.00
C877   C     0.95320   0.78895   0.82406   0.00000  Uiso   1.00
C878   C     0.54680   0.87772   0.84262   0.00000  Uiso   1.00
C879   C     0.95320   0.87772   0.84262   0.00000  Uiso   1.00
C880   C     0.54680   0.78895   0.82405   0.00000  Uiso   1.00
C881   C     0.97656   0.83333   0.83334   0.00000  Uiso   1.00
C882   C     0.52344   0.83333   0.83334   0.00000  Uiso   1.00
C883   C     0.97693   0.74528   0.81502   0.00000  Uiso   1.00
C884   C     0.52307   0.92139   0.85166   0.00000  Uiso   1.00
C885   C     0.97693   0.92139   0.85165   0.00000  Uiso   1.00
C886   C     0.52307   0.74528   0.81502   0.00000  Uiso   1.00
C887   C     0.75000   0.68847   0.83336   0.00000  Uiso   1.00
C888   C     0.75000   0.97820   0.83331   0.00000  Uiso   1.00
N889   N     0.88276   0.92269   0.85166   0.00000  Uiso   1.00
H890   H     0.86232   0.92909   0.81629   0.00000  Uiso   1.00
H891   H     0.86272   0.91879   0.88788   0.00000  Uiso   1.00
N892   N     0.61723   0.74397   0.81501   0.00000  Uiso   1.00
H893   H     0.63727   0.74787   0.77878   0.00000  Uiso   1.00
H894   H     0.63768   0.73757   0.85038   0.00000  Uiso   1.00
N895   N     0.88276   0.74397   0.81501   0.00000  Uiso   1.00
H896   H     0.86231   0.73758   0.85037   0.00000  Uiso   1.00
H897   H     0.86273   0.74787   0.77878   0.00000  Uiso   1.00
N898   N     0.61723   0.92269   0.85166   0.00000  Uiso   1.00
H899   H     0.63728   0.91879   0.88788   0.00000  Uiso   1.00
H900   H     0.63768   0.92910   0.81628   0.00000  Uiso   1.00
loop_
_geom_bond_atom_site_label_1
_geom_bond_atom_site_label_2
_geom_bond_distance
_geom_bond_site_symmetry_2
_ccdc_geom_bond_type
O1     Cu17    1.933   .     S
O1     C9      1.274   .     A
O2     Cu18    1.933   .     S
O2     C10     1.274   .     A
O3     C10     1.274   .     A
O3     Cu17    1.932   .     S
O4     Cu18    1.932   .     S
O4     C9      1.274   .     A
H5     C33     1.083   .     S
H6     C34     1.083   .     S
H7     C35     1.083   .     S
H8     C36     1.083   .     S
C9     C37     1.405   .     S
C10    C38     1.405   .     S
O11    Cu17    1.963   .     S
O11    C15     1.277   .     A
O12    C16     1.277   .     A
O12    Cu18    1.963   .     S
O13    Cu17    1.963   .     S
O13    C16     1.277   .     A
O14    C15     1.277   .     A
O14    Cu18    1.963   .     S
C15    C26     1.448   .     S
C16    C25     1.448   .     S
Cu17   N20     1.981   .     S
Cu17   Cu18    2.636   .     S
Cu18   N19     1.981   .     S
N19    N620    1.198   1_554 S
N20    N319    1.198   .     S
C21    N39     1.438   .     S
C21    C29     1.402   .     A
C21    C25     1.407   .     A
C22    N42     1.438   .     S
C22    C26     1.407   .     A
C22    C30     1.402   .     A
C23    N45     1.438   .     S
C23    C27     1.402   .     A
C23    C25     1.407   .     A
C24    C28     1.402   .     A
C24    C26     1.407   .     A
C24    N48     1.438   .     S
C27    C33     1.404   .     A
C27    C31     1.416   .     A
C28    C34     1.404   .     A
C28    C32     1.416   .     A
C29    C35     1.404   .     A
C29    C31     1.416   .     A
C30    C36     1.404   .     A
C30    C32     1.416   .     A
C31    C82     1.411   .     S
C32    C81     1.411   1_455 S
C33    C86     1.389   .     S
C34    C85     1.389   1_455 S
C35    C84     1.389   .     S
C36    C83     1.389   1_455 S
C37    C238    1.188   1_545 S
C38    C137    1.188   .     S
N39    H40     1.046   .     S
N39    H41     1.045   .     S
N42    H44     1.046   .     S
N42    H43     1.045   .     S
N45    H46     1.046   .     S
N45    H47     1.045   .     S
N48    H50     1.046   .     S
N48    H49     1.045   .     S
O51    Cu67    1.933   .     S
O51    C59     1.274   .     A
O52    Cu68    1.933   .     S
O52    C60     1.274   .     A
O53    C60     1.274   .     A
O53    Cu67    1.932   .     S
O54    Cu68    1.932   .     S
O54    C59     1.274   .     A
H55    C83     1.083   .     S
H56    C84     1.083   .     S
H57    C85     1.083   .     S
H58    C86     1.083   .     S
C59    C87     1.405   .     S
C60    C88     1.405   .     S
O61    Cu67    1.963   .     S
O61    C65     1.277   .     A
O62    C66     1.277   .     A
O62    Cu68    1.963   .     S
O63    Cu67    1.963   .     S
O63    C66     1.277   .     A
O64    C65     1.277   .     A
O64    Cu68    1.963   .     S
C65    C76     1.448   .     S
C66    C75     1.448   .     S
Cu67   N70     1.981   .     S
Cu67   Cu68    2.636   .     S
Cu68   N69     1.981   .     S
N69    N670    1.198   1_554 S
N70    N369    1.198   .     S
C71    N89     1.438   .     S
C71    C79     1.402   .     A
C71    C75     1.407   .     A
C72    N92     1.438   .     S
C72    C76     1.407   .     A
C72    C80     1.402   .     A
C73    N95     1.438   .     S
C73    C77     1.402   .     A
C73    C75     1.407   .     A
C74    C78     1.402   .     A
C74    C76     1.407   .     A
C74    N98     1.438   .     S
C77    C83     1.404   .     A
C77    C81     1.416   .     A
C78    C84     1.404   .     A
C78    C82     1.416   .     A
C79    C85     1.404   .     A
C79    C81     1.416   .     A
C80    C86     1.404   .     A
C80    C82     1.416   .     A
C81    C32     1.411   1_655 S
C83    C36     1.389   1_655 S
C85    C34     1.389   1_655 S
C87    C288    1.188   1_545 S
C88    C187    1.188   .     S
N89    H90     1.046   .     S
N89    H91     1.045   .     S
N92    H94     1.046   .     S
N92    H93     1.045   .     S
N95    H96     1.046   .     S
N95    H97     1.045   .     S
N98    H100    1.046   .     S
N98    H99     1.045   .     S
O101   Cu117   1.933   .     S
O101   C109    1.274   .     A
O102   Cu118   1.933   .     S
O102   C110    1.274   .     A
O103   C110    1.274   .     A
O103   Cu117   1.932   .     S
O104   Cu118   1.932   .     S
O104   C109    1.274   .     A
H105   C133    1.083   .     S
H106   C134    1.083   .     S
H107   C135    1.083   .     S
H108   C136    1.083   .     S
C109   C137    1.405   .     S
C110   C138    1.405   .     S
O111   Cu117   1.963   .     S
O111   C115    1.277   .     A
O112   C116    1.277   .     A
O112   Cu118   1.963   .     S
O113   Cu117   1.963   .     S
O113   C116    1.277   .     A
O114   C115    1.277   .     A
O114   Cu118   1.963   .     S
C115   C126    1.448   .     S
C116   C125    1.448   .     S
Cu117  N120    1.981   .     S
Cu117  Cu118   2.636   .     S
Cu118  N119    1.981   .     S
N119   N720    1.198   1_554 S
N120   N419    1.198   .     S
C121   N139    1.438   .     S
C121   C129    1.402   .     A
C121   C125    1.407   .     A
C122   N142    1.438   .     S
C122   C126    1.407   .     A
C122   C130    1.402   .     A
C123   N145    1.438   .     S
C123   C127    1.402   .     A
C123   C125    1.407   .     A
C124   C128    1.402   .     A
C124   C126    1.407   .     A
C124   N148    1.438   .     S
C127   C133    1.404   .     A
C127   C131    1.416   .     A
C128   C134    1.404   .     A
C128   C132    1.416   .     A
C129   C135    1.404   .     A
C129   C131    1.416   .     A
C130   C136    1.404   .     A
C130   C132    1.416   .     A
C131   C182    1.411   .     S
C132   C181    1.411   1_455 S
C133   C186    1.389   .     S
C134   C185    1.389   1_455 S
C135   C184    1.389   .     S
C136   C183    1.389   1_455 S
C138   C237    1.188   .     S
N139   H140    1.046   .     S
N139   H141    1.045   .     S
N142   H144    1.046   .     S
N142   H143    1.045   .     S
N145   H146    1.046   .     S
N145   H147    1.045   .     S
N148   H150    1.046   .     S
N148   H149    1.045   .     S
O151   Cu167   1.933   .     S
O151   C159    1.274   .     A
O152   Cu168   1.933   .     S
O152   C160    1.274   .     A
O153   C160    1.274   .     A
O153   Cu167   1.932   .     S
O154   Cu168   1.932   .     S
O154   C159    1.274   .     A
H155   C183    1.083   .     S
H156   C184    1.083   .     S
H157   C185    1.083   .     S
H158   C186    1.083   .     S
C159   C187    1.405   .     S
C160   C188    1.405   .     S
O161   Cu167   1.963   .     S
O161   C165    1.277   .     A
O162   C166    1.277   .     A
O162   Cu168   1.963   .     S
O163   Cu167   1.963   .     S
O163   C166    1.277   .     A
O164   C165    1.277   .     A
O164   Cu168   1.963   .     S
C165   C176    1.448   .     S
C166   C175    1.448   .     S
Cu167  N170    1.981   .     S
Cu167  Cu168   2.636   .     S
Cu168  N169    1.981   .     S
N169   N770    1.198   1_554 S
N170   N469    1.198   .     S
C171   N189    1.438   .     S
C171   C179    1.402   .     A
C171   C175    1.407   .     A
C172   N192    1.438   .     S
C172   C176    1.407   .     A
C172   C180    1.402   .     A
C173   N195    1.438   .     S
C173   C177    1.402   .     A
C173   C175    1.407   .     A
C174   C178    1.402   .     A
C174   C176    1.407   .     A
C174   N198    1.438   .     S
C177   C183    1.404   .     A
C177   C181    1.416   .     A
C178   C184    1.404   .     A
C178   C182    1.416   .     A
C179   C185    1.404   .     A
C179   C181    1.416   .     A
C180   C186    1.404   .     A
C180   C182    1.416   .     A
C181   C132    1.411   1_655 S
C183   C136    1.389   1_655 S
C185   C134    1.389   1_655 S
C188   C287    1.188   .     S
N189   H190    1.046   .     S
N189   H191    1.045   .     S
N192   H194    1.046   .     S
N192   H193    1.045   .     S
N195   H196    1.046   .     S
N195   H197    1.045   .     S
N198   H200    1.046   .     S
N198   H199    1.045   .     S
O201   Cu217   1.933   .     S
O201   C209    1.274   .     A
O202   Cu218   1.933   .     S
O202   C210    1.274   .     A
O203   C210    1.274   .     A
O203   Cu217   1.932   .     S
O204   Cu218   1.932   .     S
O204   C209    1.274   .     A
H205   C233    1.083   .     S
H206   C234    1.083   .     S
H207   C235    1.083   .     S
H208   C236    1.083   .     S
C209   C237    1.405   .     S
C210   C238    1.405   .     S
O211   Cu217   1.963   .     S
O211   C215    1.277   .     A
O212   C216    1.277   .     A
O212   Cu218   1.963   .     S
O213   Cu217   1.963   .     S
O213   C216    1.277   .     A
O214   C215    1.277   .     A
O214   Cu218   1.963   .     S
C215   C226    1.448   .     S
C216   C225    1.448   .     S
Cu217  N220    1.981   .     S
Cu217  Cu218   2.636   .     S
Cu218  N219    1.981   .     S
N219   N820    1.198   1_554 S
N220   N519    1.198   .     S
C221   N239    1.438   .     S
C221   C229    1.402   .     A
C221   C225    1.407   .     A
C222   N242    1.438   .     S
C222   C226    1.407   .     A
C222   C230    1.402   .     A
C223   N245    1.438   .     S
C223   C227    1.402   .     A
C223   C225    1.407   .     A
C224   C228    1.402   .     A
C224   C226    1.407   .     A
C224   N248    1.438   .     S
C227   C233    1.404   .     A
C227   C231    1.416   .     A
C228   C234    1.404   .     A
C228   C232    1.416   .     A
C229   C235    1.404   .     A
C229   C231    1.416   .     A
C230   C236    1.404   .     A
C230   C232    1.416   .     A
C231   C282    1.411   .     S
C232   C281    1.411   1_455 S
C233   C286    1.389   .     S
C234   C285    1.389   1_455 S
C235   C284    1.389   .     S
C236   C283    1.389   1_455 S
C238   C37     1.188   1_565 S
N239   H240    1.046   .     S
N239   H241    1.045   .     S
N242   H244    1.046   .     S
N242   H243    1.045   .     S
N245   H246    1.046   .     S
N245   H247    1.045   .     S
N248   H250    1.046   .     S
N248   H249    1.045   .     S
O251   Cu267   1.933   .     S
O251   C259    1.274   .     A
O252   Cu268   1.933   .     S
O252   C260    1.274   .     A
O253   C260    1.274   .     A
O253   Cu267   1.932   .     S
O254   Cu268   1.932   .     S
O254   C259    1.274   .     A
H255   C283    1.083   .     S
H256   C284    1.083   .     S
H257   C285    1.083   .     S
H258   C286    1.083   .     S
C259   C287    1.405   .     S
C260   C288    1.405   .     S
O261   Cu267   1.963   .     S
O261   C265    1.277   .     A
O262   C266    1.277   .     A
O262   Cu268   1.963   .     S
O263   Cu267   1.963   .     S
O263   C266    1.277   .     A
O264   C265    1.277   .     A
O264   Cu268   1.963   .     S
C265   C276    1.448   .     S
C266   C275    1.448   .     S
Cu267  N270    1.981   .     S
Cu267  Cu268   2.636   .     S
Cu268  N269    1.981   .     S
N269   N870    1.198   1_554 S
N270   N569    1.198   .     S
C271   N289    1.438   .     S
C271   C279    1.402   .     A
C271   C275    1.407   .     A
C272   N292    1.438   .     S
C272   C276    1.407   .     A
C272   C280    1.402   .     A
C273   N295    1.438   .     S
C273   C277    1.402   .     A
C273   C275    1.407   .     A
C274   C278    1.402   .     A
C274   C276    1.407   .     A
C274   N298    1.438   .     S
C277   C283    1.404   .     A
C277   C281    1.416   .     A
C278   C284    1.404   .     A
C278   C282    1.416   .     A
C279   C285    1.404   .     A
C279   C281    1.416   .     A
C280   C286    1.404   .     A
C280   C282    1.416   .     A
C281   C232    1.411   1_655 S
C283   C236    1.389   1_655 S
C285   C234    1.389   1_655 S
C288   C87     1.188   1_565 S
N289   H290    1.046   .     S
N289   H291    1.045   .     S
N292   H294    1.046   .     S
N292   H293    1.045   .     S
N295   H296    1.046   .     S
N295   H297    1.045   .     S
N298   H300    1.046   .     S
N298   H299    1.045   .     S
O301   Cu317   1.933   .     S
O301   C309    1.274   .     A
O302   Cu318   1.933   .     S
O302   C310    1.274   .     A
O303   C310    1.274   .     A
O303   Cu317   1.932   .     S
O304   Cu318   1.932   .     S
O304   C309    1.274   .     A
H305   C333    1.083   .     S
H306   C334    1.083   .     S
H307   C335    1.083   .     S
H308   C336    1.083   .     S
C309   C337    1.405   .     S
C310   C338    1.405   .     S
O311   Cu317   1.963   .     S
O311   C315    1.277   .     A
O312   C316    1.277   .     A
O312   Cu318   1.963   .     S
O313   Cu317   1.963   .     S
O313   C316    1.277   .     A
O314   C315    1.277   .     A
O314   Cu318   1.963   .     S
C315   C326    1.448   .     S
C316   C325    1.448   .     S
Cu317  N320    1.981   .     S
Cu317  Cu318   2.636   .     S
Cu318  N319    1.981   .     S
N320   N619    1.198   .     S
C321   N339    1.438   .     S
C321   C329    1.402   .     A
C321   C325    1.407   .     A
C322   N342    1.438   .     S
C322   C326    1.407   .     A
C322   C330    1.402   .     A
C323   N345    1.438   .     S
C323   C327    1.402   .     A
C323   C325    1.407   .     A
C324   C328    1.402   .     A
C324   C326    1.407   .     A
C324   N348    1.438   .     S
C327   C333    1.404   .     A
C327   C331    1.416   .     A
C328   C334    1.404   .     A
C328   C332    1.416   .     A
C329   C335    1.404   .     A
C329   C331    1.416   .     A
C330   C336    1.404   .     A
C330   C332    1.416   .     A
C331   C382    1.411   .     S
C332   C381    1.411   1_455 S
C333   C386    1.389   .     S
C334   C385    1.389   1_455 S
C335   C384    1.389   .     S
C336   C383    1.389   1_455 S
C337   C538    1.188   1_545 S
C338   C437    1.188   .     S
N339   H340    1.046   .     S
N339   H341    1.045   .     S
N342   H344    1.046   .     S
N342   H343    1.045   .     S
N345   H346    1.046   .     S
N345   H347    1.045   .     S
N348   H350    1.046   .     S
N348   H349    1.045   .     S
O351   Cu367   1.933   .     S
O351   C359    1.274   .     A
O352   Cu368   1.933   .     S
O352   C360    1.274   .     A
O353   C360    1.274   .     A
O353   Cu367   1.932   .     S
O354   Cu368   1.932   .     S
O354   C359    1.274   .     A
H355   C383    1.083   .     S
H356   C384    1.083   .     S
H357   C385    1.083   .     S
H358   C386    1.083   .     S
C359   C387    1.405   .     S
C360   C388    1.405   .     S
O361   Cu367   1.963   .     S
O361   C365    1.277   .     A
O362   C366    1.277   .     A
O362   Cu368   1.963   .     S
O363   Cu367   1.963   .     S
O363   C366    1.277   .     A
O364   C365    1.277   .     A
O364   Cu368   1.963   .     S
C365   C376    1.448   .     S
C366   C375    1.448   .     S
Cu367  N370    1.981   .     S
Cu367  Cu368   2.636   .     S
Cu368  N369    1.981   .     S
N370   N669    1.198   .     S
C371   N389    1.438   .     S
C371   C379    1.402   .     A
C371   C375    1.407   .     A
C372   N392    1.438   .     S
C372   C376    1.407   .     A
C372   C380    1.402   .     A
C373   N395    1.438   .     S
C373   C377    1.402   .     A
C373   C375    1.407   .     A
C374   C378    1.402   .     A
C374   C376    1.407   .     A
C374   N398    1.438   .     S
C377   C383    1.404   .     A
C377   C381    1.416   .     A
C378   C384    1.404   .     A
C378   C382    1.416   .     A
C379   C385    1.404   .     A
C379   C381    1.416   .     A
C380   C386    1.404   .     A
C380   C382    1.416   .     A
C381   C332    1.411   1_655 S
C383   C336    1.389   1_655 S
C385   C334    1.389   1_655 S
C387   C588    1.188   1_545 S
C388   C487    1.188   .     S
N389   H390    1.046   .     S
N389   H391    1.045   .     S
N392   H394    1.046   .     S
N392   H393    1.045   .     S
N395   H396    1.046   .     S
N395   H397    1.045   .     S
N398   H400    1.046   .     S
N398   H399    1.045   .     S
O401   Cu417   1.933   .     S
O401   C409    1.274   .     A
O402   Cu418   1.933   .     S
O402   C410    1.274   .     A
O403   C410    1.274   .     A
O403   Cu417   1.932   .     S
O404   Cu418   1.932   .     S
O404   C409    1.274   .     A
H405   C433    1.083   .     S
H406   C434    1.083   .     S
H407   C435    1.083   .     S
H408   C436    1.083   .     S
C409   C437    1.405   .     S
C410   C438    1.405   .     S
O411   Cu417   1.963   .     S
O411   C415    1.277   .     A
O412   C416    1.277   .     A
O412   Cu418   1.963   .     S
O413   Cu417   1.963   .     S
O413   C416    1.277   .     A
O414   C415    1.277   .     A
O414   Cu418   1.963   .     S
C415   C426    1.448   .     S
C416   C425    1.448   .     S
Cu417  N420    1.981   .     S
Cu417  Cu418   2.636   .     S
Cu418  N419    1.981   .     S
N420   N719    1.198   .     S
C421   N439    1.438   .     S
C421   C429    1.402   .     A
C421   C425    1.407   .     A
C422   N442    1.438   .     S
C422   C426    1.407   .     A
C422   C430    1.402   .     A
C423   N445    1.438   .     S
C423   C427    1.402   .     A
C423   C425    1.407   .     A
C424   C428    1.402   .     A
C424   C426    1.407   .     A
C424   N448    1.438   .     S
C427   C433    1.404   .     A
C427   C431    1.416   .     A
C428   C434    1.404   .     A
C428   C432    1.416   .     A
C429   C435    1.404   .     A
C429   C431    1.416   .     A
C430   C436    1.404   .     A
C430   C432    1.416   .     A
C431   C482    1.411   .     S
C432   C481    1.411   1_455 S
C433   C486    1.389   .     S
C434   C485    1.389   1_455 S
C435   C484    1.389   .     S
C436   C483    1.389   1_455 S
C438   C537    1.188   .     S
N439   H440    1.046   .     S
N439   H441    1.045   .     S
N442   H444    1.046   .     S
N442   H443    1.045   .     S
N445   H446    1.046   .     S
N445   H447    1.045   .     S
N448   H450    1.046   .     S
N448   H449    1.045   .     S
O451   Cu467   1.933   .     S
O451   C459    1.274   .     A
O452   Cu468   1.933   .     S
O452   C460    1.274   .     A
O453   C460    1.274   .     A
O453   Cu467   1.932   .     S
O454   Cu468   1.932   .     S
O454   C459    1.274   .     A
H455   C483    1.083   .     S
H456   C484    1.083   .     S
H457   C485    1.083   .     S
H458   C486    1.083   .     S
C459   C487    1.405   .     S
C460   C488    1.405   .     S
O461   Cu467   1.963   .     S
O461   C465    1.277   .     A
O462   C466    1.277   .     A
O462   Cu468   1.963   .     S
O463   Cu467   1.963   .     S
O463   C466    1.277   .     A
O464   C465    1.277   .     A
O464   Cu468   1.963   .     S
C465   C476    1.448   .     S
C466   C475    1.448   .     S
Cu467  N470    1.981   .     S
Cu467  Cu468   2.636   .     S
Cu468  N469    1.981   .     S
N470   N769    1.198   .     S
C471   N489    1.438   .     S
C471   C479    1.402   .     A
C471   C475    1.407   .     A
C472   N492    1.438   .     S
C472   C476    1.407   .     A
C472   C480    1.402   .     A
C473   N495    1.438   .     S
C473   C477    1.402   .     A
C473   C475    1.407   .     A
C474   C478    1.402   .     A
C474   C476    1.407   .     A
C474   N498    1.438   .     S
C477   C483    1.404   .     A
C477   C481    1.416   .     A
C478   C484    1.404   .     A
C478   C482    1.416   .     A
C479   C485    1.404   .     A
C479   C481    1.416   .     A
C480   C486    1.404   .     A
C480   C482    1.416   .     A
C481   C432    1.411   1_655 S
C483   C436    1.389   1_655 S
C485   C434    1.389   1_655 S
C488   C587    1.188   .     S
N489   H490    1.046   .     S
N489   H491    1.045   .     S
N492   H494    1.046   .     S
N492   H493    1.045   .     S
N495   H496    1.046   .     S
N495   H497    1.045   .     S
N498   H500    1.046   .     S
N498   H499    1.045   .     S
O501   Cu517   1.933   .     S
O501   C509    1.274   .     A
O502   Cu518   1.933   .     S
O502   C510    1.274   .     A
O503   C510    1.274   .     A
O503   Cu517   1.932   .     S
O504   Cu518   1.932   .     S
O504   C509    1.274   .     A
H505   C533    1.083   .     S
H506   C534    1.083   .     S
H507   C535    1.083   .     S
H508   C536    1.083   .     S
C509   C537    1.405   .     S
C510   C538    1.405   .     S
O511   Cu517   1.963   .     S
O511   C515    1.277   .     A
O512   C516    1.277   .     A
O512   Cu518   1.963   .     S
O513   Cu517   1.963   .     S
O513   C516    1.277   .     A
O514   C515    1.277   .     A
O514   Cu518   1.963   .     S
C515   C526    1.448   .     S
C516   C525    1.448   .     S
Cu517  N520    1.981   .     S
Cu517  Cu518   2.636   .     S
Cu518  N519    1.981   .     S
N520   N819    1.198   .     S
C521   N539    1.438   .     S
C521   C529    1.402   .     A
C521   C525    1.407   .     A
C522   N542    1.438   .     S
C522   C526    1.407   .     A
C522   C530    1.402   .     A
C523   N545    1.438   .     S
C523   C527    1.402   .     A
C523   C525    1.407   .     A
C524   C528    1.402   .     A
C524   C526    1.407   .     A
C524   N548    1.438   .     S
C527   C533    1.404   .     A
C527   C531    1.416   .     A
C528   C534    1.404   .     A
C528   C532    1.416   .     A
C529   C535    1.404   .     A
C529   C531    1.416   .     A
C530   C536    1.404   .     A
C530   C532    1.416   .     A
C531   C582    1.411   .     S
C532   C581    1.411   1_455 S
C533   C586    1.389   .     S
C534   C585    1.389   1_455 S
C535   C584    1.389   .     S
C536   C583    1.389   1_455 S
C538   C337    1.188   1_565 S
N539   H540    1.046   .     S
N539   H541    1.045   .     S
N542   H544    1.046   .     S
N542   H543    1.045   .     S
N545   H546    1.046   .     S
N545   H547    1.045   .     S
N548   H550    1.046   .     S
N548   H549    1.045   .     S
O551   Cu567   1.933   .     S
O551   C559    1.274   .     A
O552   Cu568   1.933   .     S
O552   C560    1.274   .     A
O553   C560    1.274   .     A
O553   Cu567   1.932   .     S
O554   Cu568   1.932   .     S
O554   C559    1.274   .     A
H555   C583    1.083   .     S
H556   C584    1.083   .     S
H557   C585    1.083   .     S
H558   C586    1.083   .     S
C559   C587    1.405   .     S
C560   C588    1.405   .     S
O561   Cu567   1.963   .     S
O561   C565    1.277   .     A
O562   C566    1.277   .     A
O562   Cu568   1.963   .     S
O563   Cu567   1.963   .     S
O563   C566    1.277   .     A
O564   C565    1.277   .     A
O564   Cu568   1.963   .     S
C565   C576    1.448   .     S
C566   C575    1.448   .     S
Cu567  N570    1.981   .     S
Cu567  Cu568   2.636   .     S
Cu568  N569    1.981   .     S
N570   N869    1.198   .     S
C571   N589    1.438   .     S
C571   C579    1.402   .     A
C571   C575    1.407   .     A
C572   N592    1.438   .     S
C572   C576    1.407   .     A
C572   C580    1.402   .     A
C573   N595    1.438   .     S
C573   C577    1.402   .     A
C573   C575    1.407   .     A
C574   C578    1.402   .     A
C574   C576    1.407   .     A
C574   N598    1.438   .     S
C577   C583    1.404   .     A
C577   C581    1.416   .     A
C578   C584    1.404   .     A
C578   C582    1.416   .     A
C579   C585    1.404   .     A
C579   C581    1.416   .     A
C580   C586    1.404   .     A
C580   C582    1.416   .     A
C581   C532    1.411   1_655 S
C583   C536    1.389   1_655 S
C585   C534    1.389   1_655 S
C588   C387    1.188   1_565 S
N589   H590    1.046   .     S
N589   H591    1.045   .     S
N592   H594    1.046   .     S
N592   H593    1.045   .     S
N595   H596    1.046   .     S
N595   H597    1.045   .     S
N598   H600    1.046   .     S
N598   H599    1.045   .     S
O601   Cu617   1.933   .     S
O601   C609    1.274   .     A
O602   Cu618   1.933   .     S
O602   C610    1.274   .     A
O603   C610    1.274   .     A
O603   Cu617   1.932   .     S
O604   Cu618   1.932   .     S
O604   C609    1.274   .     A
H605   C633    1.083   .     S
H606   C634    1.083   .     S
H607   C635    1.083   .     S
H608   C636    1.083   .     S
C609   C637    1.405   .     S
C610   C638    1.405   .     S
O611   Cu617   1.963   .     S
O611   C615    1.277   .     A
O612   C616    1.277   .     A
O612   Cu618   1.963   .     S
O613   Cu617   1.963   .     S
O613   C616    1.277   .     A
O614   C615    1.277   .     A
O614   Cu618   1.963   .     S
C615   C626    1.448   .     S
C616   C625    1.448   .     S
Cu617  N620    1.981   .     S
Cu617  Cu618   2.636   .     S
Cu618  N619    1.981   .     S
N620   N19     1.198   1_556 S
C621   N639    1.438   .     S
C621   C629    1.402   .     A
C621   C625    1.407   .     A
C622   N642    1.438   .     S
C622   C626    1.407   .     A
C622   C630    1.402   .     A
C623   N645    1.438   .     S
C623   C627    1.402   .     A
C623   C625    1.407   .     A
C624   C628    1.402   .     A
C624   C626    1.407   .     A
C624   N648    1.438   .     S
C627   C633    1.404   .     A
C627   C631    1.416   .     A
C628   C634    1.404   .     A
C628   C632    1.416   .     A
C629   C635    1.404   .     A
C629   C631    1.416   .     A
C630   C636    1.404   .     A
C630   C632    1.416   .     A
C631   C682    1.411   .     S
C632   C681    1.411   1_455 S
C633   C686    1.389   .     S
C634   C685    1.389   1_455 S
C635   C684    1.389   .     S
C636   C683    1.389   1_455 S
C637   C838    1.188   1_545 S
C638   C737    1.188   .     S
N639   H640    1.046   .     S
N639   H641    1.045   .     S
N642   H644    1.046   .     S
N642   H643    1.045   .     S
N645   H646    1.046   .     S
N645   H647    1.045   .     S
N648   H650    1.046   .     S
N648   H649    1.045   .     S
O651   Cu667   1.933   .     S
O651   C659    1.274   .     A
O652   Cu668   1.933   .     S
O652   C660    1.274   .     A
O653   C660    1.274   .     A
O653   Cu667   1.932   .     S
O654   Cu668   1.932   .     S
O654   C659    1.274   .     A
H655   C683    1.083   .     S
H656   C684    1.083   .     S
H657   C685    1.083   .     S
H658   C686    1.083   .     S
C659   C687    1.405   .     S
C660   C688    1.405   .     S
O661   Cu667   1.963   .     S
O661   C665    1.277   .     A
O662   C666    1.277   .     A
O662   Cu668   1.963   .     S
O663   Cu667   1.963   .     S
O663   C666    1.277   .     A
O664   C665    1.277   .     A
O664   Cu668   1.963   .     S
C665   C676    1.448   .     S
C666   C675    1.448   .     S
Cu667  N670    1.981   .     S
Cu667  Cu668   2.636   .     S
Cu668  N669    1.981   .     S
N670   N69     1.198   1_556 S
C671   N689    1.438   .     S
C671   C679    1.402   .     A
C671   C675    1.407   .     A
C672   N692    1.438   .     S
C672   C676    1.407   .     A
C672   C680    1.402   .     A
C673   N695    1.438   .     S
C673   C677    1.402   .     A
C673   C675    1.407   .     A
C674   C678    1.402   .     A
C674   C676    1.407   .     A
C674   N698    1.438   .     S
C677   C683    1.404   .     A
C677   C681    1.416   .     A
C678   C684    1.404   .     A
C678   C682    1.416   .     A
C679   C685    1.404   .     A
C679   C681    1.416   .     A
C680   C686    1.404   .     A
C680   C682    1.416   .     A
C681   C632    1.411   1_655 S
C683   C636    1.389   1_655 S
C685   C634    1.389   1_655 S
C687   C888    1.188   1_545 S
C688   C787    1.188   .     S
N689   H690    1.046   .     S
N689   H691    1.045   .     S
N692   H694    1.046   .     S
N692   H693    1.045   .     S
N695   H696    1.046   .     S
N695   H697    1.045   .     S
N698   H700    1.046   .     S
N698   H699    1.045   .     S
O701   Cu717   1.933   .     S
O701   C709    1.274   .     A
O702   Cu718   1.933   .     S
O702   C710    1.274   .     A
O703   C710    1.274   .     A
O703   Cu717   1.932   .     S
O704   Cu718   1.932   .     S
O704   C709    1.274   .     A
H705   C733    1.083   .     S
H706   C734    1.083   .     S
H707   C735    1.083   .     S
H708   C736    1.083   .     S
C709   C737    1.405   .     S
C710   C738    1.405   .     S
O711   Cu717   1.963   .     S
O711   C715    1.277   .     A
O712   C716    1.277   .     A
O712   Cu718   1.963   .     S
O713   Cu717   1.963   .     S
O713   C716    1.277   .     A
O714   C715    1.277   .     A
O714   Cu718   1.963   .     S
C715   C726    1.448   .     S
C716   C725    1.448   .     S
Cu717  N720    1.981   .     S
Cu717  Cu718   2.636   .     S
Cu718  N719    1.981   .     S
N720   N119    1.198   1_556 S
C721   N739    1.438   .     S
C721   C729    1.402   .     A
C721   C725    1.407   .     A
C722   N742    1.438   .     S
C722   C726    1.407   .     A
C722   C730    1.402   .     A
C723   N745    1.438   .     S
C723   C727    1.402   .     A
C723   C725    1.407   .     A
C724   C728    1.402   .     A
C724   C726    1.407   .     A
C724   N748    1.438   .     S
C727   C733    1.404   .     A
C727   C731    1.416   .     A
C728   C734    1.404   .     A
C728   C732    1.416   .     A
C729   C735    1.404   .     A
C729   C731    1.416   .     A
C730   C736    1.404   .     A
C730   C732    1.416   .     A
C731   C782    1.411   .     S
C732   C781    1.411   1_455 S
C733   C786    1.389   .     S
C734   C785    1.389   1_455 S
C735   C784    1.389   .     S
C736   C783    1.389   1_455 S
C738   C837    1.188   .     S
N739   H740    1.046   .     S
N739   H741    1.045   .     S
N742   H744    1.046   .     S
N742   H743    1.045   .     S
N745   H746    1.046   .     S
N745   H747    1.045   .     S
N748   H750    1.046   .     S
N748   H749    1.045   .     S
O751   Cu767   1.933   .     S
O751   C759    1.274   .     A
O752   Cu768   1.933   .     S
O752   C760    1.274   .     A
O753   C760    1.274   .     A
O753   Cu767   1.932   .     S
O754   Cu768   1.932   .     S
O754   C759    1.274   .     A
H755   C783    1.083   .     S
H756   C784    1.083   .     S
H757   C785    1.083   .     S
H758   C786    1.083   .     S
C759   C787    1.405   .     S
C760   C788    1.405   .     S
O761   Cu767   1.963   .     S
O761   C765    1.277   .     A
O762   C766    1.277   .     A
O762   Cu768   1.963   .     S
O763   Cu767   1.963   .     S
O763   C766    1.277   .     A
O764   C765    1.277   .     A
O764   Cu768   1.963   .     S
C765   C776    1.448   .     S
C766   C775    1.448   .     S
Cu767  N770    1.981   .     S
Cu767  Cu768   2.636   .     S
Cu768  N769    1.981   .     S
N770   N169    1.198   1_556 S
C771   N789    1.438   .     S
C771   C779    1.402   .     A
C771   C775    1.407   .     A
C772   N792    1.438   .     S
C772   C776    1.407   .     A
C772   C780    1.402   .     A
C773   N795    1.438   .     S
C773   C777    1.402   .     A
C773   C775    1.407   .     A
C774   C778    1.402   .     A
C774   C776    1.407   .     A
C774   N798    1.438   .     S
C777   C783    1.404   .     A
C777   C781    1.416   .     A
C778   C784    1.404   .     A
C778   C782    1.416   .     A
C779   C785    1.404   .     A
C779   C781    1.416   .     A
C780   C786    1.404   .     A
C780   C782    1.416   .     A
C781   C732    1.411   1_655 S
C783   C736    1.389   1_655 S
C785   C734    1.389   1_655 S
C788   C887    1.188   .     S
N789   H790    1.046   .     S
N789   H791    1.045   .     S
N792   H794    1.046   .     S
N792   H793    1.045   .     S
N795   H796    1.046   .     S
N795   H797    1.045   .     S
N798   H800    1.046   .     S
N798   H799    1.045   .     S
O801   Cu817   1.933   .     S
O801   C809    1.274   .     A
O802   Cu818   1.933   .     S
O802   C810    1.274   .     A
O803   C810    1.274   .     A
O803   Cu817   1.932   .     S
O804   Cu818   1.932   .     S
O804   C809    1.274   .     A
H805   C833    1.083   .     S
H806   C834    1.083   .     S
H807   C835    1.083   .     S
H808   C836    1.083   .     S
C809   C837    1.405   .     S
C810   C838    1.405   .     S
O811   Cu817   1.963   .     S
O811   C815    1.277   .     A
O812   C816    1.277   .     A
O812   Cu818   1.963   .     S
O813   Cu817   1.963   .     S
O813   C816    1.277   .     A
O814   C815    1.277   .     A
O814   Cu818   1.963   .     S
C815   C826    1.448   .     S
C816   C825    1.448   .     S
Cu817  N820    1.981   .     S
Cu817  Cu818   2.636   .     S
Cu818  N819    1.981   .     S
N820   N219    1.198   1_556 S
C821   N839    1.438   .     S
C821   C829    1.402   .     A
C821   C825    1.407   .     A
C822   N842    1.438   .     S
C822   C826    1.407   .     A
C822   C830    1.402   .     A
C823   N845    1.438   .     S
C823   C827    1.402   .     A
C823   C825    1.407   .     A
C824   C828    1.402   .     A
C824   C826    1.407   .     A
C824   N848    1.438   .     S
C827   C833    1.404   .     A
C827   C831    1.416   .     A
C828   C834    1.404   .     A
C828   C832    1.416   .     A
C829   C835    1.404   .     A
C829   C831    1.416   .     A
C830   C836    1.404   .     A
C830   C832    1.416   .     A
C831   C882    1.411   .     S
C832   C881    1.411   1_455 S
C833   C886    1.389   .     S
C834   C885    1.389   1_455 S
C835   C884    1.389   .     S
C836   C883    1.389   1_455 S
C838   C637    1.188   1_565 S
N839   H840    1.046   .     S
N839   H841    1.045   .     S
N842   H844    1.046   .     S
N842   H843    1.045   .     S
N845   H846    1.046   .     S
N845   H847    1.045   .     S
N848   H850    1.046   .     S
N848   H849    1.045   .     S
O851   Cu867   1.933   .     S
O851   C859    1.274   .     A
O852   Cu868   1.933   .     S
O852   C860    1.274   .     A
O853   C860    1.274   .     A
O853   Cu867   1.932   .     S
O854   Cu868   1.932   .     S
O854   C859    1.274   .     A
H855   C883    1.083   .     S
H856   C884    1.083   .     S
H857   C885    1.083   .     S
H858   C886    1.083   .     S
C859   C887    1.405   .     S
C860   C888    1.405   .     S
O861   Cu867   1.963   .     S
O861   C865    1.277   .     A
O862   C866    1.277   .     A
O862   Cu868   1.963   .     S
O863   Cu867   1.963   .     S
O863   C866    1.277   .     A
O864   C865    1.277   .     A
O864   Cu868   1.963   .     S
C865   C876    1.448   .     S
C866   C875    1.448   .     S
Cu867  N870    1.981   .     S
Cu867  Cu868   2.636   .     S
Cu868  N869    1.981   .     S
N870   N269    1.198   1_556 S
C871   N889    1.438   .     S
C871   C879    1.402   .     A
C871   C875    1.407   .     A
C872   N892    1.438   .     S
C872   C876    1.407   .     A
C872   C880    1.402   .     A
C873   N895    1.438   .     S
C873   C877    1.402   .     A
C873   C875    1.407   .     A
C874   C878    1.402   .     A
C874   C876    1.407   .     A
C874   N898    1.438   .     S
C877   C883    1.404   .     A
C877   C881    1.416   .     A
C878   C884    1.404   .     A
C878   C882    1.416   .     A
C879   C885    1.404   .     A
C879   C881    1.416   .     A
C880   C886    1.404   .     A
C880   C882    1.416   .     A
C881   C832    1.411   1_655 S
C883   C836    1.389   1_655 S
C885   C834    1.389   1_655 S
C888   C687    1.188   1_565 S
N889   H890    1.046   .     S
N889   H891    1.045   .     S
N892   H894    1.046   .     S
N892   H893    1.045   .     S
N895   H896    1.046   .     S
N895   H897    1.045   .     S
N898   H900    1.046   .     S
N898   H899    1.045   .     S
