data_str_m2_o10_o17_pcu_sym.49
_audit_creation_date              2020-01-03
_audit_creation_method            'Materials Studio'
_symmetry_space_group_name_H-M    'P1'
_symmetry_Int_Tables_number       1
_symmetry_cell_setting            triclinic
loop_
_symmetry_equiv_pos_as_xyz
  x,y,z
_cell_length_a                    30.0341
_cell_length_b                    26.2037
_cell_length_c                    22.5248
_cell_angle_alpha                 102.8879
_cell_angle_beta                  94.7691
_cell_angle_gamma                 93.7573
loop_
_atom_site_label
_atom_site_type_symbol
_atom_site_fract_x
_atom_site_fract_y
_atom_site_fract_z
_atom_site_U_iso_or_equiv
_atom_site_adp_type
_atom_site_occupancy
Br1    Br    0.44009   0.00163   0.08943   0.00000  Uiso   1.00
Br2    Br    0.05991   0.33170   0.24391   0.00000  Uiso   1.00
Br3    Br    0.19160   0.10283   0.30127   0.00000  Uiso   1.00
Br4    Br    0.30840   0.23051   0.03206   0.00000  Uiso   1.00
C5     C     0.24810   0.06690   0.15153   0.00000  Uiso   1.00
C6     C     0.08977   0.11990   0.14510   0.00000  Uiso   1.00
C7     C     0.38330   0.16643   0.16492   0.00000  Uiso   1.00
C8     C     0.11670   0.16691   0.16842   0.00000  Uiso   1.00
C9     C     0.40179   0.11913   0.14095   0.00000  Uiso   1.00
C10    C     0.09821   0.21421   0.19238   0.00000  Uiso   1.00
C11    C     0.44886   0.11813   0.14217   0.00000  Uiso   1.00
C12    C     0.05114   0.21521   0.19116   0.00000  Uiso   1.00
C13    C     0.47637   0.16617   0.16596   0.00000  Uiso   1.00
C14    C     0.02363   0.16717   0.16737   0.00000  Uiso   1.00
C15    C     0.45677   0.21343   0.18842   0.00000  Uiso   1.00
C16    C     0.25191   0.26643   0.18180   0.00000  Uiso   1.00
C17    C     0.04323   0.11991   0.14492   0.00000  Uiso   1.00
C18    C     0.46981   0.07125   0.12084   0.00000  Uiso   1.00
C19    C     0.03019   0.26208   0.21250   0.00000  Uiso   1.00
C20    C     0.01611   0.07299   0.12237   0.00000  Uiso   1.00
C21    C     0.48389   0.26034   0.21097   0.00000  Uiso   1.00
C22    C     0.24123   0.01151   0.14456   0.00000  Uiso   1.00
C23    C     0.25877   0.32182   0.18877   0.00000  Uiso   1.00
C24    C     0.16476   0.16664   0.16718   0.00000  Uiso   1.00
C25    C     0.33524   0.16669   0.16615   0.00000  Uiso   1.00
C26    C     0.41023   0.21344   0.18823   0.00000  Uiso   1.00
Cu27   Cu    0.25501   0.17246   0.22813   0.00000  Uiso   1.00
Cu28   Cu    0.24500   0.16087   0.10521   0.00000  Uiso   1.00
H29    H     0.03090   0.03657   0.10558   0.00000  Uiso   1.00
H30    H     0.14752   0.26842   0.18414   0.00000  Uiso   1.00
H31    H     0.22992   0.29413   0.06007   0.00000  Uiso   1.00
H32    H     0.18602   0.29462   0.10487   0.00000  Uiso   1.00
H33    H     0.27008   0.03921   0.27327   0.00000  Uiso   1.00
H34    H     0.31398   0.03871   0.22847   0.00000  Uiso   1.00
H35    H     0.46910   0.29676   0.22775   0.00000  Uiso   1.00
H36    H     0.37288   0.25777   0.24800   0.00000  Uiso   1.00
H37    H     0.36787   0.26862   0.17616   0.00000  Uiso   1.00
H38    H     0.12712   0.07556   0.08534   0.00000  Uiso   1.00
H39    H     0.13213   0.06472   0.15718   0.00000  Uiso   1.00
H40    H     0.35181   0.07841   0.07860   0.00000  Uiso   1.00
H41    H     0.35247   0.06491   0.14918   0.00000  Uiso   1.00
H42    H     0.14819   0.25493   0.25472   0.00000  Uiso   1.00
N43    N     0.23745   0.15214   0.01284   0.00000  Uiso   1.00
N44    N     0.26256   0.18119   0.32049   0.00000  Uiso   1.00
N45    N     0.39041   0.26167   0.21085   0.00000  Uiso   1.00
N46    N     0.10959   0.07166   0.12249   0.00000  Uiso   1.00
N47    N     0.37243   0.07249   0.11576   0.00000  Uiso   1.00
N48    N     0.12757   0.26085   0.21756   0.00000  Uiso   1.00
N49    N     0.21175   0.31725   0.09175   0.00000  Uiso   1.00
N50    N     0.28825   0.01608   0.24158   0.00000  Uiso   1.00
O51    O     0.25326   0.09538   0.20659   0.00000  Uiso   1.00
O52    O     0.24675   0.23796   0.12674   0.00000  Uiso   1.00
O53    O     0.24480   0.08559   0.10279   0.00000  Uiso   1.00
O54    O     0.25520   0.24774   0.23055   0.00000  Uiso   1.00
O55    O     0.18936   0.17155   0.21857   0.00000  Uiso   1.00
O56    O     0.31065   0.16179   0.11476   0.00000  Uiso   1.00
O57    O     0.18090   0.16176   0.11477   0.00000  Uiso   1.00
O58    O     0.31910   0.17157   0.21857   0.00000  Uiso   1.00
Br59   Br    0.94009   0.00163   0.08943   0.00000  Uiso   1.00
Br60   Br    0.55991   0.33170   0.24391   0.00000  Uiso   1.00
Br61   Br    0.69160   0.10283   0.30127   0.00000  Uiso   1.00
Br62   Br    0.80840   0.23051   0.03206   0.00000  Uiso   1.00
C63    C     0.74810   0.06690   0.15153   0.00000  Uiso   1.00
C64    C     0.58977   0.11990   0.14510   0.00000  Uiso   1.00
C65    C     0.88330   0.16643   0.16492   0.00000  Uiso   1.00
C66    C     0.61670   0.16691   0.16842   0.00000  Uiso   1.00
C67    C     0.90179   0.11913   0.14095   0.00000  Uiso   1.00
C68    C     0.59821   0.21421   0.19238   0.00000  Uiso   1.00
C69    C     0.94886   0.11813   0.14217   0.00000  Uiso   1.00
C70    C     0.55114   0.21521   0.19116   0.00000  Uiso   1.00
C71    C     0.97637   0.16617   0.16596   0.00000  Uiso   1.00
C72    C     0.52363   0.16717   0.16737   0.00000  Uiso   1.00
C73    C     0.95677   0.21343   0.18842   0.00000  Uiso   1.00
C74    C     0.75191   0.26643   0.18180   0.00000  Uiso   1.00
C75    C     0.54323   0.11991   0.14492   0.00000  Uiso   1.00
C76    C     0.96981   0.07125   0.12084   0.00000  Uiso   1.00
C77    C     0.53019   0.26208   0.21250   0.00000  Uiso   1.00
C78    C     0.51611   0.07299   0.12237   0.00000  Uiso   1.00
C79    C     0.98389   0.26034   0.21097   0.00000  Uiso   1.00
C80    C     0.74123   0.01151   0.14456   0.00000  Uiso   1.00
C81    C     0.75877   0.32182   0.18877   0.00000  Uiso   1.00
C82    C     0.66476   0.16664   0.16718   0.00000  Uiso   1.00
C83    C     0.83524   0.16669   0.16615   0.00000  Uiso   1.00
C84    C     0.91023   0.21344   0.18823   0.00000  Uiso   1.00
Cu85   Cu    0.75501   0.17246   0.22813   0.00000  Uiso   1.00
Cu86   Cu    0.74500   0.16087   0.10521   0.00000  Uiso   1.00
H87    H     0.53090   0.03657   0.10558   0.00000  Uiso   1.00
H88    H     0.64752   0.26842   0.18414   0.00000  Uiso   1.00
H89    H     0.72992   0.29413   0.06007   0.00000  Uiso   1.00
H90    H     0.68602   0.29462   0.10487   0.00000  Uiso   1.00
H91    H     0.77008   0.03921   0.27327   0.00000  Uiso   1.00
H92    H     0.81398   0.03871   0.22847   0.00000  Uiso   1.00
H93    H     0.96910   0.29676   0.22775   0.00000  Uiso   1.00
H94    H     0.87288   0.25777   0.24800   0.00000  Uiso   1.00
H95    H     0.86787   0.26862   0.17616   0.00000  Uiso   1.00
H96    H     0.62712   0.07556   0.08534   0.00000  Uiso   1.00
H97    H     0.63213   0.06472   0.15718   0.00000  Uiso   1.00
H98    H     0.85181   0.07841   0.07860   0.00000  Uiso   1.00
H99    H     0.85247   0.06491   0.14918   0.00000  Uiso   1.00
H100   H     0.64819   0.25493   0.25472   0.00000  Uiso   1.00
N101   N     0.73745   0.15214   0.01284   0.00000  Uiso   1.00
N102   N     0.76256   0.18119   0.32049   0.00000  Uiso   1.00
N103   N     0.89041   0.26167   0.21085   0.00000  Uiso   1.00
N104   N     0.60959   0.07166   0.12249   0.00000  Uiso   1.00
N105   N     0.87243   0.07249   0.11576   0.00000  Uiso   1.00
N106   N     0.62757   0.26085   0.21756   0.00000  Uiso   1.00
N107   N     0.71175   0.31725   0.09175   0.00000  Uiso   1.00
N108   N     0.78825   0.01608   0.24158   0.00000  Uiso   1.00
O109   O     0.75326   0.09538   0.20659   0.00000  Uiso   1.00
O110   O     0.74675   0.23796   0.12674   0.00000  Uiso   1.00
O111   O     0.74480   0.08559   0.10279   0.00000  Uiso   1.00
O112   O     0.75520   0.24774   0.23055   0.00000  Uiso   1.00
O113   O     0.68936   0.17155   0.21857   0.00000  Uiso   1.00
O114   O     0.81065   0.16179   0.11476   0.00000  Uiso   1.00
O115   O     0.68090   0.16176   0.11477   0.00000  Uiso   1.00
O116   O     0.81910   0.17157   0.21857   0.00000  Uiso   1.00
Br117  Br    0.44009   0.33496   0.08943   0.00000  Uiso   1.00
Br118  Br    0.05991   0.66503   0.24391   0.00000  Uiso   1.00
Br119  Br    0.19160   0.43616   0.30127   0.00000  Uiso   1.00
Br120  Br    0.30840   0.56384   0.03206   0.00000  Uiso   1.00
C121   C     0.24810   0.40023   0.15153   0.00000  Uiso   1.00
C122   C     0.08977   0.45323   0.14510   0.00000  Uiso   1.00
C123   C     0.38330   0.49976   0.16492   0.00000  Uiso   1.00
C124   C     0.11670   0.50024   0.16842   0.00000  Uiso   1.00
C125   C     0.40179   0.45246   0.14095   0.00000  Uiso   1.00
C126   C     0.09821   0.54754   0.19238   0.00000  Uiso   1.00
C127   C     0.44886   0.45146   0.14217   0.00000  Uiso   1.00
C128   C     0.05114   0.54854   0.19116   0.00000  Uiso   1.00
C129   C     0.47637   0.49950   0.16596   0.00000  Uiso   1.00
C130   C     0.02363   0.50050   0.16737   0.00000  Uiso   1.00
C131   C     0.45677   0.54676   0.18842   0.00000  Uiso   1.00
C132   C     0.25191   0.59977   0.18180   0.00000  Uiso   1.00
C133   C     0.04323   0.45324   0.14492   0.00000  Uiso   1.00
C134   C     0.46981   0.40459   0.12084   0.00000  Uiso   1.00
C135   C     0.03019   0.59541   0.21250   0.00000  Uiso   1.00
C136   C     0.01611   0.40633   0.12237   0.00000  Uiso   1.00
C137   C     0.48389   0.59367   0.21097   0.00000  Uiso   1.00
C138   C     0.24123   0.34484   0.14456   0.00000  Uiso   1.00
C139   C     0.25877   0.65516   0.18877   0.00000  Uiso   1.00
C140   C     0.16476   0.49998   0.16718   0.00000  Uiso   1.00
C141   C     0.33524   0.50002   0.16615   0.00000  Uiso   1.00
C142   C     0.41023   0.54677   0.18823   0.00000  Uiso   1.00
Cu143  Cu    0.25501   0.50579   0.22813   0.00000  Uiso   1.00
Cu144  Cu    0.24500   0.49421   0.10521   0.00000  Uiso   1.00
H145   H     0.03090   0.36990   0.10558   0.00000  Uiso   1.00
H146   H     0.14752   0.60176   0.18414   0.00000  Uiso   1.00
H147   H     0.22992   0.62746   0.06007   0.00000  Uiso   1.00
H148   H     0.18602   0.62796   0.10487   0.00000  Uiso   1.00
H149   H     0.27008   0.37254   0.27327   0.00000  Uiso   1.00
H150   H     0.31398   0.37204   0.22847   0.00000  Uiso   1.00
H151   H     0.46910   0.63010   0.22775   0.00000  Uiso   1.00
H152   H     0.37288   0.59110   0.24800   0.00000  Uiso   1.00
H153   H     0.36787   0.60195   0.17616   0.00000  Uiso   1.00
H154   H     0.12712   0.40889   0.08534   0.00000  Uiso   1.00
H155   H     0.13213   0.39805   0.15718   0.00000  Uiso   1.00
H156   H     0.35181   0.41174   0.07860   0.00000  Uiso   1.00
H157   H     0.35247   0.39824   0.14918   0.00000  Uiso   1.00
H158   H     0.14819   0.58826   0.25472   0.00000  Uiso   1.00
N159   N     0.23745   0.48547   0.01284   0.00000  Uiso   1.00
N160   N     0.26256   0.51453   0.32049   0.00000  Uiso   1.00
N161   N     0.39041   0.59500   0.21085   0.00000  Uiso   1.00
N162   N     0.10959   0.40500   0.12249   0.00000  Uiso   1.00
N163   N     0.37243   0.40582   0.11576   0.00000  Uiso   1.00
N164   N     0.12757   0.59418   0.21756   0.00000  Uiso   1.00
N165   N     0.21175   0.65059   0.09175   0.00000  Uiso   1.00
N166   N     0.28825   0.34941   0.24158   0.00000  Uiso   1.00
O167   O     0.25326   0.42871   0.20659   0.00000  Uiso   1.00
O168   O     0.24675   0.57129   0.12674   0.00000  Uiso   1.00
O169   O     0.24480   0.41892   0.10279   0.00000  Uiso   1.00
O170   O     0.25520   0.58108   0.23055   0.00000  Uiso   1.00
O171   O     0.18936   0.50488   0.21857   0.00000  Uiso   1.00
O172   O     0.31065   0.49512   0.11476   0.00000  Uiso   1.00
O173   O     0.18090   0.49510   0.11477   0.00000  Uiso   1.00
O174   O     0.31910   0.50490   0.21857   0.00000  Uiso   1.00
Br175  Br    0.94009   0.33496   0.08943   0.00000  Uiso   1.00
Br176  Br    0.55991   0.66503   0.24391   0.00000  Uiso   1.00
Br177  Br    0.69160   0.43616   0.30127   0.00000  Uiso   1.00
Br178  Br    0.80840   0.56384   0.03206   0.00000  Uiso   1.00
C179   C     0.74810   0.40023   0.15153   0.00000  Uiso   1.00
C180   C     0.58977   0.45323   0.14510   0.00000  Uiso   1.00
C181   C     0.88330   0.49976   0.16492   0.00000  Uiso   1.00
C182   C     0.61670   0.50024   0.16842   0.00000  Uiso   1.00
C183   C     0.90179   0.45246   0.14095   0.00000  Uiso   1.00
C184   C     0.59821   0.54754   0.19238   0.00000  Uiso   1.00
C185   C     0.94886   0.45146   0.14217   0.00000  Uiso   1.00
C186   C     0.55114   0.54854   0.19116   0.00000  Uiso   1.00
C187   C     0.97637   0.49950   0.16596   0.00000  Uiso   1.00
C188   C     0.52363   0.50050   0.16737   0.00000  Uiso   1.00
C189   C     0.95677   0.54676   0.18842   0.00000  Uiso   1.00
C190   C     0.75191   0.59977   0.18180   0.00000  Uiso   1.00
C191   C     0.54323   0.45324   0.14492   0.00000  Uiso   1.00
C192   C     0.96981   0.40459   0.12084   0.00000  Uiso   1.00
C193   C     0.53019   0.59541   0.21250   0.00000  Uiso   1.00
C194   C     0.51611   0.40633   0.12237   0.00000  Uiso   1.00
C195   C     0.98389   0.59367   0.21097   0.00000  Uiso   1.00
C196   C     0.74123   0.34484   0.14456   0.00000  Uiso   1.00
C197   C     0.75877   0.65516   0.18877   0.00000  Uiso   1.00
C198   C     0.66476   0.49998   0.16718   0.00000  Uiso   1.00
C199   C     0.83524   0.50002   0.16615   0.00000  Uiso   1.00
C200   C     0.91023   0.54677   0.18823   0.00000  Uiso   1.00
Cu201  Cu    0.75501   0.50579   0.22813   0.00000  Uiso   1.00
Cu202  Cu    0.74500   0.49421   0.10521   0.00000  Uiso   1.00
H203   H     0.53090   0.36990   0.10558   0.00000  Uiso   1.00
H204   H     0.64752   0.60176   0.18414   0.00000  Uiso   1.00
H205   H     0.72992   0.62746   0.06007   0.00000  Uiso   1.00
H206   H     0.68602   0.62796   0.10487   0.00000  Uiso   1.00
H207   H     0.77008   0.37254   0.27327   0.00000  Uiso   1.00
H208   H     0.81398   0.37204   0.22847   0.00000  Uiso   1.00
H209   H     0.96910   0.63010   0.22775   0.00000  Uiso   1.00
H210   H     0.87288   0.59110   0.24800   0.00000  Uiso   1.00
H211   H     0.86787   0.60195   0.17616   0.00000  Uiso   1.00
H212   H     0.62712   0.40889   0.08534   0.00000  Uiso   1.00
H213   H     0.63213   0.39805   0.15718   0.00000  Uiso   1.00
H214   H     0.85181   0.41174   0.07860   0.00000  Uiso   1.00
H215   H     0.85247   0.39824   0.14918   0.00000  Uiso   1.00
H216   H     0.64819   0.58826   0.25472   0.00000  Uiso   1.00
N217   N     0.73745   0.48547   0.01284   0.00000  Uiso   1.00
N218   N     0.76256   0.51453   0.32049   0.00000  Uiso   1.00
N219   N     0.89041   0.59500   0.21085   0.00000  Uiso   1.00
N220   N     0.60959   0.40500   0.12249   0.00000  Uiso   1.00
N221   N     0.87243   0.40582   0.11576   0.00000  Uiso   1.00
N222   N     0.62757   0.59418   0.21756   0.00000  Uiso   1.00
N223   N     0.71175   0.65059   0.09175   0.00000  Uiso   1.00
N224   N     0.78825   0.34941   0.24158   0.00000  Uiso   1.00
O225   O     0.75326   0.42871   0.20659   0.00000  Uiso   1.00
O226   O     0.74675   0.57129   0.12674   0.00000  Uiso   1.00
O227   O     0.74480   0.41892   0.10279   0.00000  Uiso   1.00
O228   O     0.75520   0.58108   0.23055   0.00000  Uiso   1.00
O229   O     0.68936   0.50488   0.21857   0.00000  Uiso   1.00
O230   O     0.81065   0.49512   0.11476   0.00000  Uiso   1.00
O231   O     0.68090   0.49510   0.11477   0.00000  Uiso   1.00
O232   O     0.81910   0.50490   0.21857   0.00000  Uiso   1.00
Br233  Br    0.44009   0.66830   0.08943   0.00000  Uiso   1.00
Br234  Br    0.05991   0.99837   0.24391   0.00000  Uiso   1.00
Br235  Br    0.19160   0.76949   0.30127   0.00000  Uiso   1.00
Br236  Br    0.30840   0.89717   0.03206   0.00000  Uiso   1.00
C237   C     0.24810   0.73357   0.15153   0.00000  Uiso   1.00
C238   C     0.08977   0.78656   0.14510   0.00000  Uiso   1.00
C239   C     0.38330   0.83309   0.16492   0.00000  Uiso   1.00
C240   C     0.11670   0.83357   0.16842   0.00000  Uiso   1.00
C241   C     0.40179   0.78579   0.14095   0.00000  Uiso   1.00
C242   C     0.09821   0.88087   0.19238   0.00000  Uiso   1.00
C243   C     0.44886   0.78479   0.14217   0.00000  Uiso   1.00
C244   C     0.05114   0.88187   0.19116   0.00000  Uiso   1.00
C245   C     0.47637   0.83283   0.16596   0.00000  Uiso   1.00
C246   C     0.02363   0.83383   0.16737   0.00000  Uiso   1.00
C247   C     0.45677   0.88009   0.18842   0.00000  Uiso   1.00
C248   C     0.25191   0.93310   0.18180   0.00000  Uiso   1.00
C249   C     0.04323   0.78657   0.14492   0.00000  Uiso   1.00
C250   C     0.46981   0.73792   0.12084   0.00000  Uiso   1.00
C251   C     0.03019   0.92874   0.21250   0.00000  Uiso   1.00
C252   C     0.01611   0.73966   0.12237   0.00000  Uiso   1.00
C253   C     0.48389   0.92701   0.21097   0.00000  Uiso   1.00
C254   C     0.24123   0.67818   0.14456   0.00000  Uiso   1.00
C255   C     0.25877   0.98849   0.18877   0.00000  Uiso   1.00
C256   C     0.16476   0.83331   0.16718   0.00000  Uiso   1.00
C257   C     0.33524   0.83336   0.16615   0.00000  Uiso   1.00
C258   C     0.41023   0.88010   0.18823   0.00000  Uiso   1.00
Cu259  Cu    0.25501   0.83913   0.22813   0.00000  Uiso   1.00
Cu260  Cu    0.24500   0.82754   0.10521   0.00000  Uiso   1.00
H261   H     0.03090   0.70324   0.10558   0.00000  Uiso   1.00
H262   H     0.14752   0.93509   0.18414   0.00000  Uiso   1.00
H263   H     0.22992   0.96079   0.06007   0.00000  Uiso   1.00
H264   H     0.18602   0.96129   0.10487   0.00000  Uiso   1.00
H265   H     0.27008   0.70588   0.27327   0.00000  Uiso   1.00
H266   H     0.31398   0.70538   0.22847   0.00000  Uiso   1.00
H267   H     0.46910   0.96343   0.22775   0.00000  Uiso   1.00
H268   H     0.37288   0.92444   0.24800   0.00000  Uiso   1.00
H269   H     0.36787   0.93528   0.17616   0.00000  Uiso   1.00
H270   H     0.12712   0.74223   0.08534   0.00000  Uiso   1.00
H271   H     0.13213   0.73138   0.15718   0.00000  Uiso   1.00
H272   H     0.35181   0.74507   0.07860   0.00000  Uiso   1.00
H273   H     0.35247   0.73158   0.14918   0.00000  Uiso   1.00
H274   H     0.14819   0.92160   0.25472   0.00000  Uiso   1.00
N275   N     0.23745   0.81881   0.01284   0.00000  Uiso   1.00
N276   N     0.26256   0.84786   0.32049   0.00000  Uiso   1.00
N277   N     0.39041   0.92834   0.21085   0.00000  Uiso   1.00
N278   N     0.10959   0.73833   0.12249   0.00000  Uiso   1.00
N279   N     0.37243   0.73916   0.11576   0.00000  Uiso   1.00
N280   N     0.12757   0.92751   0.21756   0.00000  Uiso   1.00
N281   N     0.21175   0.98392   0.09175   0.00000  Uiso   1.00
N282   N     0.28825   0.68275   0.24158   0.00000  Uiso   1.00
O283   O     0.25326   0.76204   0.20659   0.00000  Uiso   1.00
O284   O     0.24675   0.90462   0.12674   0.00000  Uiso   1.00
O285   O     0.24480   0.75226   0.10279   0.00000  Uiso   1.00
O286   O     0.25520   0.91441   0.23055   0.00000  Uiso   1.00
O287   O     0.18936   0.83821   0.21857   0.00000  Uiso   1.00
O288   O     0.31065   0.82845   0.11476   0.00000  Uiso   1.00
O289   O     0.18090   0.82843   0.11477   0.00000  Uiso   1.00
O290   O     0.31910   0.83824   0.21857   0.00000  Uiso   1.00
Br291  Br    0.94009   0.66830   0.08943   0.00000  Uiso   1.00
Br292  Br    0.55991   0.99837   0.24391   0.00000  Uiso   1.00
Br293  Br    0.69160   0.76949   0.30127   0.00000  Uiso   1.00
Br294  Br    0.80840   0.89717   0.03206   0.00000  Uiso   1.00
C295   C     0.74810   0.73357   0.15153   0.00000  Uiso   1.00
C296   C     0.58977   0.78656   0.14510   0.00000  Uiso   1.00
C297   C     0.88330   0.83309   0.16492   0.00000  Uiso   1.00
C298   C     0.61670   0.83357   0.16842   0.00000  Uiso   1.00
C299   C     0.90179   0.78579   0.14095   0.00000  Uiso   1.00
C300   C     0.59821   0.88087   0.19238   0.00000  Uiso   1.00
C301   C     0.94886   0.78479   0.14217   0.00000  Uiso   1.00
C302   C     0.55114   0.88187   0.19116   0.00000  Uiso   1.00
C303   C     0.97637   0.83283   0.16596   0.00000  Uiso   1.00
C304   C     0.52363   0.83383   0.16737   0.00000  Uiso   1.00
C305   C     0.95677   0.88009   0.18842   0.00000  Uiso   1.00
C306   C     0.75191   0.93310   0.18180   0.00000  Uiso   1.00
C307   C     0.54323   0.78657   0.14492   0.00000  Uiso   1.00
C308   C     0.96981   0.73792   0.12084   0.00000  Uiso   1.00
C309   C     0.53019   0.92874   0.21250   0.00000  Uiso   1.00
C310   C     0.51611   0.73966   0.12237   0.00000  Uiso   1.00
C311   C     0.98389   0.92701   0.21097   0.00000  Uiso   1.00
C312   C     0.74123   0.67818   0.14456   0.00000  Uiso   1.00
C313   C     0.75877   0.98849   0.18877   0.00000  Uiso   1.00
C314   C     0.66476   0.83331   0.16718   0.00000  Uiso   1.00
C315   C     0.83524   0.83336   0.16615   0.00000  Uiso   1.00
C316   C     0.91023   0.88010   0.18823   0.00000  Uiso   1.00
Cu317  Cu    0.75501   0.83913   0.22813   0.00000  Uiso   1.00
Cu318  Cu    0.74500   0.82754   0.10521   0.00000  Uiso   1.00
H319   H     0.53090   0.70324   0.10558   0.00000  Uiso   1.00
H320   H     0.64752   0.93509   0.18414   0.00000  Uiso   1.00
H321   H     0.72992   0.96079   0.06007   0.00000  Uiso   1.00
H322   H     0.68602   0.96129   0.10487   0.00000  Uiso   1.00
H323   H     0.77008   0.70588   0.27327   0.00000  Uiso   1.00
H324   H     0.81398   0.70538   0.22847   0.00000  Uiso   1.00
H325   H     0.96910   0.96343   0.22775   0.00000  Uiso   1.00
H326   H     0.87288   0.92444   0.24800   0.00000  Uiso   1.00
H327   H     0.86787   0.93528   0.17616   0.00000  Uiso   1.00
H328   H     0.62712   0.74223   0.08534   0.00000  Uiso   1.00
H329   H     0.63213   0.73138   0.15718   0.00000  Uiso   1.00
H330   H     0.85181   0.74507   0.07860   0.00000  Uiso   1.00
H331   H     0.85247   0.73158   0.14918   0.00000  Uiso   1.00
H332   H     0.64819   0.92160   0.25472   0.00000  Uiso   1.00
N333   N     0.73745   0.81881   0.01284   0.00000  Uiso   1.00
N334   N     0.76256   0.84786   0.32049   0.00000  Uiso   1.00
N335   N     0.89041   0.92834   0.21085   0.00000  Uiso   1.00
N336   N     0.60959   0.73833   0.12249   0.00000  Uiso   1.00
N337   N     0.87243   0.73916   0.11576   0.00000  Uiso   1.00
N338   N     0.62757   0.92751   0.21756   0.00000  Uiso   1.00
N339   N     0.71175   0.98392   0.09175   0.00000  Uiso   1.00
N340   N     0.78825   0.68275   0.24158   0.00000  Uiso   1.00
O341   O     0.75326   0.76204   0.20659   0.00000  Uiso   1.00
O342   O     0.74675   0.90462   0.12674   0.00000  Uiso   1.00
O343   O     0.74480   0.75226   0.10279   0.00000  Uiso   1.00
O344   O     0.75520   0.91441   0.23055   0.00000  Uiso   1.00
O345   O     0.68936   0.83821   0.21857   0.00000  Uiso   1.00
O346   O     0.81065   0.82845   0.11476   0.00000  Uiso   1.00
O347   O     0.68090   0.82843   0.11477   0.00000  Uiso   1.00
O348   O     0.81910   0.83824   0.21857   0.00000  Uiso   1.00
Br349  Br    0.44009   0.00163   0.42277   0.00000  Uiso   1.00
Br350  Br    0.05991   0.33170   0.57724   0.00000  Uiso   1.00
Br351  Br    0.19160   0.10283   0.63460   0.00000  Uiso   1.00
Br352  Br    0.30840   0.23051   0.36540   0.00000  Uiso   1.00
C353   C     0.24810   0.06690   0.48486   0.00000  Uiso   1.00
C354   C     0.08977   0.11990   0.47844   0.00000  Uiso   1.00
C355   C     0.38330   0.16643   0.49825   0.00000  Uiso   1.00
C356   C     0.11670   0.16691   0.50175   0.00000  Uiso   1.00
C357   C     0.40179   0.11913   0.47429   0.00000  Uiso   1.00
C358   C     0.09821   0.21421   0.52571   0.00000  Uiso   1.00
C359   C     0.44886   0.11813   0.47551   0.00000  Uiso   1.00
C360   C     0.05114   0.21521   0.52449   0.00000  Uiso   1.00
C361   C     0.47637   0.16617   0.49930   0.00000  Uiso   1.00
C362   C     0.02363   0.16717   0.50071   0.00000  Uiso   1.00
C363   C     0.45677   0.21343   0.52175   0.00000  Uiso   1.00
C364   C     0.25191   0.26643   0.51514   0.00000  Uiso   1.00
C365   C     0.04323   0.11991   0.47825   0.00000  Uiso   1.00
C366   C     0.46981   0.07125   0.45417   0.00000  Uiso   1.00
C367   C     0.03019   0.26208   0.54583   0.00000  Uiso   1.00
C368   C     0.01611   0.07299   0.45570   0.00000  Uiso   1.00
C369   C     0.48389   0.26034   0.54430   0.00000  Uiso   1.00
C370   C     0.24123   0.01151   0.47790   0.00000  Uiso   1.00
C371   C     0.25877   0.32182   0.52210   0.00000  Uiso   1.00
C372   C     0.16476   0.16664   0.50051   0.00000  Uiso   1.00
C373   C     0.33524   0.16669   0.49949   0.00000  Uiso   1.00
C374   C     0.41023   0.21344   0.52157   0.00000  Uiso   1.00
Cu375  Cu    0.25501   0.17246   0.56146   0.00000  Uiso   1.00
Cu376  Cu    0.24500   0.16087   0.43854   0.00000  Uiso   1.00
H377   H     0.03090   0.03657   0.43892   0.00000  Uiso   1.00
H378   H     0.14752   0.26842   0.51748   0.00000  Uiso   1.00
H379   H     0.22992   0.29413   0.39340   0.00000  Uiso   1.00
H380   H     0.18602   0.29462   0.43820   0.00000  Uiso   1.00
H381   H     0.27008   0.03921   0.60660   0.00000  Uiso   1.00
H382   H     0.31398   0.03871   0.56180   0.00000  Uiso   1.00
H383   H     0.46910   0.29676   0.56109   0.00000  Uiso   1.00
H384   H     0.37288   0.25777   0.58133   0.00000  Uiso   1.00
H385   H     0.36787   0.26862   0.50949   0.00000  Uiso   1.00
H386   H     0.12712   0.07556   0.41867   0.00000  Uiso   1.00
H387   H     0.13213   0.06472   0.49052   0.00000  Uiso   1.00
H388   H     0.35181   0.07841   0.41194   0.00000  Uiso   1.00
H389   H     0.35247   0.06491   0.48251   0.00000  Uiso   1.00
H390   H     0.14819   0.25493   0.58806   0.00000  Uiso   1.00
N391   N     0.23745   0.15214   0.34617   0.00000  Uiso   1.00
N392   N     0.26256   0.18119   0.65383   0.00000  Uiso   1.00
N393   N     0.39041   0.26167   0.54418   0.00000  Uiso   1.00
N394   N     0.10959   0.07166   0.45582   0.00000  Uiso   1.00
N395   N     0.37243   0.07249   0.44909   0.00000  Uiso   1.00
N396   N     0.12757   0.26085   0.55090   0.00000  Uiso   1.00
N397   N     0.21175   0.31725   0.42508   0.00000  Uiso   1.00
N398   N     0.28825   0.01608   0.57491   0.00000  Uiso   1.00
O399   O     0.25326   0.09538   0.53992   0.00000  Uiso   1.00
O400   O     0.24675   0.23796   0.46008   0.00000  Uiso   1.00
O401   O     0.24480   0.08559   0.43612   0.00000  Uiso   1.00
O402   O     0.25520   0.24774   0.56388   0.00000  Uiso   1.00
O403   O     0.18936   0.17155   0.55191   0.00000  Uiso   1.00
O404   O     0.31065   0.16179   0.44809   0.00000  Uiso   1.00
O405   O     0.18090   0.16176   0.44810   0.00000  Uiso   1.00
O406   O     0.31910   0.17157   0.55190   0.00000  Uiso   1.00
Br407  Br    0.94009   0.00163   0.42277   0.00000  Uiso   1.00
Br408  Br    0.55991   0.33170   0.57724   0.00000  Uiso   1.00
Br409  Br    0.69160   0.10283   0.63460   0.00000  Uiso   1.00
Br410  Br    0.80840   0.23051   0.36540   0.00000  Uiso   1.00
C411   C     0.74810   0.06690   0.48486   0.00000  Uiso   1.00
C412   C     0.58977   0.11990   0.47844   0.00000  Uiso   1.00
C413   C     0.88330   0.16643   0.49825   0.00000  Uiso   1.00
C414   C     0.61670   0.16691   0.50175   0.00000  Uiso   1.00
C415   C     0.90179   0.11913   0.47429   0.00000  Uiso   1.00
C416   C     0.59821   0.21421   0.52571   0.00000  Uiso   1.00
C417   C     0.94886   0.11813   0.47551   0.00000  Uiso   1.00
C418   C     0.55114   0.21521   0.52449   0.00000  Uiso   1.00
C419   C     0.97637   0.16617   0.49930   0.00000  Uiso   1.00
C420   C     0.52363   0.16717   0.50071   0.00000  Uiso   1.00
C421   C     0.95677   0.21343   0.52175   0.00000  Uiso   1.00
C422   C     0.75191   0.26643   0.51514   0.00000  Uiso   1.00
C423   C     0.54323   0.11991   0.47825   0.00000  Uiso   1.00
C424   C     0.96981   0.07125   0.45417   0.00000  Uiso   1.00
C425   C     0.53019   0.26208   0.54583   0.00000  Uiso   1.00
C426   C     0.51611   0.07299   0.45570   0.00000  Uiso   1.00
C427   C     0.98389   0.26034   0.54430   0.00000  Uiso   1.00
C428   C     0.74123   0.01151   0.47790   0.00000  Uiso   1.00
C429   C     0.75877   0.32182   0.52210   0.00000  Uiso   1.00
C430   C     0.66476   0.16664   0.50051   0.00000  Uiso   1.00
C431   C     0.83524   0.16669   0.49949   0.00000  Uiso   1.00
C432   C     0.91023   0.21344   0.52157   0.00000  Uiso   1.00
Cu433  Cu    0.75501   0.17246   0.56146   0.00000  Uiso   1.00
Cu434  Cu    0.74500   0.16087   0.43854   0.00000  Uiso   1.00
H435   H     0.53090   0.03657   0.43892   0.00000  Uiso   1.00
H436   H     0.64752   0.26842   0.51748   0.00000  Uiso   1.00
H437   H     0.72992   0.29413   0.39340   0.00000  Uiso   1.00
H438   H     0.68602   0.29462   0.43820   0.00000  Uiso   1.00
H439   H     0.77008   0.03921   0.60660   0.00000  Uiso   1.00
H440   H     0.81398   0.03871   0.56180   0.00000  Uiso   1.00
H441   H     0.96910   0.29676   0.56109   0.00000  Uiso   1.00
H442   H     0.87288   0.25777   0.58133   0.00000  Uiso   1.00
H443   H     0.86787   0.26862   0.50949   0.00000  Uiso   1.00
H444   H     0.62712   0.07556   0.41867   0.00000  Uiso   1.00
H445   H     0.63213   0.06472   0.49052   0.00000  Uiso   1.00
H446   H     0.85181   0.07841   0.41194   0.00000  Uiso   1.00
H447   H     0.85247   0.06491   0.48251   0.00000  Uiso   1.00
H448   H     0.64819   0.25493   0.58806   0.00000  Uiso   1.00
N449   N     0.73745   0.15214   0.34617   0.00000  Uiso   1.00
N450   N     0.76256   0.18119   0.65383   0.00000  Uiso   1.00
N451   N     0.89041   0.26167   0.54418   0.00000  Uiso   1.00
N452   N     0.60959   0.07166   0.45582   0.00000  Uiso   1.00
N453   N     0.87243   0.07249   0.44909   0.00000  Uiso   1.00
N454   N     0.62757   0.26085   0.55090   0.00000  Uiso   1.00
N455   N     0.71175   0.31725   0.42508   0.00000  Uiso   1.00
N456   N     0.78825   0.01608   0.57491   0.00000  Uiso   1.00
O457   O     0.75326   0.09538   0.53992   0.00000  Uiso   1.00
O458   O     0.74675   0.23796   0.46008   0.00000  Uiso   1.00
O459   O     0.74480   0.08559   0.43612   0.00000  Uiso   1.00
O460   O     0.75520   0.24774   0.56388   0.00000  Uiso   1.00
O461   O     0.68936   0.17155   0.55191   0.00000  Uiso   1.00
O462   O     0.81065   0.16179   0.44809   0.00000  Uiso   1.00
O463   O     0.68090   0.16176   0.44810   0.00000  Uiso   1.00
O464   O     0.81910   0.17157   0.55190   0.00000  Uiso   1.00
Br465  Br    0.44009   0.33496   0.42277   0.00000  Uiso   1.00
Br466  Br    0.05991   0.66503   0.57724   0.00000  Uiso   1.00
Br467  Br    0.19160   0.43616   0.63460   0.00000  Uiso   1.00
Br468  Br    0.30840   0.56384   0.36540   0.00000  Uiso   1.00
C469   C     0.24810   0.40023   0.48486   0.00000  Uiso   1.00
C470   C     0.08977   0.45323   0.47844   0.00000  Uiso   1.00
C471   C     0.38330   0.49976   0.49825   0.00000  Uiso   1.00
C472   C     0.11670   0.50024   0.50175   0.00000  Uiso   1.00
C473   C     0.40179   0.45246   0.47429   0.00000  Uiso   1.00
C474   C     0.09821   0.54754   0.52571   0.00000  Uiso   1.00
C475   C     0.44886   0.45146   0.47551   0.00000  Uiso   1.00
C476   C     0.05114   0.54854   0.52449   0.00000  Uiso   1.00
C477   C     0.47637   0.49950   0.49930   0.00000  Uiso   1.00
C478   C     0.02363   0.50050   0.50071   0.00000  Uiso   1.00
C479   C     0.45677   0.54676   0.52175   0.00000  Uiso   1.00
C480   C     0.25191   0.59977   0.51514   0.00000  Uiso   1.00
C481   C     0.04323   0.45324   0.47825   0.00000  Uiso   1.00
C482   C     0.46981   0.40459   0.45417   0.00000  Uiso   1.00
C483   C     0.03019   0.59541   0.54583   0.00000  Uiso   1.00
C484   C     0.01611   0.40633   0.45570   0.00000  Uiso   1.00
C485   C     0.48389   0.59367   0.54430   0.00000  Uiso   1.00
C486   C     0.24123   0.34484   0.47790   0.00000  Uiso   1.00
C487   C     0.25877   0.65516   0.52210   0.00000  Uiso   1.00
C488   C     0.16476   0.49998   0.50051   0.00000  Uiso   1.00
C489   C     0.33524   0.50002   0.49949   0.00000  Uiso   1.00
C490   C     0.41023   0.54677   0.52157   0.00000  Uiso   1.00
Cu491  Cu    0.25501   0.50579   0.56146   0.00000  Uiso   1.00
Cu492  Cu    0.24500   0.49421   0.43854   0.00000  Uiso   1.00
H493   H     0.03090   0.36990   0.43892   0.00000  Uiso   1.00
H494   H     0.14752   0.60176   0.51748   0.00000  Uiso   1.00
H495   H     0.22992   0.62746   0.39340   0.00000  Uiso   1.00
H496   H     0.18602   0.62796   0.43820   0.00000  Uiso   1.00
H497   H     0.27008   0.37254   0.60660   0.00000  Uiso   1.00
H498   H     0.31398   0.37204   0.56180   0.00000  Uiso   1.00
H499   H     0.46910   0.63010   0.56109   0.00000  Uiso   1.00
H500   H     0.37288   0.59110   0.58133   0.00000  Uiso   1.00
H501   H     0.36787   0.60195   0.50949   0.00000  Uiso   1.00
H502   H     0.12712   0.40889   0.41867   0.00000  Uiso   1.00
H503   H     0.13213   0.39805   0.49052   0.00000  Uiso   1.00
H504   H     0.35181   0.41174   0.41194   0.00000  Uiso   1.00
H505   H     0.35247   0.39824   0.48251   0.00000  Uiso   1.00
H506   H     0.14819   0.58826   0.58806   0.00000  Uiso   1.00
N507   N     0.23745   0.48547   0.34617   0.00000  Uiso   1.00
N508   N     0.26256   0.51453   0.65383   0.00000  Uiso   1.00
N509   N     0.39041   0.59500   0.54418   0.00000  Uiso   1.00
N510   N     0.10959   0.40500   0.45582   0.00000  Uiso   1.00
N511   N     0.37243   0.40582   0.44909   0.00000  Uiso   1.00
N512   N     0.12757   0.59418   0.55090   0.00000  Uiso   1.00
N513   N     0.21175   0.65059   0.42508   0.00000  Uiso   1.00
N514   N     0.28825   0.34941   0.57491   0.00000  Uiso   1.00
O515   O     0.25326   0.42871   0.53992   0.00000  Uiso   1.00
O516   O     0.24675   0.57129   0.46008   0.00000  Uiso   1.00
O517   O     0.24480   0.41892   0.43612   0.00000  Uiso   1.00
O518   O     0.25520   0.58108   0.56388   0.00000  Uiso   1.00
O519   O     0.18936   0.50488   0.55191   0.00000  Uiso   1.00
O520   O     0.31065   0.49512   0.44809   0.00000  Uiso   1.00
O521   O     0.18090   0.49510   0.44810   0.00000  Uiso   1.00
O522   O     0.31910   0.50490   0.55190   0.00000  Uiso   1.00
Br523  Br    0.94009   0.33496   0.42277   0.00000  Uiso   1.00
Br524  Br    0.55991   0.66503   0.57724   0.00000  Uiso   1.00
Br525  Br    0.69160   0.43616   0.63460   0.00000  Uiso   1.00
Br526  Br    0.80840   0.56384   0.36540   0.00000  Uiso   1.00
C527   C     0.74810   0.40023   0.48486   0.00000  Uiso   1.00
C528   C     0.58977   0.45323   0.47844   0.00000  Uiso   1.00
C529   C     0.88330   0.49976   0.49825   0.00000  Uiso   1.00
C530   C     0.61670   0.50024   0.50175   0.00000  Uiso   1.00
C531   C     0.90179   0.45246   0.47429   0.00000  Uiso   1.00
C532   C     0.59821   0.54754   0.52571   0.00000  Uiso   1.00
C533   C     0.94886   0.45146   0.47551   0.00000  Uiso   1.00
C534   C     0.55114   0.54854   0.52449   0.00000  Uiso   1.00
C535   C     0.97637   0.49950   0.49930   0.00000  Uiso   1.00
C536   C     0.52363   0.50050   0.50071   0.00000  Uiso   1.00
C537   C     0.95677   0.54676   0.52175   0.00000  Uiso   1.00
C538   C     0.75191   0.59977   0.51514   0.00000  Uiso   1.00
C539   C     0.54323   0.45324   0.47825   0.00000  Uiso   1.00
C540   C     0.96981   0.40459   0.45417   0.00000  Uiso   1.00
C541   C     0.53019   0.59541   0.54583   0.00000  Uiso   1.00
C542   C     0.51611   0.40633   0.45570   0.00000  Uiso   1.00
C543   C     0.98389   0.59367   0.54430   0.00000  Uiso   1.00
C544   C     0.74123   0.34484   0.47790   0.00000  Uiso   1.00
C545   C     0.75877   0.65516   0.52210   0.00000  Uiso   1.00
C546   C     0.66476   0.49998   0.50051   0.00000  Uiso   1.00
C547   C     0.83524   0.50002   0.49949   0.00000  Uiso   1.00
C548   C     0.91023   0.54677   0.52157   0.00000  Uiso   1.00
Cu549  Cu    0.75501   0.50579   0.56146   0.00000  Uiso   1.00
Cu550  Cu    0.74500   0.49421   0.43854   0.00000  Uiso   1.00
H551   H     0.53090   0.36990   0.43892   0.00000  Uiso   1.00
H552   H     0.64752   0.60176   0.51748   0.00000  Uiso   1.00
H553   H     0.72992   0.62746   0.39340   0.00000  Uiso   1.00
H554   H     0.68602   0.62796   0.43820   0.00000  Uiso   1.00
H555   H     0.77008   0.37254   0.60660   0.00000  Uiso   1.00
H556   H     0.81398   0.37204   0.56180   0.00000  Uiso   1.00
H557   H     0.96910   0.63010   0.56109   0.00000  Uiso   1.00
H558   H     0.87288   0.59110   0.58133   0.00000  Uiso   1.00
H559   H     0.86787   0.60195   0.50949   0.00000  Uiso   1.00
H560   H     0.62712   0.40889   0.41867   0.00000  Uiso   1.00
H561   H     0.63213   0.39805   0.49052   0.00000  Uiso   1.00
H562   H     0.85181   0.41174   0.41194   0.00000  Uiso   1.00
H563   H     0.85247   0.39824   0.48251   0.00000  Uiso   1.00
H564   H     0.64819   0.58826   0.58806   0.00000  Uiso   1.00
N565   N     0.73745   0.48547   0.34617   0.00000  Uiso   1.00
N566   N     0.76256   0.51453   0.65383   0.00000  Uiso   1.00
N567   N     0.89041   0.59500   0.54418   0.00000  Uiso   1.00
N568   N     0.60959   0.40500   0.45582   0.00000  Uiso   1.00
N569   N     0.87243   0.40582   0.44909   0.00000  Uiso   1.00
N570   N     0.62757   0.59418   0.55090   0.00000  Uiso   1.00
N571   N     0.71175   0.65059   0.42508   0.00000  Uiso   1.00
N572   N     0.78825   0.34941   0.57491   0.00000  Uiso   1.00
O573   O     0.75326   0.42871   0.53992   0.00000  Uiso   1.00
O574   O     0.74675   0.57129   0.46008   0.00000  Uiso   1.00
O575   O     0.74480   0.41892   0.43612   0.00000  Uiso   1.00
O576   O     0.75520   0.58108   0.56388   0.00000  Uiso   1.00
O577   O     0.68936   0.50488   0.55191   0.00000  Uiso   1.00
O578   O     0.81065   0.49512   0.44809   0.00000  Uiso   1.00
O579   O     0.68090   0.49510   0.44810   0.00000  Uiso   1.00
O580   O     0.81910   0.50490   0.55190   0.00000  Uiso   1.00
Br581  Br    0.44009   0.66830   0.42277   0.00000  Uiso   1.00
Br582  Br    0.05991   0.99837   0.57724   0.00000  Uiso   1.00
Br583  Br    0.19160   0.76949   0.63460   0.00000  Uiso   1.00
Br584  Br    0.30840   0.89717   0.36540   0.00000  Uiso   1.00
C585   C     0.24810   0.73357   0.48486   0.00000  Uiso   1.00
C586   C     0.08977   0.78656   0.47844   0.00000  Uiso   1.00
C587   C     0.38330   0.83309   0.49825   0.00000  Uiso   1.00
C588   C     0.11670   0.83357   0.50175   0.00000  Uiso   1.00
C589   C     0.40179   0.78579   0.47429   0.00000  Uiso   1.00
C590   C     0.09821   0.88087   0.52571   0.00000  Uiso   1.00
C591   C     0.44886   0.78479   0.47551   0.00000  Uiso   1.00
C592   C     0.05114   0.88187   0.52449   0.00000  Uiso   1.00
C593   C     0.47637   0.83283   0.49930   0.00000  Uiso   1.00
C594   C     0.02363   0.83383   0.50071   0.00000  Uiso   1.00
C595   C     0.45677   0.88009   0.52175   0.00000  Uiso   1.00
C596   C     0.25191   0.93310   0.51514   0.00000  Uiso   1.00
C597   C     0.04323   0.78657   0.47825   0.00000  Uiso   1.00
C598   C     0.46981   0.73792   0.45417   0.00000  Uiso   1.00
C599   C     0.03019   0.92874   0.54583   0.00000  Uiso   1.00
C600   C     0.01611   0.73966   0.45570   0.00000  Uiso   1.00
C601   C     0.48389   0.92701   0.54430   0.00000  Uiso   1.00
C602   C     0.24123   0.67818   0.47790   0.00000  Uiso   1.00
C603   C     0.25877   0.98849   0.52210   0.00000  Uiso   1.00
C604   C     0.16476   0.83331   0.50051   0.00000  Uiso   1.00
C605   C     0.33524   0.83336   0.49949   0.00000  Uiso   1.00
C606   C     0.41023   0.88010   0.52157   0.00000  Uiso   1.00
Cu607  Cu    0.25501   0.83913   0.56146   0.00000  Uiso   1.00
Cu608  Cu    0.24500   0.82754   0.43854   0.00000  Uiso   1.00
H609   H     0.03090   0.70324   0.43892   0.00000  Uiso   1.00
H610   H     0.14752   0.93509   0.51748   0.00000  Uiso   1.00
H611   H     0.22992   0.96079   0.39340   0.00000  Uiso   1.00
H612   H     0.18602   0.96129   0.43820   0.00000  Uiso   1.00
H613   H     0.27008   0.70588   0.60660   0.00000  Uiso   1.00
H614   H     0.31398   0.70538   0.56180   0.00000  Uiso   1.00
H615   H     0.46910   0.96343   0.56109   0.00000  Uiso   1.00
H616   H     0.37288   0.92444   0.58133   0.00000  Uiso   1.00
H617   H     0.36787   0.93528   0.50949   0.00000  Uiso   1.00
H618   H     0.12712   0.74223   0.41867   0.00000  Uiso   1.00
H619   H     0.13213   0.73138   0.49052   0.00000  Uiso   1.00
H620   H     0.35181   0.74507   0.41194   0.00000  Uiso   1.00
H621   H     0.35247   0.73158   0.48251   0.00000  Uiso   1.00
H622   H     0.14819   0.92160   0.58806   0.00000  Uiso   1.00
N623   N     0.23745   0.81881   0.34617   0.00000  Uiso   1.00
N624   N     0.26256   0.84786   0.65383   0.00000  Uiso   1.00
N625   N     0.39041   0.92834   0.54418   0.00000  Uiso   1.00
N626   N     0.10959   0.73833   0.45582   0.00000  Uiso   1.00
N627   N     0.37243   0.73916   0.44909   0.00000  Uiso   1.00
N628   N     0.12757   0.92751   0.55090   0.00000  Uiso   1.00
N629   N     0.21175   0.98392   0.42508   0.00000  Uiso   1.00
N630   N     0.28825   0.68275   0.57491   0.00000  Uiso   1.00
O631   O     0.25326   0.76204   0.53992   0.00000  Uiso   1.00
O632   O     0.24675   0.90462   0.46008   0.00000  Uiso   1.00
O633   O     0.24480   0.75226   0.43612   0.00000  Uiso   1.00
O634   O     0.25520   0.91441   0.56388   0.00000  Uiso   1.00
O635   O     0.18936   0.83821   0.55191   0.00000  Uiso   1.00
O636   O     0.31065   0.82845   0.44809   0.00000  Uiso   1.00
O637   O     0.18090   0.82843   0.44810   0.00000  Uiso   1.00
O638   O     0.31910   0.83824   0.55190   0.00000  Uiso   1.00
Br639  Br    0.94009   0.66830   0.42277   0.00000  Uiso   1.00
Br640  Br    0.55991   0.99837   0.57724   0.00000  Uiso   1.00
Br641  Br    0.69160   0.76949   0.63460   0.00000  Uiso   1.00
Br642  Br    0.80840   0.89717   0.36540   0.00000  Uiso   1.00
C643   C     0.74810   0.73357   0.48486   0.00000  Uiso   1.00
C644   C     0.58977   0.78656   0.47844   0.00000  Uiso   1.00
C645   C     0.88330   0.83309   0.49825   0.00000  Uiso   1.00
C646   C     0.61670   0.83357   0.50175   0.00000  Uiso   1.00
C647   C     0.90179   0.78579   0.47429   0.00000  Uiso   1.00
C648   C     0.59821   0.88087   0.52571   0.00000  Uiso   1.00
C649   C     0.94886   0.78479   0.47551   0.00000  Uiso   1.00
C650   C     0.55114   0.88187   0.52449   0.00000  Uiso   1.00
C651   C     0.97637   0.83283   0.49930   0.00000  Uiso   1.00
C652   C     0.52363   0.83383   0.50071   0.00000  Uiso   1.00
C653   C     0.95677   0.88009   0.52175   0.00000  Uiso   1.00
C654   C     0.75191   0.93310   0.51514   0.00000  Uiso   1.00
C655   C     0.54323   0.78657   0.47825   0.00000  Uiso   1.00
C656   C     0.96981   0.73792   0.45417   0.00000  Uiso   1.00
C657   C     0.53019   0.92874   0.54583   0.00000  Uiso   1.00
C658   C     0.51611   0.73966   0.45570   0.00000  Uiso   1.00
C659   C     0.98389   0.92701   0.54430   0.00000  Uiso   1.00
C660   C     0.74123   0.67818   0.47790   0.00000  Uiso   1.00
C661   C     0.75877   0.98849   0.52210   0.00000  Uiso   1.00
C662   C     0.66476   0.83331   0.50051   0.00000  Uiso   1.00
C663   C     0.83524   0.83336   0.49949   0.00000  Uiso   1.00
C664   C     0.91023   0.88010   0.52157   0.00000  Uiso   1.00
Cu665  Cu    0.75501   0.83913   0.56146   0.00000  Uiso   1.00
Cu666  Cu    0.74500   0.82754   0.43854   0.00000  Uiso   1.00
H667   H     0.53090   0.70324   0.43892   0.00000  Uiso   1.00
H668   H     0.64752   0.93509   0.51748   0.00000  Uiso   1.00
H669   H     0.72992   0.96079   0.39340   0.00000  Uiso   1.00
H670   H     0.68602   0.96129   0.43820   0.00000  Uiso   1.00
H671   H     0.77008   0.70588   0.60660   0.00000  Uiso   1.00
H672   H     0.81398   0.70538   0.56180   0.00000  Uiso   1.00
H673   H     0.96910   0.96343   0.56109   0.00000  Uiso   1.00
H674   H     0.87288   0.92444   0.58133   0.00000  Uiso   1.00
H675   H     0.86787   0.93528   0.50949   0.00000  Uiso   1.00
H676   H     0.62712   0.74223   0.41867   0.00000  Uiso   1.00
H677   H     0.63213   0.73138   0.49052   0.00000  Uiso   1.00
H678   H     0.85181   0.74507   0.41194   0.00000  Uiso   1.00
H679   H     0.85247   0.73158   0.48251   0.00000  Uiso   1.00
H680   H     0.64819   0.92160   0.58806   0.00000  Uiso   1.00
N681   N     0.73745   0.81881   0.34617   0.00000  Uiso   1.00
N682   N     0.76256   0.84786   0.65383   0.00000  Uiso   1.00
N683   N     0.89041   0.92834   0.54418   0.00000  Uiso   1.00
N684   N     0.60959   0.73833   0.45582   0.00000  Uiso   1.00
N685   N     0.87243   0.73916   0.44909   0.00000  Uiso   1.00
N686   N     0.62757   0.92751   0.55090   0.00000  Uiso   1.00
N687   N     0.71175   0.98392   0.42508   0.00000  Uiso   1.00
N688   N     0.78825   0.68275   0.57491   0.00000  Uiso   1.00
O689   O     0.75326   0.76204   0.53992   0.00000  Uiso   1.00
O690   O     0.74675   0.90462   0.46008   0.00000  Uiso   1.00
O691   O     0.74480   0.75226   0.43612   0.00000  Uiso   1.00
O692   O     0.75520   0.91441   0.56388   0.00000  Uiso   1.00
O693   O     0.68936   0.83821   0.55191   0.00000  Uiso   1.00
O694   O     0.81065   0.82845   0.44809   0.00000  Uiso   1.00
O695   O     0.68090   0.82843   0.44810   0.00000  Uiso   1.00
O696   O     0.81910   0.83824   0.55190   0.00000  Uiso   1.00
Br697  Br    0.44009   0.00163   0.75610   0.00000  Uiso   1.00
Br698  Br    0.05991   0.33170   0.91058   0.00000  Uiso   1.00
Br699  Br    0.19160   0.10283   0.96794   0.00000  Uiso   1.00
Br700  Br    0.30840   0.23051   0.69873   0.00000  Uiso   1.00
C701   C     0.24810   0.06690   0.81820   0.00000  Uiso   1.00
C702   C     0.08977   0.11990   0.81177   0.00000  Uiso   1.00
C703   C     0.38330   0.16643   0.83158   0.00000  Uiso   1.00
C704   C     0.11670   0.16691   0.83508   0.00000  Uiso   1.00
C705   C     0.40179   0.11913   0.80762   0.00000  Uiso   1.00
C706   C     0.09821   0.21421   0.85905   0.00000  Uiso   1.00
C707   C     0.44886   0.11813   0.80884   0.00000  Uiso   1.00
C708   C     0.05114   0.21521   0.85783   0.00000  Uiso   1.00
C709   C     0.47637   0.16617   0.83263   0.00000  Uiso   1.00
C710   C     0.02363   0.16717   0.83404   0.00000  Uiso   1.00
C711   C     0.45677   0.21343   0.85508   0.00000  Uiso   1.00
C712   C     0.25191   0.26643   0.84847   0.00000  Uiso   1.00
C713   C     0.04323   0.11991   0.81159   0.00000  Uiso   1.00
C714   C     0.46981   0.07125   0.78751   0.00000  Uiso   1.00
C715   C     0.03019   0.26208   0.87916   0.00000  Uiso   1.00
C716   C     0.01611   0.07299   0.78903   0.00000  Uiso   1.00
C717   C     0.48389   0.26034   0.87764   0.00000  Uiso   1.00
C718   C     0.24123   0.01151   0.81123   0.00000  Uiso   1.00
C719   C     0.25877   0.32182   0.85544   0.00000  Uiso   1.00
C720   C     0.16476   0.16664   0.83385   0.00000  Uiso   1.00
C721   C     0.33524   0.16669   0.83282   0.00000  Uiso   1.00
C722   C     0.41023   0.21344   0.85490   0.00000  Uiso   1.00
Cu723  Cu    0.25501   0.17246   0.89479   0.00000  Uiso   1.00
Cu724  Cu    0.24500   0.16087   0.77187   0.00000  Uiso   1.00
H725   H     0.03090   0.03657   0.77225   0.00000  Uiso   1.00
H726   H     0.14752   0.26842   0.85081   0.00000  Uiso   1.00
H727   H     0.22992   0.29413   0.72673   0.00000  Uiso   1.00
H728   H     0.18602   0.29462   0.77153   0.00000  Uiso   1.00
H729   H     0.27008   0.03921   0.93993   0.00000  Uiso   1.00
H730   H     0.31398   0.03871   0.89513   0.00000  Uiso   1.00
H731   H     0.46910   0.29676   0.89442   0.00000  Uiso   1.00
H732   H     0.37288   0.25777   0.91467   0.00000  Uiso   1.00
H733   H     0.36787   0.26862   0.84282   0.00000  Uiso   1.00
H734   H     0.12712   0.07556   0.75201   0.00000  Uiso   1.00
H735   H     0.13213   0.06472   0.82385   0.00000  Uiso   1.00
H736   H     0.35181   0.07841   0.74527   0.00000  Uiso   1.00
H737   H     0.35247   0.06491   0.81584   0.00000  Uiso   1.00
H738   H     0.14819   0.25493   0.92139   0.00000  Uiso   1.00
N739   N     0.23745   0.15214   0.67951   0.00000  Uiso   1.00
N740   N     0.26256   0.18119   0.98716   0.00000  Uiso   1.00
N741   N     0.39041   0.26167   0.87752   0.00000  Uiso   1.00
N742   N     0.10959   0.07166   0.78916   0.00000  Uiso   1.00
N743   N     0.37243   0.07249   0.78243   0.00000  Uiso   1.00
N744   N     0.12757   0.26085   0.88423   0.00000  Uiso   1.00
N745   N     0.21175   0.31725   0.75842   0.00000  Uiso   1.00
N746   N     0.28825   0.01608   0.90825   0.00000  Uiso   1.00
O747   O     0.25326   0.09538   0.87326   0.00000  Uiso   1.00
O748   O     0.24675   0.23796   0.79341   0.00000  Uiso   1.00
O749   O     0.24480   0.08559   0.76945   0.00000  Uiso   1.00
O750   O     0.25520   0.24774   0.89721   0.00000  Uiso   1.00
O751   O     0.18936   0.17155   0.88524   0.00000  Uiso   1.00
O752   O     0.31065   0.16179   0.78143   0.00000  Uiso   1.00
O753   O     0.18090   0.16176   0.78143   0.00000  Uiso   1.00
O754   O     0.31910   0.17157   0.88523   0.00000  Uiso   1.00
Br755  Br    0.94009   0.00163   0.75610   0.00000  Uiso   1.00
Br756  Br    0.55991   0.33170   0.91058   0.00000  Uiso   1.00
Br757  Br    0.69160   0.10283   0.96794   0.00000  Uiso   1.00
Br758  Br    0.80840   0.23051   0.69873   0.00000  Uiso   1.00
C759   C     0.74810   0.06690   0.81820   0.00000  Uiso   1.00
C760   C     0.58977   0.11990   0.81177   0.00000  Uiso   1.00
C761   C     0.88330   0.16643   0.83158   0.00000  Uiso   1.00
C762   C     0.61670   0.16691   0.83508   0.00000  Uiso   1.00
C763   C     0.90179   0.11913   0.80762   0.00000  Uiso   1.00
C764   C     0.59821   0.21421   0.85905   0.00000  Uiso   1.00
C765   C     0.94886   0.11813   0.80884   0.00000  Uiso   1.00
C766   C     0.55114   0.21521   0.85783   0.00000  Uiso   1.00
C767   C     0.97637   0.16617   0.83263   0.00000  Uiso   1.00
C768   C     0.52363   0.16717   0.83404   0.00000  Uiso   1.00
C769   C     0.95677   0.21343   0.85508   0.00000  Uiso   1.00
C770   C     0.75191   0.26643   0.84847   0.00000  Uiso   1.00
C771   C     0.54323   0.11991   0.81159   0.00000  Uiso   1.00
C772   C     0.96981   0.07125   0.78751   0.00000  Uiso   1.00
C773   C     0.53019   0.26208   0.87916   0.00000  Uiso   1.00
C774   C     0.51611   0.07299   0.78903   0.00000  Uiso   1.00
C775   C     0.98389   0.26034   0.87764   0.00000  Uiso   1.00
C776   C     0.74123   0.01151   0.81123   0.00000  Uiso   1.00
C777   C     0.75877   0.32182   0.85544   0.00000  Uiso   1.00
C778   C     0.66476   0.16664   0.83385   0.00000  Uiso   1.00
C779   C     0.83524   0.16669   0.83282   0.00000  Uiso   1.00
C780   C     0.91023   0.21344   0.85490   0.00000  Uiso   1.00
Cu781  Cu    0.75501   0.17246   0.89479   0.00000  Uiso   1.00
Cu782  Cu    0.74500   0.16087   0.77187   0.00000  Uiso   1.00
H783   H     0.53090   0.03657   0.77225   0.00000  Uiso   1.00
H784   H     0.64752   0.26842   0.85081   0.00000  Uiso   1.00
H785   H     0.72992   0.29413   0.72673   0.00000  Uiso   1.00
H786   H     0.68602   0.29462   0.77153   0.00000  Uiso   1.00
H787   H     0.77008   0.03921   0.93993   0.00000  Uiso   1.00
H788   H     0.81398   0.03871   0.89513   0.00000  Uiso   1.00
H789   H     0.96910   0.29676   0.89442   0.00000  Uiso   1.00
H790   H     0.87288   0.25777   0.91467   0.00000  Uiso   1.00
H791   H     0.86787   0.26862   0.84282   0.00000  Uiso   1.00
H792   H     0.62712   0.07556   0.75201   0.00000  Uiso   1.00
H793   H     0.63213   0.06472   0.82385   0.00000  Uiso   1.00
H794   H     0.85181   0.07841   0.74527   0.00000  Uiso   1.00
H795   H     0.85247   0.06491   0.81584   0.00000  Uiso   1.00
H796   H     0.64819   0.25493   0.92139   0.00000  Uiso   1.00
N797   N     0.73745   0.15214   0.67951   0.00000  Uiso   1.00
N798   N     0.76256   0.18119   0.98716   0.00000  Uiso   1.00
N799   N     0.89041   0.26167   0.87752   0.00000  Uiso   1.00
N800   N     0.60959   0.07166   0.78916   0.00000  Uiso   1.00
N801   N     0.87243   0.07249   0.78243   0.00000  Uiso   1.00
N802   N     0.62757   0.26085   0.88423   0.00000  Uiso   1.00
N803   N     0.71175   0.31725   0.75842   0.00000  Uiso   1.00
N804   N     0.78825   0.01608   0.90825   0.00000  Uiso   1.00
O805   O     0.75326   0.09538   0.87326   0.00000  Uiso   1.00
O806   O     0.74675   0.23796   0.79341   0.00000  Uiso   1.00
O807   O     0.74480   0.08559   0.76945   0.00000  Uiso   1.00
O808   O     0.75520   0.24774   0.89721   0.00000  Uiso   1.00
O809   O     0.68936   0.17155   0.88524   0.00000  Uiso   1.00
O810   O     0.81065   0.16179   0.78143   0.00000  Uiso   1.00
O811   O     0.68090   0.16176   0.78143   0.00000  Uiso   1.00
O812   O     0.81910   0.17157   0.88523   0.00000  Uiso   1.00
Br813  Br    0.44009   0.33496   0.75610   0.00000  Uiso   1.00
Br814  Br    0.05991   0.66503   0.91058   0.00000  Uiso   1.00
Br815  Br    0.19160   0.43616   0.96794   0.00000  Uiso   1.00
Br816  Br    0.30840   0.56384   0.69873   0.00000  Uiso   1.00
C817   C     0.24810   0.40023   0.81820   0.00000  Uiso   1.00
C818   C     0.08977   0.45323   0.81177   0.00000  Uiso   1.00
C819   C     0.38330   0.49976   0.83158   0.00000  Uiso   1.00
C820   C     0.11670   0.50024   0.83508   0.00000  Uiso   1.00
C821   C     0.40179   0.45246   0.80762   0.00000  Uiso   1.00
C822   C     0.09821   0.54754   0.85905   0.00000  Uiso   1.00
C823   C     0.44886   0.45146   0.80884   0.00000  Uiso   1.00
C824   C     0.05114   0.54854   0.85783   0.00000  Uiso   1.00
C825   C     0.47637   0.49950   0.83263   0.00000  Uiso   1.00
C826   C     0.02363   0.50050   0.83404   0.00000  Uiso   1.00
C827   C     0.45677   0.54676   0.85508   0.00000  Uiso   1.00
C828   C     0.25191   0.59977   0.84847   0.00000  Uiso   1.00
C829   C     0.04323   0.45324   0.81159   0.00000  Uiso   1.00
C830   C     0.46981   0.40459   0.78751   0.00000  Uiso   1.00
C831   C     0.03019   0.59541   0.87916   0.00000  Uiso   1.00
C832   C     0.01611   0.40633   0.78903   0.00000  Uiso   1.00
C833   C     0.48389   0.59367   0.87764   0.00000  Uiso   1.00
C834   C     0.24123   0.34484   0.81123   0.00000  Uiso   1.00
C835   C     0.25877   0.65516   0.85544   0.00000  Uiso   1.00
C836   C     0.16476   0.49998   0.83385   0.00000  Uiso   1.00
C837   C     0.33524   0.50002   0.83282   0.00000  Uiso   1.00
C838   C     0.41023   0.54677   0.85490   0.00000  Uiso   1.00
Cu839  Cu    0.25501   0.50579   0.89479   0.00000  Uiso   1.00
Cu840  Cu    0.24500   0.49421   0.77187   0.00000  Uiso   1.00
H841   H     0.03090   0.36990   0.77225   0.00000  Uiso   1.00
H842   H     0.14752   0.60176   0.85081   0.00000  Uiso   1.00
H843   H     0.22992   0.62746   0.72673   0.00000  Uiso   1.00
H844   H     0.18602   0.62796   0.77153   0.00000  Uiso   1.00
H845   H     0.27008   0.37254   0.93993   0.00000  Uiso   1.00
H846   H     0.31398   0.37204   0.89513   0.00000  Uiso   1.00
H847   H     0.46910   0.63010   0.89442   0.00000  Uiso   1.00
H848   H     0.37288   0.59110   0.91467   0.00000  Uiso   1.00
H849   H     0.36787   0.60195   0.84282   0.00000  Uiso   1.00
H850   H     0.12712   0.40889   0.75201   0.00000  Uiso   1.00
H851   H     0.13213   0.39805   0.82385   0.00000  Uiso   1.00
H852   H     0.35181   0.41174   0.74527   0.00000  Uiso   1.00
H853   H     0.35247   0.39824   0.81584   0.00000  Uiso   1.00
H854   H     0.14819   0.58826   0.92139   0.00000  Uiso   1.00
N855   N     0.23745   0.48547   0.67951   0.00000  Uiso   1.00
N856   N     0.26256   0.51453   0.98716   0.00000  Uiso   1.00
N857   N     0.39041   0.59500   0.87752   0.00000  Uiso   1.00
N858   N     0.10959   0.40500   0.78916   0.00000  Uiso   1.00
N859   N     0.37243   0.40582   0.78243   0.00000  Uiso   1.00
N860   N     0.12757   0.59418   0.88423   0.00000  Uiso   1.00
N861   N     0.21175   0.65059   0.75842   0.00000  Uiso   1.00
N862   N     0.28825   0.34941   0.90825   0.00000  Uiso   1.00
O863   O     0.25326   0.42871   0.87326   0.00000  Uiso   1.00
O864   O     0.24675   0.57129   0.79341   0.00000  Uiso   1.00
O865   O     0.24480   0.41892   0.76945   0.00000  Uiso   1.00
O866   O     0.25520   0.58108   0.89721   0.00000  Uiso   1.00
O867   O     0.18936   0.50488   0.88524   0.00000  Uiso   1.00
O868   O     0.31065   0.49512   0.78143   0.00000  Uiso   1.00
O869   O     0.18090   0.49510   0.78143   0.00000  Uiso   1.00
O870   O     0.31910   0.50490   0.88523   0.00000  Uiso   1.00
Br871  Br    0.94009   0.33496   0.75610   0.00000  Uiso   1.00
Br872  Br    0.55991   0.66503   0.91058   0.00000  Uiso   1.00
Br873  Br    0.69160   0.43616   0.96794   0.00000  Uiso   1.00
Br874  Br    0.80840   0.56384   0.69873   0.00000  Uiso   1.00
C875   C     0.74810   0.40023   0.81820   0.00000  Uiso   1.00
C876   C     0.58977   0.45323   0.81177   0.00000  Uiso   1.00
C877   C     0.88330   0.49976   0.83158   0.00000  Uiso   1.00
C878   C     0.61670   0.50024   0.83508   0.00000  Uiso   1.00
C879   C     0.90179   0.45246   0.80762   0.00000  Uiso   1.00
C880   C     0.59821   0.54754   0.85905   0.00000  Uiso   1.00
C881   C     0.94886   0.45146   0.80884   0.00000  Uiso   1.00
C882   C     0.55114   0.54854   0.85783   0.00000  Uiso   1.00
C883   C     0.97637   0.49950   0.83263   0.00000  Uiso   1.00
C884   C     0.52363   0.50050   0.83404   0.00000  Uiso   1.00
C885   C     0.95677   0.54676   0.85508   0.00000  Uiso   1.00
C886   C     0.75191   0.59977   0.84847   0.00000  Uiso   1.00
C887   C     0.54323   0.45324   0.81159   0.00000  Uiso   1.00
C888   C     0.96981   0.40459   0.78751   0.00000  Uiso   1.00
C889   C     0.53019   0.59541   0.87916   0.00000  Uiso   1.00
C890   C     0.51611   0.40633   0.78903   0.00000  Uiso   1.00
C891   C     0.98389   0.59367   0.87764   0.00000  Uiso   1.00
C892   C     0.74123   0.34484   0.81123   0.00000  Uiso   1.00
C893   C     0.75877   0.65516   0.85544   0.00000  Uiso   1.00
C894   C     0.66476   0.49998   0.83385   0.00000  Uiso   1.00
C895   C     0.83524   0.50002   0.83282   0.00000  Uiso   1.00
C896   C     0.91023   0.54677   0.85490   0.00000  Uiso   1.00
Cu897  Cu    0.75501   0.50579   0.89479   0.00000  Uiso   1.00
Cu898  Cu    0.74500   0.49421   0.77187   0.00000  Uiso   1.00
H899   H     0.53090   0.36990   0.77225   0.00000  Uiso   1.00
H900   H     0.64752   0.60176   0.85081   0.00000  Uiso   1.00
H901   H     0.72992   0.62746   0.72673   0.00000  Uiso   1.00
H902   H     0.68602   0.62796   0.77153   0.00000  Uiso   1.00
H903   H     0.77008   0.37254   0.93993   0.00000  Uiso   1.00
H904   H     0.81398   0.37204   0.89513   0.00000  Uiso   1.00
H905   H     0.96910   0.63010   0.89442   0.00000  Uiso   1.00
H906   H     0.87288   0.59110   0.91467   0.00000  Uiso   1.00
H907   H     0.86787   0.60195   0.84282   0.00000  Uiso   1.00
H908   H     0.62712   0.40889   0.75201   0.00000  Uiso   1.00
H909   H     0.63213   0.39805   0.82385   0.00000  Uiso   1.00
H910   H     0.85181   0.41174   0.74527   0.00000  Uiso   1.00
H911   H     0.85247   0.39824   0.81584   0.00000  Uiso   1.00
H912   H     0.64819   0.58826   0.92139   0.00000  Uiso   1.00
N913   N     0.73745   0.48547   0.67951   0.00000  Uiso   1.00
N914   N     0.76256   0.51453   0.98716   0.00000  Uiso   1.00
N915   N     0.89041   0.59500   0.87752   0.00000  Uiso   1.00
N916   N     0.60959   0.40500   0.78916   0.00000  Uiso   1.00
N917   N     0.87243   0.40582   0.78243   0.00000  Uiso   1.00
N918   N     0.62757   0.59418   0.88423   0.00000  Uiso   1.00
N919   N     0.71175   0.65059   0.75842   0.00000  Uiso   1.00
N920   N     0.78825   0.34941   0.90825   0.00000  Uiso   1.00
O921   O     0.75326   0.42871   0.87326   0.00000  Uiso   1.00
O922   O     0.74675   0.57129   0.79341   0.00000  Uiso   1.00
O923   O     0.74480   0.41892   0.76945   0.00000  Uiso   1.00
O924   O     0.75520   0.58108   0.89721   0.00000  Uiso   1.00
O925   O     0.68936   0.50488   0.88524   0.00000  Uiso   1.00
O926   O     0.81065   0.49512   0.78143   0.00000  Uiso   1.00
O927   O     0.68090   0.49510   0.78143   0.00000  Uiso   1.00
O928   O     0.81910   0.50490   0.88523   0.00000  Uiso   1.00
Br929  Br    0.44009   0.66830   0.75610   0.00000  Uiso   1.00
Br930  Br    0.05991   0.99837   0.91058   0.00000  Uiso   1.00
Br931  Br    0.19160   0.76949   0.96794   0.00000  Uiso   1.00
Br932  Br    0.30840   0.89717   0.69873   0.00000  Uiso   1.00
C933   C     0.24810   0.73357   0.81820   0.00000  Uiso   1.00
C934   C     0.08977   0.78656   0.81177   0.00000  Uiso   1.00
C935   C     0.38330   0.83309   0.83158   0.00000  Uiso   1.00
C936   C     0.11670   0.83357   0.83508   0.00000  Uiso   1.00
C937   C     0.40179   0.78579   0.80762   0.00000  Uiso   1.00
C938   C     0.09821   0.88087   0.85905   0.00000  Uiso   1.00
C939   C     0.44886   0.78479   0.80884   0.00000  Uiso   1.00
C940   C     0.05114   0.88187   0.85783   0.00000  Uiso   1.00
C941   C     0.47637   0.83283   0.83263   0.00000  Uiso   1.00
C942   C     0.02363   0.83383   0.83404   0.00000  Uiso   1.00
C943   C     0.45677   0.88009   0.85508   0.00000  Uiso   1.00
C944   C     0.25191   0.93310   0.84847   0.00000  Uiso   1.00
C945   C     0.04323   0.78657   0.81159   0.00000  Uiso   1.00
C946   C     0.46981   0.73792   0.78751   0.00000  Uiso   1.00
C947   C     0.03019   0.92874   0.87916   0.00000  Uiso   1.00
C948   C     0.01611   0.73966   0.78903   0.00000  Uiso   1.00
C949   C     0.48389   0.92701   0.87764   0.00000  Uiso   1.00
C950   C     0.24123   0.67818   0.81123   0.00000  Uiso   1.00
C951   C     0.25877   0.98849   0.85544   0.00000  Uiso   1.00
C952   C     0.16476   0.83331   0.83385   0.00000  Uiso   1.00
C953   C     0.33524   0.83336   0.83282   0.00000  Uiso   1.00
C954   C     0.41023   0.88010   0.85490   0.00000  Uiso   1.00
Cu955  Cu    0.25501   0.83913   0.89479   0.00000  Uiso   1.00
Cu956  Cu    0.24500   0.82754   0.77187   0.00000  Uiso   1.00
H957   H     0.03090   0.70324   0.77225   0.00000  Uiso   1.00
H958   H     0.14752   0.93509   0.85081   0.00000  Uiso   1.00
H959   H     0.22992   0.96079   0.72673   0.00000  Uiso   1.00
H960   H     0.18602   0.96129   0.77153   0.00000  Uiso   1.00
H961   H     0.27008   0.70588   0.93993   0.00000  Uiso   1.00
H962   H     0.31398   0.70538   0.89513   0.00000  Uiso   1.00
H963   H     0.46910   0.96343   0.89442   0.00000  Uiso   1.00
H964   H     0.37288   0.92444   0.91467   0.00000  Uiso   1.00
H965   H     0.36787   0.93528   0.84282   0.00000  Uiso   1.00
H966   H     0.12712   0.74223   0.75201   0.00000  Uiso   1.00
H967   H     0.13213   0.73138   0.82385   0.00000  Uiso   1.00
H968   H     0.35181   0.74507   0.74527   0.00000  Uiso   1.00
H969   H     0.35247   0.73158   0.81584   0.00000  Uiso   1.00
H970   H     0.14819   0.92160   0.92139   0.00000  Uiso   1.00
N971   N     0.23745   0.81881   0.67951   0.00000  Uiso   1.00
N972   N     0.26256   0.84786   0.98716   0.00000  Uiso   1.00
N973   N     0.39041   0.92834   0.87752   0.00000  Uiso   1.00
N974   N     0.10959   0.73833   0.78916   0.00000  Uiso   1.00
N975   N     0.37243   0.73916   0.78243   0.00000  Uiso   1.00
N976   N     0.12757   0.92751   0.88423   0.00000  Uiso   1.00
N977   N     0.21175   0.98392   0.75842   0.00000  Uiso   1.00
N978   N     0.28825   0.68275   0.90825   0.00000  Uiso   1.00
O979   O     0.25326   0.76204   0.87326   0.00000  Uiso   1.00
O980   O     0.24675   0.90462   0.79341   0.00000  Uiso   1.00
O981   O     0.24480   0.75226   0.76945   0.00000  Uiso   1.00
O982   O     0.25520   0.91441   0.89721   0.00000  Uiso   1.00
O983   O     0.18936   0.83821   0.88524   0.00000  Uiso   1.00
O984   O     0.31065   0.82845   0.78143   0.00000  Uiso   1.00
O985   O     0.18090   0.82843   0.78143   0.00000  Uiso   1.00
O986   O     0.31910   0.83824   0.88523   0.00000  Uiso   1.00
Br987  Br    0.94009   0.66830   0.75610   0.00000  Uiso   1.00
Br988  Br    0.55991   0.99837   0.91058   0.00000  Uiso   1.00
Br989  Br    0.69160   0.76949   0.96794   0.00000  Uiso   1.00
Br990  Br    0.80840   0.89717   0.69873   0.00000  Uiso   1.00
C991   C     0.74810   0.73357   0.81820   0.00000  Uiso   1.00
C992   C     0.58977   0.78656   0.81177   0.00000  Uiso   1.00
C993   C     0.88330   0.83309   0.83158   0.00000  Uiso   1.00
C994   C     0.61670   0.83357   0.83508   0.00000  Uiso   1.00
C995   C     0.90179   0.78579   0.80762   0.00000  Uiso   1.00
C996   C     0.59821   0.88087   0.85905   0.00000  Uiso   1.00
C997   C     0.94886   0.78479   0.80884   0.00000  Uiso   1.00
C998   C     0.55114   0.88187   0.85783   0.00000  Uiso   1.00
C999   C     0.97637   0.83283   0.83263   0.00000  Uiso   1.00
C1000  C     0.52363   0.83383   0.83404   0.00000  Uiso   1.00
C1001  C     0.95677   0.88009   0.85508   0.00000  Uiso   1.00
C1002  C     0.75191   0.93310   0.84847   0.00000  Uiso   1.00
C1003  C     0.54323   0.78657   0.81159   0.00000  Uiso   1.00
C1004  C     0.96981   0.73792   0.78751   0.00000  Uiso   1.00
C1005  C     0.53019   0.92874   0.87916   0.00000  Uiso   1.00
C1006  C     0.51611   0.73966   0.78903   0.00000  Uiso   1.00
C1007  C     0.98389   0.92701   0.87764   0.00000  Uiso   1.00
C1008  C     0.74123   0.67818   0.81123   0.00000  Uiso   1.00
C1009  C     0.75877   0.98849   0.85544   0.00000  Uiso   1.00
C1010  C     0.66476   0.83331   0.83385   0.00000  Uiso   1.00
C1011  C     0.83524   0.83336   0.83282   0.00000  Uiso   1.00
C1012  C     0.91023   0.88010   0.85490   0.00000  Uiso   1.00
Cu1013 Cu    0.75501   0.83913   0.89479   0.00000  Uiso   1.00
Cu1014 Cu    0.74500   0.82754   0.77187   0.00000  Uiso   1.00
H1015  H     0.53090   0.70324   0.77225   0.00000  Uiso   1.00
H1016  H     0.64752   0.93509   0.85081   0.00000  Uiso   1.00
H1017  H     0.72992   0.96079   0.72673   0.00000  Uiso   1.00
H1018  H     0.68602   0.96129   0.77153   0.00000  Uiso   1.00
H1019  H     0.77008   0.70588   0.93993   0.00000  Uiso   1.00
H1020  H     0.81398   0.70538   0.89513   0.00000  Uiso   1.00
H1021  H     0.96910   0.96343   0.89442   0.00000  Uiso   1.00
H1022  H     0.87288   0.92444   0.91467   0.00000  Uiso   1.00
H1023  H     0.86787   0.93528   0.84282   0.00000  Uiso   1.00
H1024  H     0.62712   0.74223   0.75201   0.00000  Uiso   1.00
H1025  H     0.63213   0.73138   0.82385   0.00000  Uiso   1.00
H1026  H     0.85181   0.74507   0.74527   0.00000  Uiso   1.00
H1027  H     0.85247   0.73158   0.81584   0.00000  Uiso   1.00
H1028  H     0.64819   0.92160   0.92139   0.00000  Uiso   1.00
N1029  N     0.73745   0.81881   0.67951   0.00000  Uiso   1.00
N1030  N     0.76256   0.84786   0.98716   0.00000  Uiso   1.00
N1031  N     0.89041   0.92834   0.87752   0.00000  Uiso   1.00
N1032  N     0.60959   0.73833   0.78916   0.00000  Uiso   1.00
N1033  N     0.87243   0.73916   0.78243   0.00000  Uiso   1.00
N1034  N     0.62757   0.92751   0.88423   0.00000  Uiso   1.00
N1035  N     0.71175   0.98392   0.75842   0.00000  Uiso   1.00
N1036  N     0.78825   0.68275   0.90825   0.00000  Uiso   1.00
O1037  O     0.75326   0.76204   0.87326   0.00000  Uiso   1.00
O1038  O     0.74675   0.90462   0.79341   0.00000  Uiso   1.00
O1039  O     0.74480   0.75226   0.76945   0.00000  Uiso   1.00
O1040  O     0.75520   0.91441   0.89721   0.00000  Uiso   1.00
O1041  O     0.68936   0.83821   0.88524   0.00000  Uiso   1.00
O1042  O     0.81065   0.82845   0.78143   0.00000  Uiso   1.00
O1043  O     0.68090   0.82843   0.78143   0.00000  Uiso   1.00
O1044  O     0.81910   0.83824   0.88523   0.00000  Uiso   1.00
loop_
_geom_bond_atom_site_label_1
_geom_bond_atom_site_label_2
_geom_bond_distance
_geom_bond_site_symmetry_2
_ccdc_geom_bond_type
Br1    C18     1.932   .     S
Br2    C19     1.932   .     S
Br3    N391    1.882   .     S
Br4    N740    1.882   1_554 S
C5     C22     1.424   .     S
C5     O53     1.297   .     A
C5     O51     1.288   .     A
C6     C17     1.397   .     A
C6     C8      1.399   .     A
C6     N46     1.440   .     S
C7     C25     1.446   .     S
C7     C26     1.399   .     A
C7     C9      1.406   .     A
C8     C10     1.406   .     A
C8     C24     1.446   .     S
C9     C11     1.414   .     A
C9     N47     1.435   .     S
C10    C12     1.414   .     A
C10    N48     1.435   .     S
C11    C18     1.422   .     A
C11    C13     1.430   .     A
C12    C19     1.422   .     A
C12    C14     1.430   .     A
C13    C15     1.415   .     A
C13    C72     1.415   .     S
C14    C17     1.415   .     A
C14    C71     1.415   1_455 S
C15    C21     1.398   .     A
C15    C26     1.397   .     A
C16    C23     1.424   .     S
C16    O54     1.297   .     A
C16    O52     1.288   .     A
C17    C20     1.398   .     A
C18    C78     1.386   .     S
C19    C79     1.386   1_455 S
C20    H29     1.083   .     S
C20    C76     1.386   1_455 S
C21    H35     1.083   .     S
C21    C77     1.386   .     S
C22    C255    1.362   1_545 S
C22    N281    1.442   1_545 S
C23    C138    1.362   .     S
C23    N166    1.442   .     S
C24    O55     1.297   .     A
C24    O57     1.297   .     A
C25    O56     1.297   .     A
C25    O58     1.297   .     A
C26    N45     1.440   .     S
Cu27   O54     1.961   .     S
Cu27   O51     1.965   .     S
Cu27   O55     1.964   .     S
Cu27   Cu28    2.706   .     S
Cu27   N44     2.033   .     S
Cu27   O58     1.956   .     S
Cu28   O53     1.961   .     S
Cu28   N43     2.033   .     S
Cu28   O52     1.965   .     S
Cu28   O57     1.956   .     S
Cu28   O56     1.964   .     S
H30    N48     1.045   .     S
H31    N49     1.044   .     S
H32    N49     1.045   .     S
H33    N50     1.044   .     S
H34    N50     1.045   .     S
H36    N45     1.045   .     S
H37    N45     1.046   .     S
H38    N46     1.045   .     S
H39    N46     1.046   .     S
H40    N47     1.045   .     S
H41    N47     1.045   .     S
H42    N48     1.045   .     S
N43    Br699   1.882   1_554 S
N43    N740    1.295   1_554 S
N44    N391    1.295   .     S
N44    Br352   1.882   .     S
N49    C138    1.442   .     S
N50    C255    1.442   1_545 S
Br59   C76     1.932   .     S
Br60   C77     1.932   .     S
Br61   N449    1.882   .     S
Br62   N798    1.882   1_554 S
C63    C80     1.424   .     S
C63    O111    1.297   .     A
C63    O109    1.288   .     A
C64    C75     1.397   .     A
C64    C66     1.399   .     A
C64    N104    1.440   .     S
C65    C83     1.446   .     S
C65    C84     1.399   .     A
C65    C67     1.406   .     A
C66    C68     1.406   .     A
C66    C82     1.446   .     S
C67    C69     1.414   .     A
C67    N105    1.435   .     S
C68    C70     1.414   .     A
C68    N106    1.435   .     S
C69    C76     1.422   .     A
C69    C71     1.430   .     A
C70    C77     1.422   .     A
C70    C72     1.430   .     A
C71    C73     1.415   .     A
C71    C14     1.415   1_655 S
C72    C75     1.415   .     A
C73    C79     1.398   .     A
C73    C84     1.397   .     A
C74    C81     1.424   .     S
C74    O112    1.297   .     A
C74    O110    1.288   .     A
C75    C78     1.398   .     A
C76    C20     1.386   1_655 S
C78    H87     1.083   .     S
C79    H93     1.083   .     S
C79    C19     1.386   1_655 S
C80    C313    1.362   1_545 S
C80    N339    1.442   1_545 S
C81    C196    1.362   .     S
C81    N224    1.442   .     S
C82    O113    1.297   .     A
C82    O115    1.297   .     A
C83    O114    1.297   .     A
C83    O116    1.297   .     A
C84    N103    1.440   .     S
Cu85   O112    1.961   .     S
Cu85   O109    1.965   .     S
Cu85   O113    1.964   .     S
Cu85   Cu86    2.706   .     S
Cu85   N102    2.033   .     S
Cu85   O116    1.956   .     S
Cu86   O111    1.961   .     S
Cu86   N101    2.033   .     S
Cu86   O110    1.965   .     S
Cu86   O115    1.956   .     S
Cu86   O114    1.964   .     S
H88    N106    1.045   .     S
H89    N107    1.044   .     S
H90    N107    1.045   .     S
H91    N108    1.044   .     S
H92    N108    1.045   .     S
H94    N103    1.045   .     S
H95    N103    1.046   .     S
H96    N104    1.045   .     S
H97    N104    1.046   .     S
H98    N105    1.045   .     S
H99    N105    1.045   .     S
H100   N106    1.045   .     S
N101   Br757   1.882   1_554 S
N101   N798    1.295   1_554 S
N102   N449    1.295   .     S
N102   Br410   1.882   .     S
N107   C196    1.442   .     S
N108   C313    1.442   1_545 S
Br117  C134    1.932   .     S
Br118  C135    1.932   .     S
Br119  N507    1.882   .     S
Br120  N856    1.882   1_554 S
C121   C138    1.424   .     S
C121   O169    1.297   .     A
C121   O167    1.288   .     A
C122   C133    1.397   .     A
C122   C124    1.399   .     A
C122   N162    1.440   .     S
C123   C141    1.446   .     S
C123   C142    1.399   .     A
C123   C125    1.406   .     A
C124   C126    1.406   .     A
C124   C140    1.446   .     S
C125   C127    1.414   .     A
C125   N163    1.435   .     S
C126   C128    1.414   .     A
C126   N164    1.435   .     S
C127   C134    1.422   .     A
C127   C129    1.430   .     A
C128   C135    1.422   .     A
C128   C130    1.430   .     A
C129   C131    1.415   .     A
C129   C188    1.415   .     S
C130   C133    1.415   .     A
C130   C187    1.415   1_455 S
C131   C137    1.398   .     A
C131   C142    1.397   .     A
C132   C139    1.424   .     S
C132   O170    1.297   .     A
C132   O168    1.288   .     A
C133   C136    1.398   .     A
C134   C194    1.386   .     S
C135   C195    1.386   1_455 S
C136   H145    1.083   .     S
C136   C192    1.386   1_455 S
C137   H151    1.083   .     S
C137   C193    1.386   .     S
C139   C254    1.362   .     S
C139   N282    1.442   .     S
C140   O171    1.297   .     A
C140   O173    1.297   .     A
C141   O172    1.297   .     A
C141   O174    1.297   .     A
C142   N161    1.440   .     S
Cu143  O170    1.961   .     S
Cu143  O167    1.965   .     S
Cu143  O171    1.964   .     S
Cu143  Cu144   2.706   .     S
Cu143  N160    2.033   .     S
Cu143  O174    1.956   .     S
Cu144  O169    1.961   .     S
Cu144  N159    2.033   .     S
Cu144  O168    1.965   .     S
Cu144  O173    1.956   .     S
Cu144  O172    1.964   .     S
H146   N164    1.045   .     S
H147   N165    1.044   .     S
H148   N165    1.045   .     S
H149   N166    1.044   .     S
H150   N166    1.045   .     S
H152   N161    1.045   .     S
H153   N161    1.046   .     S
H154   N162    1.045   .     S
H155   N162    1.046   .     S
H156   N163    1.045   .     S
H157   N163    1.045   .     S
H158   N164    1.045   .     S
N159   Br815   1.882   1_554 S
N159   N856    1.295   1_554 S
N160   N507    1.295   .     S
N160   Br468   1.882   .     S
N165   C254    1.442   .     S
Br175  C192    1.932   .     S
Br176  C193    1.932   .     S
Br177  N565    1.882   .     S
Br178  N914    1.882   1_554 S
C179   C196    1.424   .     S
C179   O227    1.297   .     A
C179   O225    1.288   .     A
C180   C191    1.397   .     A
C180   C182    1.399   .     A
C180   N220    1.440   .     S
C181   C199    1.446   .     S
C181   C200    1.399   .     A
C181   C183    1.406   .     A
C182   C184    1.406   .     A
C182   C198    1.446   .     S
C183   C185    1.414   .     A
C183   N221    1.435   .     S
C184   C186    1.414   .     A
C184   N222    1.435   .     S
C185   C192    1.422   .     A
C185   C187    1.430   .     A
C186   C193    1.422   .     A
C186   C188    1.430   .     A
C187   C189    1.415   .     A
C187   C130    1.415   1_655 S
C188   C191    1.415   .     A
C189   C195    1.398   .     A
C189   C200    1.397   .     A
C190   C197    1.424   .     S
C190   O228    1.297   .     A
C190   O226    1.288   .     A
C191   C194    1.398   .     A
C192   C136    1.386   1_655 S
C194   H203    1.083   .     S
C195   H209    1.083   .     S
C195   C135    1.386   1_655 S
C197   C312    1.362   .     S
C197   N340    1.442   .     S
C198   O229    1.297   .     A
C198   O231    1.297   .     A
C199   O230    1.297   .     A
C199   O232    1.297   .     A
C200   N219    1.440   .     S
Cu201  O228    1.961   .     S
Cu201  O225    1.965   .     S
Cu201  O229    1.964   .     S
Cu201  Cu202   2.706   .     S
Cu201  N218    2.033   .     S
Cu201  O232    1.956   .     S
Cu202  O227    1.961   .     S
Cu202  N217    2.033   .     S
Cu202  O226    1.965   .     S
Cu202  O231    1.956   .     S
Cu202  O230    1.964   .     S
H204   N222    1.045   .     S
H205   N223    1.044   .     S
H206   N223    1.045   .     S
H207   N224    1.044   .     S
H208   N224    1.045   .     S
H210   N219    1.045   .     S
H211   N219    1.046   .     S
H212   N220    1.045   .     S
H213   N220    1.046   .     S
H214   N221    1.045   .     S
H215   N221    1.045   .     S
H216   N222    1.045   .     S
N217   Br873   1.882   1_554 S
N217   N914    1.295   1_554 S
N218   N565    1.295   .     S
N218   Br526   1.882   .     S
N223   C312    1.442   .     S
Br233  C250    1.932   .     S
Br234  C251    1.932   .     S
Br235  N623    1.882   .     S
Br236  N972    1.882   1_554 S
C237   C254    1.424   .     S
C237   O285    1.297   .     A
C237   O283    1.288   .     A
C238   C249    1.397   .     A
C238   C240    1.399   .     A
C238   N278    1.440   .     S
C239   C257    1.446   .     S
C239   C258    1.399   .     A
C239   C241    1.406   .     A
C240   C242    1.406   .     A
C240   C256    1.446   .     S
C241   C243    1.414   .     A
C241   N279    1.435   .     S
C242   C244    1.414   .     A
C242   N280    1.435   .     S
C243   C250    1.422   .     A
C243   C245    1.430   .     A
C244   C251    1.422   .     A
C244   C246    1.430   .     A
C245   C247    1.415   .     A
C245   C304    1.415   .     S
C246   C249    1.415   .     A
C246   C303    1.415   1_455 S
C247   C253    1.398   .     A
C247   C258    1.397   .     A
C248   C255    1.424   .     S
C248   O286    1.297   .     A
C248   O284    1.288   .     A
C249   C252    1.398   .     A
C250   C310    1.386   .     S
C251   C311    1.386   1_455 S
C252   H261    1.083   .     S
C252   C308    1.386   1_455 S
C253   H267    1.083   .     S
C253   C309    1.386   .     S
C255   C22     1.362   1_565 S
C255   N50     1.442   1_565 S
C256   O287    1.297   .     A
C256   O289    1.297   .     A
C257   O288    1.297   .     A
C257   O290    1.297   .     A
C258   N277    1.440   .     S
Cu259  O286    1.961   .     S
Cu259  O283    1.965   .     S
Cu259  O287    1.964   .     S
Cu259  Cu260   2.706   .     S
Cu259  N276    2.033   .     S
Cu259  O290    1.956   .     S
Cu260  O285    1.961   .     S
Cu260  N275    2.033   .     S
Cu260  O284    1.965   .     S
Cu260  O289    1.956   .     S
Cu260  O288    1.964   .     S
H262   N280    1.045   .     S
H263   N281    1.044   .     S
H264   N281    1.045   .     S
H265   N282    1.044   .     S
H266   N282    1.045   .     S
H268   N277    1.045   .     S
H269   N277    1.046   .     S
H270   N278    1.045   .     S
H271   N278    1.046   .     S
H272   N279    1.045   .     S
H273   N279    1.045   .     S
H274   N280    1.045   .     S
N275   Br931   1.882   1_554 S
N275   N972    1.295   1_554 S
N276   N623    1.295   .     S
N276   Br584   1.882   .     S
N281   C22     1.442   1_565 S
Br291  C308    1.932   .     S
Br292  C309    1.932   .     S
Br293  N681    1.882   .     S
Br294  N1030   1.882   1_554 S
C295   C312    1.424   .     S
C295   O343    1.297   .     A
C295   O341    1.288   .     A
C296   C307    1.397   .     A
C296   C298    1.399   .     A
C296   N336    1.440   .     S
C297   C315    1.446   .     S
C297   C316    1.399   .     A
C297   C299    1.406   .     A
C298   C300    1.406   .     A
C298   C314    1.446   .     S
C299   C301    1.414   .     A
C299   N337    1.435   .     S
C300   C302    1.414   .     A
C300   N338    1.435   .     S
C301   C308    1.422   .     A
C301   C303    1.430   .     A
C302   C309    1.422   .     A
C302   C304    1.430   .     A
C303   C305    1.415   .     A
C303   C246    1.415   1_655 S
C304   C307    1.415   .     A
C305   C311    1.398   .     A
C305   C316    1.397   .     A
C306   C313    1.424   .     S
C306   O344    1.297   .     A
C306   O342    1.288   .     A
C307   C310    1.398   .     A
C308   C252    1.386   1_655 S
C310   H319    1.083   .     S
C311   H325    1.083   .     S
C311   C251    1.386   1_655 S
C313   C80     1.362   1_565 S
C313   N108    1.442   1_565 S
C314   O345    1.297   .     A
C314   O347    1.297   .     A
C315   O346    1.297   .     A
C315   O348    1.297   .     A
C316   N335    1.440   .     S
Cu317  O344    1.961   .     S
Cu317  O341    1.965   .     S
Cu317  O345    1.964   .     S
Cu317  Cu318   2.706   .     S
Cu317  N334    2.033   .     S
Cu317  O348    1.956   .     S
Cu318  O343    1.961   .     S
Cu318  N333    2.033   .     S
Cu318  O342    1.965   .     S
Cu318  O347    1.956   .     S
Cu318  O346    1.964   .     S
H320   N338    1.045   .     S
H321   N339    1.044   .     S
H322   N339    1.045   .     S
H323   N340    1.044   .     S
H324   N340    1.045   .     S
H326   N335    1.045   .     S
H327   N335    1.046   .     S
H328   N336    1.045   .     S
H329   N336    1.046   .     S
H330   N337    1.045   .     S
H331   N337    1.045   .     S
H332   N338    1.045   .     S
N333   Br989   1.882   1_554 S
N333   N1030   1.295   1_554 S
N334   N681    1.295   .     S
N334   Br642   1.882   .     S
N339   C80     1.442   1_565 S
Br349  C366    1.932   .     S
Br350  C367    1.932   .     S
Br351  N739    1.882   .     S
C353   C370    1.424   .     S
C353   O401    1.297   .     A
C353   O399    1.288   .     A
C354   C365    1.397   .     A
C354   C356    1.399   .     A
C354   N394    1.440   .     S
C355   C373    1.446   .     S
C355   C374    1.399   .     A
C355   C357    1.406   .     A
C356   C358    1.406   .     A
C356   C372    1.446   .     S
C357   C359    1.414   .     A
C357   N395    1.435   .     S
C358   C360    1.414   .     A
C358   N396    1.435   .     S
C359   C366    1.422   .     A
C359   C361    1.430   .     A
C360   C367    1.422   .     A
C360   C362    1.430   .     A
C361   C363    1.415   .     A
C361   C420    1.415   .     S
C362   C365    1.415   .     A
C362   C419    1.415   1_455 S
C363   C369    1.398   .     A
C363   C374    1.397   .     A
C364   C371    1.424   .     S
C364   O402    1.297   .     A
C364   O400    1.288   .     A
C365   C368    1.398   .     A
C366   C426    1.386   .     S
C367   C427    1.386   1_455 S
C368   H377    1.083   .     S
C368   C424    1.386   1_455 S
C369   H383    1.083   .     S
C369   C425    1.386   .     S
C370   C603    1.362   1_545 S
C370   N629    1.442   1_545 S
C371   C486    1.362   .     S
C371   N514    1.442   .     S
C372   O403    1.297   .     A
C372   O405    1.297   .     A
C373   O404    1.297   .     A
C373   O406    1.297   .     A
C374   N393    1.440   .     S
Cu375  O402    1.961   .     S
Cu375  O399    1.965   .     S
Cu375  O403    1.964   .     S
Cu375  Cu376   2.706   .     S
Cu375  N392    2.033   .     S
Cu375  O406    1.956   .     S
Cu376  O401    1.961   .     S
Cu376  N391    2.033   .     S
Cu376  O400    1.965   .     S
Cu376  O405    1.956   .     S
Cu376  O404    1.964   .     S
H378   N396    1.045   .     S
H379   N397    1.044   .     S
H380   N397    1.045   .     S
H381   N398    1.044   .     S
H382   N398    1.045   .     S
H384   N393    1.045   .     S
H385   N393    1.046   .     S
H386   N394    1.045   .     S
H387   N394    1.046   .     S
H388   N395    1.045   .     S
H389   N395    1.045   .     S
H390   N396    1.045   .     S
N392   N739    1.295   .     S
N392   Br700   1.882   .     S
N397   C486    1.442   .     S
N398   C603    1.442   1_545 S
Br407  C424    1.932   .     S
Br408  C425    1.932   .     S
Br409  N797    1.882   .     S
C411   C428    1.424   .     S
C411   O459    1.297   .     A
C411   O457    1.288   .     A
C412   C423    1.397   .     A
C412   C414    1.399   .     A
C412   N452    1.440   .     S
C413   C431    1.446   .     S
C413   C432    1.399   .     A
C413   C415    1.406   .     A
C414   C416    1.406   .     A
C414   C430    1.446   .     S
C415   C417    1.414   .     A
C415   N453    1.435   .     S
C416   C418    1.414   .     A
C416   N454    1.435   .     S
C417   C424    1.422   .     A
C417   C419    1.430   .     A
C418   C425    1.422   .     A
C418   C420    1.430   .     A
C419   C421    1.415   .     A
C419   C362    1.415   1_655 S
C420   C423    1.415   .     A
C421   C427    1.398   .     A
C421   C432    1.397   .     A
C422   C429    1.424   .     S
C422   O460    1.297   .     A
C422   O458    1.288   .     A
C423   C426    1.398   .     A
C424   C368    1.386   1_655 S
C426   H435    1.083   .     S
C427   H441    1.083   .     S
C427   C367    1.386   1_655 S
C428   C661    1.362   1_545 S
C428   N687    1.442   1_545 S
C429   C544    1.362   .     S
C429   N572    1.442   .     S
C430   O461    1.297   .     A
C430   O463    1.297   .     A
C431   O462    1.297   .     A
C431   O464    1.297   .     A
C432   N451    1.440   .     S
Cu433  O460    1.961   .     S
Cu433  O457    1.965   .     S
Cu433  O461    1.964   .     S
Cu433  Cu434   2.706   .     S
Cu433  N450    2.033   .     S
Cu433  O464    1.956   .     S
Cu434  O459    1.961   .     S
Cu434  N449    2.033   .     S
Cu434  O458    1.965   .     S
Cu434  O463    1.956   .     S
Cu434  O462    1.964   .     S
H436   N454    1.045   .     S
H437   N455    1.044   .     S
H438   N455    1.045   .     S
H439   N456    1.044   .     S
H440   N456    1.045   .     S
H442   N451    1.045   .     S
H443   N451    1.046   .     S
H444   N452    1.045   .     S
H445   N452    1.046   .     S
H446   N453    1.045   .     S
H447   N453    1.045   .     S
H448   N454    1.045   .     S
N450   N797    1.295   .     S
N450   Br758   1.882   .     S
N455   C544    1.442   .     S
N456   C661    1.442   1_545 S
Br465  C482    1.932   .     S
Br466  C483    1.932   .     S
Br467  N855    1.882   .     S
C469   C486    1.424   .     S
C469   O517    1.297   .     A
C469   O515    1.288   .     A
C470   C481    1.397   .     A
C470   C472    1.399   .     A
C470   N510    1.440   .     S
C471   C489    1.446   .     S
C471   C490    1.399   .     A
C471   C473    1.406   .     A
C472   C474    1.406   .     A
C472   C488    1.446   .     S
C473   C475    1.414   .     A
C473   N511    1.435   .     S
C474   C476    1.414   .     A
C474   N512    1.435   .     S
C475   C482    1.422   .     A
C475   C477    1.430   .     A
C476   C483    1.422   .     A
C476   C478    1.430   .     A
C477   C479    1.415   .     A
C477   C536    1.415   .     S
C478   C481    1.415   .     A
C478   C535    1.415   1_455 S
C479   C485    1.398   .     A
C479   C490    1.397   .     A
C480   C487    1.424   .     S
C480   O518    1.297   .     A
C480   O516    1.288   .     A
C481   C484    1.398   .     A
C482   C542    1.386   .     S
C483   C543    1.386   1_455 S
C484   H493    1.083   .     S
C484   C540    1.386   1_455 S
C485   H499    1.083   .     S
C485   C541    1.386   .     S
C487   C602    1.362   .     S
C487   N630    1.442   .     S
C488   O519    1.297   .     A
C488   O521    1.297   .     A
C489   O520    1.297   .     A
C489   O522    1.297   .     A
C490   N509    1.440   .     S
Cu491  O518    1.961   .     S
Cu491  O515    1.965   .     S
Cu491  O519    1.964   .     S
Cu491  Cu492   2.706   .     S
Cu491  N508    2.033   .     S
Cu491  O522    1.956   .     S
Cu492  O517    1.961   .     S
Cu492  N507    2.033   .     S
Cu492  O516    1.965   .     S
Cu492  O521    1.956   .     S
Cu492  O520    1.964   .     S
H494   N512    1.045   .     S
H495   N513    1.044   .     S
H496   N513    1.045   .     S
H497   N514    1.044   .     S
H498   N514    1.045   .     S
H500   N509    1.045   .     S
H501   N509    1.046   .     S
H502   N510    1.045   .     S
H503   N510    1.046   .     S
H504   N511    1.045   .     S
H505   N511    1.045   .     S
H506   N512    1.045   .     S
N508   N855    1.295   .     S
N508   Br816   1.882   .     S
N513   C602    1.442   .     S
Br523  C540    1.932   .     S
Br524  C541    1.932   .     S
Br525  N913    1.882   .     S
C527   C544    1.424   .     S
C527   O575    1.297   .     A
C527   O573    1.288   .     A
C528   C539    1.397   .     A
C528   C530    1.399   .     A
C528   N568    1.440   .     S
C529   C547    1.446   .     S
C529   C548    1.399   .     A
C529   C531    1.406   .     A
C530   C532    1.406   .     A
C530   C546    1.446   .     S
C531   C533    1.414   .     A
C531   N569    1.435   .     S
C532   C534    1.414   .     A
C532   N570    1.435   .     S
C533   C540    1.422   .     A
C533   C535    1.430   .     A
C534   C541    1.422   .     A
C534   C536    1.430   .     A
C535   C537    1.415   .     A
C535   C478    1.415   1_655 S
C536   C539    1.415   .     A
C537   C543    1.398   .     A
C537   C548    1.397   .     A
C538   C545    1.424   .     S
C538   O576    1.297   .     A
C538   O574    1.288   .     A
C539   C542    1.398   .     A
C540   C484    1.386   1_655 S
C542   H551    1.083   .     S
C543   H557    1.083   .     S
C543   C483    1.386   1_655 S
C545   C660    1.362   .     S
C545   N688    1.442   .     S
C546   O577    1.297   .     A
C546   O579    1.297   .     A
C547   O578    1.297   .     A
C547   O580    1.297   .     A
C548   N567    1.440   .     S
Cu549  O576    1.961   .     S
Cu549  O573    1.965   .     S
Cu549  O577    1.964   .     S
Cu549  Cu550   2.706   .     S
Cu549  N566    2.033   .     S
Cu549  O580    1.956   .     S
Cu550  O575    1.961   .     S
Cu550  N565    2.033   .     S
Cu550  O574    1.965   .     S
Cu550  O579    1.956   .     S
Cu550  O578    1.964   .     S
H552   N570    1.045   .     S
H553   N571    1.044   .     S
H554   N571    1.045   .     S
H555   N572    1.044   .     S
H556   N572    1.045   .     S
H558   N567    1.045   .     S
H559   N567    1.046   .     S
H560   N568    1.045   .     S
H561   N568    1.046   .     S
H562   N569    1.045   .     S
H563   N569    1.045   .     S
H564   N570    1.045   .     S
N566   N913    1.295   .     S
N566   Br874   1.882   .     S
N571   C660    1.442   .     S
Br581  C598    1.932   .     S
Br582  C599    1.932   .     S
Br583  N971    1.882   .     S
C585   C602    1.424   .     S
C585   O633    1.297   .     A
C585   O631    1.288   .     A
C586   C597    1.397   .     A
C586   C588    1.399   .     A
C586   N626    1.440   .     S
C587   C605    1.446   .     S
C587   C606    1.399   .     A
C587   C589    1.406   .     A
C588   C590    1.406   .     A
C588   C604    1.446   .     S
C589   C591    1.414   .     A
C589   N627    1.435   .     S
C590   C592    1.414   .     A
C590   N628    1.435   .     S
C591   C598    1.422   .     A
C591   C593    1.430   .     A
C592   C599    1.422   .     A
C592   C594    1.430   .     A
C593   C595    1.415   .     A
C593   C652    1.415   .     S
C594   C597    1.415   .     A
C594   C651    1.415   1_455 S
C595   C601    1.398   .     A
C595   C606    1.397   .     A
C596   C603    1.424   .     S
C596   O634    1.297   .     A
C596   O632    1.288   .     A
C597   C600    1.398   .     A
C598   C658    1.386   .     S
C599   C659    1.386   1_455 S
C600   H609    1.083   .     S
C600   C656    1.386   1_455 S
C601   H615    1.083   .     S
C601   C657    1.386   .     S
C603   C370    1.362   1_565 S
C603   N398    1.442   1_565 S
C604   O635    1.297   .     A
C604   O637    1.297   .     A
C605   O636    1.297   .     A
C605   O638    1.297   .     A
C606   N625    1.440   .     S
Cu607  O634    1.961   .     S
Cu607  O631    1.965   .     S
Cu607  O635    1.964   .     S
Cu607  Cu608   2.706   .     S
Cu607  N624    2.033   .     S
Cu607  O638    1.956   .     S
Cu608  O633    1.961   .     S
Cu608  N623    2.033   .     S
Cu608  O632    1.965   .     S
Cu608  O637    1.956   .     S
Cu608  O636    1.964   .     S
H610   N628    1.045   .     S
H611   N629    1.044   .     S
H612   N629    1.045   .     S
H613   N630    1.044   .     S
H614   N630    1.045   .     S
H616   N625    1.045   .     S
H617   N625    1.046   .     S
H618   N626    1.045   .     S
H619   N626    1.046   .     S
H620   N627    1.045   .     S
H621   N627    1.045   .     S
H622   N628    1.045   .     S
N624   N971    1.295   .     S
N624   Br932   1.882   .     S
N629   C370    1.442   1_565 S
Br639  C656    1.932   .     S
Br640  C657    1.932   .     S
Br641  N1029   1.882   .     S
C643   C660    1.424   .     S
C643   O691    1.297   .     A
C643   O689    1.288   .     A
C644   C655    1.397   .     A
C644   C646    1.399   .     A
C644   N684    1.440   .     S
C645   C663    1.446   .     S
C645   C664    1.399   .     A
C645   C647    1.406   .     A
C646   C648    1.406   .     A
C646   C662    1.446   .     S
C647   C649    1.414   .     A
C647   N685    1.435   .     S
C648   C650    1.414   .     A
C648   N686    1.435   .     S
C649   C656    1.422   .     A
C649   C651    1.430   .     A
C650   C657    1.422   .     A
C650   C652    1.430   .     A
C651   C653    1.415   .     A
C651   C594    1.415   1_655 S
C652   C655    1.415   .     A
C653   C659    1.398   .     A
C653   C664    1.397   .     A
C654   C661    1.424   .     S
C654   O692    1.297   .     A
C654   O690    1.288   .     A
C655   C658    1.398   .     A
C656   C600    1.386   1_655 S
C658   H667    1.083   .     S
C659   H673    1.083   .     S
C659   C599    1.386   1_655 S
C661   C428    1.362   1_565 S
C661   N456    1.442   1_565 S
C662   O693    1.297   .     A
C662   O695    1.297   .     A
C663   O694    1.297   .     A
C663   O696    1.297   .     A
C664   N683    1.440   .     S
Cu665  O692    1.961   .     S
Cu665  O689    1.965   .     S
Cu665  O693    1.964   .     S
Cu665  Cu666   2.706   .     S
Cu665  N682    2.033   .     S
Cu665  O696    1.956   .     S
Cu666  O691    1.961   .     S
Cu666  N681    2.033   .     S
Cu666  O690    1.965   .     S
Cu666  O695    1.956   .     S
Cu666  O694    1.964   .     S
H668   N686    1.045   .     S
H669   N687    1.044   .     S
H670   N687    1.045   .     S
H671   N688    1.044   .     S
H672   N688    1.045   .     S
H674   N683    1.045   .     S
H675   N683    1.046   .     S
H676   N684    1.045   .     S
H677   N684    1.046   .     S
H678   N685    1.045   .     S
H679   N685    1.045   .     S
H680   N686    1.045   .     S
N682   N1029   1.295   .     S
N682   Br990   1.882   .     S
N687   C428    1.442   1_565 S
Br697  C714    1.932   .     S
Br698  C715    1.932   .     S
Br699  N43     1.882   1_556 S
C701   C718    1.424   .     S
C701   O749    1.297   .     A
C701   O747    1.288   .     A
C702   C713    1.397   .     A
C702   C704    1.399   .     A
C702   N742    1.440   .     S
C703   C721    1.446   .     S
C703   C722    1.399   .     A
C703   C705    1.406   .     A
C704   C706    1.406   .     A
C704   C720    1.446   .     S
C705   C707    1.414   .     A
C705   N743    1.435   .     S
C706   C708    1.414   .     A
C706   N744    1.435   .     S
C707   C714    1.422   .     A
C707   C709    1.430   .     A
C708   C715    1.422   .     A
C708   C710    1.430   .     A
C709   C711    1.415   .     A
C709   C768    1.415   .     S
C710   C713    1.415   .     A
C710   C767    1.415   1_455 S
C711   C717    1.398   .     A
C711   C722    1.397   .     A
C712   C719    1.424   .     S
C712   O750    1.297   .     A
C712   O748    1.288   .     A
C713   C716    1.398   .     A
C714   C774    1.386   .     S
C715   C775    1.386   1_455 S
C716   H725    1.083   .     S
C716   C772    1.386   1_455 S
C717   H731    1.083   .     S
C717   C773    1.386   .     S
C718   C951    1.362   1_545 S
C718   N977    1.442   1_545 S
C719   C834    1.362   .     S
C719   N862    1.442   .     S
C720   O751    1.297   .     A
C720   O753    1.297   .     A
C721   O752    1.297   .     A
C721   O754    1.297   .     A
C722   N741    1.440   .     S
Cu723  O750    1.961   .     S
Cu723  O747    1.965   .     S
Cu723  O751    1.964   .     S
Cu723  Cu724   2.706   .     S
Cu723  N740    2.033   .     S
Cu723  O754    1.956   .     S
Cu724  O749    1.961   .     S
Cu724  N739    2.033   .     S
Cu724  O748    1.965   .     S
Cu724  O753    1.956   .     S
Cu724  O752    1.964   .     S
H726   N744    1.045   .     S
H727   N745    1.044   .     S
H728   N745    1.045   .     S
H729   N746    1.044   .     S
H730   N746    1.045   .     S
H732   N741    1.045   .     S
H733   N741    1.046   .     S
H734   N742    1.045   .     S
H735   N742    1.046   .     S
H736   N743    1.045   .     S
H737   N743    1.045   .     S
H738   N744    1.045   .     S
N740   N43     1.295   1_556 S
N740   Br4     1.882   1_556 S
N745   C834    1.442   .     S
N746   C951    1.442   1_545 S
Br755  C772    1.932   .     S
Br756  C773    1.932   .     S
Br757  N101    1.882   1_556 S
C759   C776    1.424   .     S
C759   O807    1.297   .     A
C759   O805    1.288   .     A
C760   C771    1.397   .     A
C760   C762    1.399   .     A
C760   N800    1.440   .     S
C761   C779    1.446   .     S
C761   C780    1.399   .     A
C761   C763    1.406   .     A
C762   C764    1.406   .     A
C762   C778    1.446   .     S
C763   C765    1.414   .     A
C763   N801    1.435   .     S
C764   C766    1.414   .     A
C764   N802    1.435   .     S
C765   C772    1.422   .     A
C765   C767    1.430   .     A
C766   C773    1.422   .     A
C766   C768    1.430   .     A
C767   C769    1.415   .     A
C767   C710    1.415   1_655 S
C768   C771    1.415   .     A
C769   C775    1.398   .     A
C769   C780    1.397   .     A
C770   C777    1.424   .     S
C770   O808    1.297   .     A
C770   O806    1.288   .     A
C771   C774    1.398   .     A
C772   C716    1.386   1_655 S
C774   H783    1.083   .     S
C775   H789    1.083   .     S
C775   C715    1.386   1_655 S
C776   C1009   1.362   1_545 S
C776   N1035   1.442   1_545 S
C777   C892    1.362   .     S
C777   N920    1.442   .     S
C778   O809    1.297   .     A
C778   O811    1.297   .     A
C779   O810    1.297   .     A
C779   O812    1.297   .     A
C780   N799    1.440   .     S
Cu781  O808    1.961   .     S
Cu781  O805    1.965   .     S
Cu781  O809    1.964   .     S
Cu781  Cu782   2.706   .     S
Cu781  N798    2.033   .     S
Cu781  O812    1.956   .     S
Cu782  O807    1.961   .     S
Cu782  N797    2.033   .     S
Cu782  O806    1.965   .     S
Cu782  O811    1.956   .     S
Cu782  O810    1.964   .     S
H784   N802    1.045   .     S
H785   N803    1.044   .     S
H786   N803    1.045   .     S
H787   N804    1.044   .     S
H788   N804    1.045   .     S
H790   N799    1.045   .     S
H791   N799    1.046   .     S
H792   N800    1.045   .     S
H793   N800    1.046   .     S
H794   N801    1.045   .     S
H795   N801    1.045   .     S
H796   N802    1.045   .     S
N798   N101    1.295   1_556 S
N798   Br62    1.882   1_556 S
N803   C892    1.442   .     S
N804   C1009   1.442   1_545 S
Br813  C830    1.932   .     S
Br814  C831    1.932   .     S
Br815  N159    1.882   1_556 S
C817   C834    1.424   .     S
C817   O865    1.297   .     A
C817   O863    1.288   .     A
C818   C829    1.397   .     A
C818   C820    1.399   .     A
C818   N858    1.440   .     S
C819   C837    1.446   .     S
C819   C838    1.399   .     A
C819   C821    1.406   .     A
C820   C822    1.406   .     A
C820   C836    1.446   .     S
C821   C823    1.414   .     A
C821   N859    1.435   .     S
C822   C824    1.414   .     A
C822   N860    1.435   .     S
C823   C830    1.422   .     A
C823   C825    1.430   .     A
C824   C831    1.422   .     A
C824   C826    1.430   .     A
C825   C827    1.415   .     A
C825   C884    1.415   .     S
C826   C829    1.415   .     A
C826   C883    1.415   1_455 S
C827   C833    1.398   .     A
C827   C838    1.397   .     A
C828   C835    1.424   .     S
C828   O866    1.297   .     A
C828   O864    1.288   .     A
C829   C832    1.398   .     A
C830   C890    1.386   .     S
C831   C891    1.386   1_455 S
C832   H841    1.083   .     S
C832   C888    1.386   1_455 S
C833   H847    1.083   .     S
C833   C889    1.386   .     S
C835   C950    1.362   .     S
C835   N978    1.442   .     S
C836   O867    1.297   .     A
C836   O869    1.297   .     A
C837   O868    1.297   .     A
C837   O870    1.297   .     A
C838   N857    1.440   .     S
Cu839  O866    1.961   .     S
Cu839  O863    1.965   .     S
Cu839  O867    1.964   .     S
Cu839  Cu840   2.706   .     S
Cu839  N856    2.033   .     S
Cu839  O870    1.956   .     S
Cu840  O865    1.961   .     S
Cu840  N855    2.033   .     S
Cu840  O864    1.965   .     S
Cu840  O869    1.956   .     S
Cu840  O868    1.964   .     S
H842   N860    1.045   .     S
H843   N861    1.044   .     S
H844   N861    1.045   .     S
H845   N862    1.044   .     S
H846   N862    1.045   .     S
H848   N857    1.045   .     S
H849   N857    1.046   .     S
H850   N858    1.045   .     S
H851   N858    1.046   .     S
H852   N859    1.045   .     S
H853   N859    1.045   .     S
H854   N860    1.045   .     S
N856   N159    1.295   1_556 S
N856   Br120   1.882   1_556 S
N861   C950    1.442   .     S
Br871  C888    1.932   .     S
Br872  C889    1.932   .     S
Br873  N217    1.882   1_556 S
C875   C892    1.424   .     S
C875   O923    1.297   .     A
C875   O921    1.288   .     A
C876   C887    1.397   .     A
C876   C878    1.399   .     A
C876   N916    1.440   .     S
C877   C895    1.446   .     S
C877   C896    1.399   .     A
C877   C879    1.406   .     A
C878   C880    1.406   .     A
C878   C894    1.446   .     S
C879   C881    1.414   .     A
C879   N917    1.435   .     S
C880   C882    1.414   .     A
C880   N918    1.435   .     S
C881   C888    1.422   .     A
C881   C883    1.430   .     A
C882   C889    1.422   .     A
C882   C884    1.430   .     A
C883   C885    1.415   .     A
C883   C826    1.415   1_655 S
C884   C887    1.415   .     A
C885   C891    1.398   .     A
C885   C896    1.397   .     A
C886   C893    1.424   .     S
C886   O924    1.297   .     A
C886   O922    1.288   .     A
C887   C890    1.398   .     A
C888   C832    1.386   1_655 S
C890   H899    1.083   .     S
C891   H905    1.083   .     S
C891   C831    1.386   1_655 S
C893   C1008   1.362   .     S
C893   N1036   1.442   .     S
C894   O925    1.297   .     A
C894   O927    1.297   .     A
C895   O926    1.297   .     A
C895   O928    1.297   .     A
C896   N915    1.440   .     S
Cu897  O924    1.961   .     S
Cu897  O921    1.965   .     S
Cu897  O925    1.964   .     S
Cu897  Cu898   2.706   .     S
Cu897  N914    2.033   .     S
Cu897  O928    1.956   .     S
Cu898  O923    1.961   .     S
Cu898  N913    2.033   .     S
Cu898  O922    1.965   .     S
Cu898  O927    1.956   .     S
Cu898  O926    1.964   .     S
H900   N918    1.045   .     S
H901   N919    1.044   .     S
H902   N919    1.045   .     S
H903   N920    1.044   .     S
H904   N920    1.045   .     S
H906   N915    1.045   .     S
H907   N915    1.046   .     S
H908   N916    1.045   .     S
H909   N916    1.046   .     S
H910   N917    1.045   .     S
H911   N917    1.045   .     S
H912   N918    1.045   .     S
N914   N217    1.295   1_556 S
N914   Br178   1.882   1_556 S
N919   C1008   1.442   .     S
Br929  C946    1.932   .     S
Br930  C947    1.932   .     S
Br931  N275    1.882   1_556 S
C933   C950    1.424   .     S
C933   O981    1.297   .     A
C933   O979    1.288   .     A
C934   C945    1.397   .     A
C934   C936    1.399   .     A
C934   N974    1.440   .     S
C935   C953    1.446   .     S
C935   C954    1.399   .     A
C935   C937    1.406   .     A
C936   C938    1.406   .     A
C936   C952    1.446   .     S
C937   C939    1.414   .     A
C937   N975    1.435   .     S
C938   C940    1.414   .     A
C938   N976    1.435   .     S
C939   C946    1.422   .     A
C939   C941    1.430   .     A
C940   C947    1.422   .     A
C940   C942    1.430   .     A
C941   C943    1.415   .     A
C941   C1000   1.415   .     S
C942   C945    1.415   .     A
C942   C999    1.415   1_455 S
C943   C949    1.398   .     A
C943   C954    1.397   .     A
C944   C951    1.424   .     S
C944   O982    1.297   .     A
C944   O980    1.288   .     A
C945   C948    1.398   .     A
C946   C1006   1.386   .     S
C947   C1007   1.386   1_455 S
C948   H957    1.083   .     S
C948   C1004   1.386   1_455 S
C949   H963    1.083   .     S
C949   C1005   1.386   .     S
C951   C718    1.362   1_565 S
C951   N746    1.442   1_565 S
C952   O983    1.297   .     A
C952   O985    1.297   .     A
C953   O984    1.297   .     A
C953   O986    1.297   .     A
C954   N973    1.440   .     S
Cu955  O982    1.961   .     S
Cu955  O979    1.965   .     S
Cu955  O983    1.964   .     S
Cu955  Cu956   2.706   .     S
Cu955  N972    2.033   .     S
Cu955  O986    1.956   .     S
Cu956  O981    1.961   .     S
Cu956  N971    2.033   .     S
Cu956  O980    1.965   .     S
Cu956  O985    1.956   .     S
Cu956  O984    1.964   .     S
H958   N976    1.045   .     S
H959   N977    1.044   .     S
H960   N977    1.045   .     S
H961   N978    1.044   .     S
H962   N978    1.045   .     S
H964   N973    1.045   .     S
H965   N973    1.046   .     S
H966   N974    1.045   .     S
H967   N974    1.046   .     S
H968   N975    1.045   .     S
H969   N975    1.045   .     S
H970   N976    1.045   .     S
N972   N275    1.295   1_556 S
N972   Br236   1.882   1_556 S
N977   C718    1.442   1_565 S
Br987  C1004   1.932   .     S
Br988  C1005   1.932   .     S
Br989  N333    1.882   1_556 S
C991   C1008   1.424   .     S
C991   O1039   1.297   .     A
C991   O1037   1.288   .     A
C992   C1003   1.397   .     A
C992   C994    1.399   .     A
C992   N1032   1.440   .     S
C993   C1011   1.446   .     S
C993   C1012   1.399   .     A
C993   C995    1.406   .     A
C994   C996    1.406   .     A
C994   C1010   1.446   .     S
C995   C997    1.414   .     A
C995   N1033   1.435   .     S
C996   C998    1.414   .     A
C996   N1034   1.435   .     S
C997   C1004   1.422   .     A
C997   C999    1.430   .     A
C998   C1005   1.422   .     A
C998   C1000   1.430   .     A
C999   C1001   1.415   .     A
C999   C942    1.415   1_655 S
C1000  C1003   1.415   .     A
C1001  C1007   1.398   .     A
C1001  C1012   1.397   .     A
C1002  C1009   1.424   .     S
C1002  O1040   1.297   .     A
C1002  O1038   1.288   .     A
C1003  C1006   1.398   .     A
C1004  C948    1.386   1_655 S
C1006  H1015   1.083   .     S
C1007  H1021   1.083   .     S
C1007  C947    1.386   1_655 S
C1009  C776    1.362   1_565 S
C1009  N804    1.442   1_565 S
C1010  O1041   1.297   .     A
C1010  O1043   1.297   .     A
C1011  O1042   1.297   .     A
C1011  O1044   1.297   .     A
C1012  N1031   1.440   .     S
Cu1013 O1040   1.961   .     S
Cu1013 O1037   1.965   .     S
Cu1013 O1041   1.964   .     S
Cu1013 Cu1014  2.706   .     S
Cu1013 N1030   2.033   .     S
Cu1013 O1044   1.956   .     S
Cu1014 O1039   1.961   .     S
Cu1014 N1029   2.033   .     S
Cu1014 O1038   1.965   .     S
Cu1014 O1043   1.956   .     S
Cu1014 O1042   1.964   .     S
H1016  N1034   1.045   .     S
H1017  N1035   1.044   .     S
H1018  N1035   1.045   .     S
H1019  N1036   1.044   .     S
H1020  N1036   1.045   .     S
H1022  N1031   1.045   .     S
H1023  N1031   1.046   .     S
H1024  N1032   1.045   .     S
H1025  N1032   1.046   .     S
H1026  N1033   1.045   .     S
H1027  N1033   1.045   .     S
H1028  N1034   1.045   .     S
N1030  N333    1.295   1_556 S
N1030  Br294   1.882   1_556 S
N1035  C776    1.442   1_565 S
