data_str_m2_o10_o17_pcu_sym.8
_audit_creation_date              2020-01-03
_audit_creation_method            'Materials Studio'
_symmetry_space_group_name_H-M    'P1'
_symmetry_Int_Tables_number       1
_symmetry_cell_setting            triclinic
loop_
_symmetry_equiv_pos_as_xyz
  x,y,z
_cell_length_a                    29.9082
_cell_length_b                    25.9827
_cell_length_c                    22.3742
_cell_angle_alpha                 103.1073
_cell_angle_beta                  93.6842
_cell_angle_gamma                 92.0148
loop_
_atom_site_label
_atom_site_type_symbol
_atom_site_fract_x
_atom_site_fract_y
_atom_site_fract_z
_atom_site_U_iso_or_equiv
_atom_site_adp_type
_atom_site_occupancy
C1     C     0.24866   0.06658   0.15106   0.00000  Uiso   1.00
C2     C     0.09118   0.11983   0.14297   0.00000  Uiso   1.00
C3     C     0.38348   0.16714   0.16330   0.00000  Uiso   1.00
C4     C     0.11652   0.16620   0.17003   0.00000  Uiso   1.00
C5     C     0.40382   0.12109   0.13647   0.00000  Uiso   1.00
C6     C     0.09618   0.21224   0.19686   0.00000  Uiso   1.00
C7     C     0.45043   0.12049   0.13825   0.00000  Uiso   1.00
C8     C     0.04957   0.21285   0.19508   0.00000  Uiso   1.00
C9     C     0.47660   0.16718   0.16580   0.00000  Uiso   1.00
C10    C     0.02340   0.16615   0.16753   0.00000  Uiso   1.00
C11    C     0.45579   0.21480   0.19134   0.00000  Uiso   1.00
C12    C     0.25134   0.26675   0.18227   0.00000  Uiso   1.00
C13    C     0.04421   0.11853   0.14201   0.00000  Uiso   1.00
C14    C     0.47085   0.07343   0.11386   0.00000  Uiso   1.00
C15    C     0.02915   0.25991   0.21947   0.00000  Uiso   1.00
C16    C     0.04031   0.01891   0.09413   0.00000  Uiso   1.00
C17    C     0.00919   0.30248   0.07297   0.00000  Uiso   1.00
C18    C     0.45969   0.31441   0.23927   0.00000  Uiso   1.00
C19    C     0.49080   0.03084   0.26047   0.00000  Uiso   1.00
C20    C     0.01781   0.07116   0.11624   0.00000  Uiso   1.00
C21    C     0.48219   0.26216   0.21711   0.00000  Uiso   1.00
C22    C     0.24800   0.01055   0.14233   0.00000  Uiso   1.00
C23    C     0.25200   0.32278   0.19101   0.00000  Uiso   1.00
C24    C     0.16459   0.16680   0.16779   0.00000  Uiso   1.00
C25    C     0.33541   0.16654   0.16555   0.00000  Uiso   1.00
C26    C     0.40882   0.21350   0.19038   0.00000  Uiso   1.00
Cu27   Cu    0.25500   0.17246   0.22813   0.00000  Uiso   1.00
Cu28   Cu    0.24499   0.16087   0.10521   0.00000  Uiso   1.00
H29    H     0.39117   0.24810   0.21060   0.00000  Uiso   1.00
H30    H     0.28494   0.20728   0.01702   0.00000  Uiso   1.00
H31    H     0.48786   0.29737   0.11007   0.00000  Uiso   1.00
H32    H     0.48764   0.30444   0.03154   0.00000  Uiso   1.00
H33    H     0.02962   0.26721   0.06115   0.00000  Uiso   1.00
H34    H     0.06098   0.02219   0.05553   0.00000  Uiso   1.00
H35    H     0.06315   0.01228   0.13257   0.00000  Uiso   1.00
H36    H     0.01241   0.02882   0.30183   0.00000  Uiso   1.00
H37    H     0.01208   0.03602   0.22334   0.00000  Uiso   1.00
H38    H     0.47037   0.06610   0.27241   0.00000  Uiso   1.00
H39    H     0.43684   0.32107   0.20086   0.00000  Uiso   1.00
H40    H     0.10883   0.08523   0.12276   0.00000  Uiso   1.00
H41    H     0.43903   0.31110   0.27787   0.00000  Uiso   1.00
H42    H     0.38326   0.08543   0.11599   0.00000  Uiso   1.00
H43    H     0.11674   0.24791   0.21733   0.00000  Uiso   1.00
H44    H     0.44954   0.03850   0.09379   0.00000  Uiso   1.00
H45    H     0.05046   0.29484   0.23953   0.00000  Uiso   1.00
H46    H     0.24422   0.31990   0.09548   0.00000  Uiso   1.00
H47    H     0.25578   0.01343   0.23785   0.00000  Uiso   1.00
H48    H     0.21506   0.12605   0.31631   0.00000  Uiso   1.00
N49    N     0.23744   0.15214   0.01284   0.00000  Uiso   1.00
N50    N     0.26255   0.18119   0.32049   0.00000  Uiso   1.00
O51    O     0.25325   0.09538   0.20659   0.00000  Uiso   1.00
O52    O     0.24674   0.23796   0.12674   0.00000  Uiso   1.00
O53    O     0.24480   0.08559   0.10279   0.00000  Uiso   1.00
O54    O     0.25520   0.24774   0.23055   0.00000  Uiso   1.00
O55    O     0.18935   0.17155   0.21857   0.00000  Uiso   1.00
O56    O     0.31064   0.16179   0.11476   0.00000  Uiso   1.00
O57    O     0.18090   0.16176   0.11477   0.00000  Uiso   1.00
O58    O     0.31910   0.17157   0.21857   0.00000  Uiso   1.00
C59    C     0.74866   0.06658   0.15106   0.00000  Uiso   1.00
C60    C     0.59118   0.11983   0.14297   0.00000  Uiso   1.00
C61    C     0.88348   0.16714   0.16330   0.00000  Uiso   1.00
C62    C     0.61652   0.16620   0.17003   0.00000  Uiso   1.00
C63    C     0.90382   0.12109   0.13647   0.00000  Uiso   1.00
C64    C     0.59618   0.21224   0.19686   0.00000  Uiso   1.00
C65    C     0.95043   0.12049   0.13825   0.00000  Uiso   1.00
C66    C     0.54957   0.21285   0.19508   0.00000  Uiso   1.00
C67    C     0.97660   0.16718   0.16580   0.00000  Uiso   1.00
C68    C     0.52340   0.16615   0.16753   0.00000  Uiso   1.00
C69    C     0.95579   0.21480   0.19134   0.00000  Uiso   1.00
C70    C     0.75134   0.26675   0.18227   0.00000  Uiso   1.00
C71    C     0.54421   0.11853   0.14201   0.00000  Uiso   1.00
C72    C     0.97085   0.07343   0.11386   0.00000  Uiso   1.00
C73    C     0.52915   0.25991   0.21947   0.00000  Uiso   1.00
C74    C     0.54031   0.01891   0.09413   0.00000  Uiso   1.00
C75    C     0.50919   0.30248   0.07297   0.00000  Uiso   1.00
C76    C     0.95969   0.31441   0.23927   0.00000  Uiso   1.00
C77    C     0.99080   0.03084   0.26047   0.00000  Uiso   1.00
C78    C     0.51781   0.07116   0.11624   0.00000  Uiso   1.00
C79    C     0.98219   0.26216   0.21711   0.00000  Uiso   1.00
C80    C     0.74800   0.01055   0.14233   0.00000  Uiso   1.00
C81    C     0.75200   0.32278   0.19101   0.00000  Uiso   1.00
C82    C     0.66459   0.16680   0.16779   0.00000  Uiso   1.00
C83    C     0.83541   0.16654   0.16555   0.00000  Uiso   1.00
C84    C     0.90882   0.21350   0.19038   0.00000  Uiso   1.00
Cu85   Cu    0.75500   0.17246   0.22813   0.00000  Uiso   1.00
Cu86   Cu    0.74499   0.16087   0.10521   0.00000  Uiso   1.00
H87    H     0.89117   0.24810   0.21060   0.00000  Uiso   1.00
H88    H     0.78494   0.20728   0.01702   0.00000  Uiso   1.00
H89    H     0.98786   0.29737   0.11007   0.00000  Uiso   1.00
H90    H     0.98764   0.30444   0.03154   0.00000  Uiso   1.00
H91    H     0.52962   0.26721   0.06115   0.00000  Uiso   1.00
H92    H     0.56098   0.02219   0.05553   0.00000  Uiso   1.00
H93    H     0.56315   0.01228   0.13257   0.00000  Uiso   1.00
H94    H     0.51241   0.02882   0.30183   0.00000  Uiso   1.00
H95    H     0.51208   0.03602   0.22334   0.00000  Uiso   1.00
H96    H     0.97037   0.06610   0.27241   0.00000  Uiso   1.00
H97    H     0.93684   0.32107   0.20086   0.00000  Uiso   1.00
H98    H     0.60883   0.08523   0.12276   0.00000  Uiso   1.00
H99    H     0.93903   0.31110   0.27787   0.00000  Uiso   1.00
H100   H     0.88326   0.08543   0.11599   0.00000  Uiso   1.00
H101   H     0.61674   0.24791   0.21733   0.00000  Uiso   1.00
H102   H     0.94954   0.03850   0.09379   0.00000  Uiso   1.00
H103   H     0.55046   0.29484   0.23953   0.00000  Uiso   1.00
H104   H     0.74422   0.31990   0.09548   0.00000  Uiso   1.00
H105   H     0.75578   0.01343   0.23785   0.00000  Uiso   1.00
H106   H     0.71506   0.12605   0.31631   0.00000  Uiso   1.00
N107   N     0.73744   0.15214   0.01284   0.00000  Uiso   1.00
N108   N     0.76255   0.18119   0.32049   0.00000  Uiso   1.00
O109   O     0.75325   0.09538   0.20659   0.00000  Uiso   1.00
O110   O     0.74674   0.23796   0.12674   0.00000  Uiso   1.00
O111   O     0.74480   0.08559   0.10279   0.00000  Uiso   1.00
O112   O     0.75520   0.24774   0.23055   0.00000  Uiso   1.00
O113   O     0.68935   0.17155   0.21857   0.00000  Uiso   1.00
O114   O     0.81064   0.16179   0.11476   0.00000  Uiso   1.00
O115   O     0.68090   0.16176   0.11477   0.00000  Uiso   1.00
O116   O     0.81910   0.17157   0.21857   0.00000  Uiso   1.00
C117   C     0.24866   0.39992   0.15106   0.00000  Uiso   1.00
C118   C     0.09118   0.45317   0.14297   0.00000  Uiso   1.00
C119   C     0.38348   0.50047   0.16330   0.00000  Uiso   1.00
C120   C     0.11652   0.49953   0.17003   0.00000  Uiso   1.00
C121   C     0.40382   0.45443   0.13647   0.00000  Uiso   1.00
C122   C     0.09618   0.54558   0.19686   0.00000  Uiso   1.00
C123   C     0.45043   0.45382   0.13825   0.00000  Uiso   1.00
C124   C     0.04957   0.54618   0.19508   0.00000  Uiso   1.00
C125   C     0.47660   0.50051   0.16580   0.00000  Uiso   1.00
C126   C     0.02340   0.49949   0.16753   0.00000  Uiso   1.00
C127   C     0.45579   0.54813   0.19134   0.00000  Uiso   1.00
C128   C     0.25134   0.60008   0.18227   0.00000  Uiso   1.00
C129   C     0.04421   0.45186   0.14201   0.00000  Uiso   1.00
C130   C     0.47085   0.40676   0.11386   0.00000  Uiso   1.00
C131   C     0.02915   0.59324   0.21947   0.00000  Uiso   1.00
C132   C     0.04031   0.35225   0.09413   0.00000  Uiso   1.00
C133   C     0.00919   0.63582   0.07297   0.00000  Uiso   1.00
C134   C     0.45969   0.64774   0.23927   0.00000  Uiso   1.00
C135   C     0.49080   0.36417   0.26047   0.00000  Uiso   1.00
C136   C     0.01781   0.40450   0.11624   0.00000  Uiso   1.00
C137   C     0.48219   0.59550   0.21711   0.00000  Uiso   1.00
C138   C     0.24800   0.34388   0.14233   0.00000  Uiso   1.00
C139   C     0.25200   0.65612   0.19101   0.00000  Uiso   1.00
C140   C     0.16459   0.50013   0.16779   0.00000  Uiso   1.00
C141   C     0.33541   0.49987   0.16555   0.00000  Uiso   1.00
C142   C     0.40882   0.54683   0.19038   0.00000  Uiso   1.00
Cu143  Cu    0.25500   0.50579   0.22813   0.00000  Uiso   1.00
Cu144  Cu    0.24499   0.49421   0.10521   0.00000  Uiso   1.00
H145   H     0.39117   0.58143   0.21060   0.00000  Uiso   1.00
H146   H     0.28494   0.54061   0.01702   0.00000  Uiso   1.00
H147   H     0.48786   0.63070   0.11007   0.00000  Uiso   1.00
H148   H     0.48764   0.63777   0.03154   0.00000  Uiso   1.00
H149   H     0.02962   0.60054   0.06115   0.00000  Uiso   1.00
H150   H     0.06098   0.35553   0.05553   0.00000  Uiso   1.00
H151   H     0.06315   0.34561   0.13257   0.00000  Uiso   1.00
H152   H     0.01241   0.36216   0.30183   0.00000  Uiso   1.00
H153   H     0.01208   0.36935   0.22334   0.00000  Uiso   1.00
H154   H     0.47037   0.39943   0.27241   0.00000  Uiso   1.00
H155   H     0.43684   0.65440   0.20086   0.00000  Uiso   1.00
H156   H     0.10883   0.41856   0.12276   0.00000  Uiso   1.00
H157   H     0.43903   0.64443   0.27787   0.00000  Uiso   1.00
H158   H     0.38326   0.41877   0.11599   0.00000  Uiso   1.00
H159   H     0.11674   0.58124   0.21733   0.00000  Uiso   1.00
H160   H     0.44954   0.37183   0.09379   0.00000  Uiso   1.00
H161   H     0.05046   0.62817   0.23953   0.00000  Uiso   1.00
H162   H     0.24422   0.65323   0.09548   0.00000  Uiso   1.00
H163   H     0.25578   0.34677   0.23785   0.00000  Uiso   1.00
H164   H     0.21506   0.45939   0.31631   0.00000  Uiso   1.00
N165   N     0.23744   0.48547   0.01284   0.00000  Uiso   1.00
N166   N     0.26255   0.51453   0.32049   0.00000  Uiso   1.00
O167   O     0.25325   0.42871   0.20659   0.00000  Uiso   1.00
O168   O     0.24674   0.57129   0.12674   0.00000  Uiso   1.00
O169   O     0.24480   0.41892   0.10279   0.00000  Uiso   1.00
O170   O     0.25520   0.58108   0.23055   0.00000  Uiso   1.00
O171   O     0.18935   0.50488   0.21857   0.00000  Uiso   1.00
O172   O     0.31064   0.49512   0.11476   0.00000  Uiso   1.00
O173   O     0.18090   0.49510   0.11477   0.00000  Uiso   1.00
O174   O     0.31910   0.50490   0.21857   0.00000  Uiso   1.00
C175   C     0.74866   0.39992   0.15106   0.00000  Uiso   1.00
C176   C     0.59118   0.45317   0.14297   0.00000  Uiso   1.00
C177   C     0.88348   0.50047   0.16330   0.00000  Uiso   1.00
C178   C     0.61652   0.49953   0.17003   0.00000  Uiso   1.00
C179   C     0.90382   0.45443   0.13647   0.00000  Uiso   1.00
C180   C     0.59618   0.54558   0.19686   0.00000  Uiso   1.00
C181   C     0.95043   0.45382   0.13825   0.00000  Uiso   1.00
C182   C     0.54957   0.54618   0.19508   0.00000  Uiso   1.00
C183   C     0.97660   0.50051   0.16580   0.00000  Uiso   1.00
C184   C     0.52340   0.49949   0.16753   0.00000  Uiso   1.00
C185   C     0.95579   0.54813   0.19134   0.00000  Uiso   1.00
C186   C     0.75134   0.60008   0.18227   0.00000  Uiso   1.00
C187   C     0.54421   0.45186   0.14201   0.00000  Uiso   1.00
C188   C     0.97085   0.40676   0.11386   0.00000  Uiso   1.00
C189   C     0.52915   0.59324   0.21947   0.00000  Uiso   1.00
C190   C     0.54031   0.35225   0.09413   0.00000  Uiso   1.00
C191   C     0.50919   0.63582   0.07297   0.00000  Uiso   1.00
C192   C     0.95969   0.64774   0.23927   0.00000  Uiso   1.00
C193   C     0.99080   0.36417   0.26047   0.00000  Uiso   1.00
C194   C     0.51781   0.40450   0.11624   0.00000  Uiso   1.00
C195   C     0.98219   0.59550   0.21711   0.00000  Uiso   1.00
C196   C     0.74800   0.34388   0.14233   0.00000  Uiso   1.00
C197   C     0.75200   0.65612   0.19101   0.00000  Uiso   1.00
C198   C     0.66459   0.50013   0.16779   0.00000  Uiso   1.00
C199   C     0.83541   0.49987   0.16555   0.00000  Uiso   1.00
C200   C     0.90882   0.54683   0.19038   0.00000  Uiso   1.00
Cu201  Cu    0.75500   0.50579   0.22813   0.00000  Uiso   1.00
Cu202  Cu    0.74499   0.49421   0.10521   0.00000  Uiso   1.00
H203   H     0.89117   0.58143   0.21060   0.00000  Uiso   1.00
H204   H     0.78494   0.54061   0.01702   0.00000  Uiso   1.00
H205   H     0.98786   0.63070   0.11007   0.00000  Uiso   1.00
H206   H     0.98764   0.63777   0.03154   0.00000  Uiso   1.00
H207   H     0.52962   0.60054   0.06115   0.00000  Uiso   1.00
H208   H     0.56098   0.35553   0.05553   0.00000  Uiso   1.00
H209   H     0.56315   0.34561   0.13257   0.00000  Uiso   1.00
H210   H     0.51241   0.36216   0.30183   0.00000  Uiso   1.00
H211   H     0.51208   0.36935   0.22334   0.00000  Uiso   1.00
H212   H     0.97037   0.39943   0.27241   0.00000  Uiso   1.00
H213   H     0.93684   0.65440   0.20086   0.00000  Uiso   1.00
H214   H     0.60883   0.41856   0.12276   0.00000  Uiso   1.00
H215   H     0.93903   0.64443   0.27787   0.00000  Uiso   1.00
H216   H     0.88326   0.41877   0.11599   0.00000  Uiso   1.00
H217   H     0.61674   0.58124   0.21733   0.00000  Uiso   1.00
H218   H     0.94954   0.37183   0.09379   0.00000  Uiso   1.00
H219   H     0.55046   0.62817   0.23953   0.00000  Uiso   1.00
H220   H     0.74422   0.65323   0.09548   0.00000  Uiso   1.00
H221   H     0.75578   0.34677   0.23785   0.00000  Uiso   1.00
H222   H     0.71506   0.45939   0.31631   0.00000  Uiso   1.00
N223   N     0.73744   0.48547   0.01284   0.00000  Uiso   1.00
N224   N     0.76255   0.51453   0.32049   0.00000  Uiso   1.00
O225   O     0.75325   0.42871   0.20659   0.00000  Uiso   1.00
O226   O     0.74674   0.57129   0.12674   0.00000  Uiso   1.00
O227   O     0.74480   0.41892   0.10279   0.00000  Uiso   1.00
O228   O     0.75520   0.58108   0.23055   0.00000  Uiso   1.00
O229   O     0.68935   0.50488   0.21857   0.00000  Uiso   1.00
O230   O     0.81064   0.49512   0.11476   0.00000  Uiso   1.00
O231   O     0.68090   0.49510   0.11477   0.00000  Uiso   1.00
O232   O     0.81910   0.50490   0.21857   0.00000  Uiso   1.00
C233   C     0.24866   0.73325   0.15106   0.00000  Uiso   1.00
C234   C     0.09118   0.78650   0.14297   0.00000  Uiso   1.00
C235   C     0.38348   0.83380   0.16330   0.00000  Uiso   1.00
C236   C     0.11652   0.83286   0.17003   0.00000  Uiso   1.00
C237   C     0.40382   0.78776   0.13647   0.00000  Uiso   1.00
C238   C     0.09618   0.87891   0.19686   0.00000  Uiso   1.00
C239   C     0.45043   0.78715   0.13825   0.00000  Uiso   1.00
C240   C     0.04957   0.87951   0.19508   0.00000  Uiso   1.00
C241   C     0.47660   0.83385   0.16580   0.00000  Uiso   1.00
C242   C     0.02340   0.83282   0.16753   0.00000  Uiso   1.00
C243   C     0.45579   0.88147   0.19134   0.00000  Uiso   1.00
C244   C     0.25134   0.93342   0.18227   0.00000  Uiso   1.00
C245   C     0.04421   0.78520   0.14201   0.00000  Uiso   1.00
C246   C     0.47085   0.74010   0.11386   0.00000  Uiso   1.00
C247   C     0.02915   0.92657   0.21947   0.00000  Uiso   1.00
C248   C     0.04031   0.68558   0.09413   0.00000  Uiso   1.00
C249   C     0.00919   0.96915   0.07297   0.00000  Uiso   1.00
C250   C     0.45969   0.98107   0.23927   0.00000  Uiso   1.00
C251   C     0.49080   0.69750   0.26047   0.00000  Uiso   1.00
C252   C     0.01781   0.73783   0.11624   0.00000  Uiso   1.00
C253   C     0.48219   0.92883   0.21711   0.00000  Uiso   1.00
C254   C     0.24800   0.67722   0.14233   0.00000  Uiso   1.00
C255   C     0.25200   0.98945   0.19101   0.00000  Uiso   1.00
C256   C     0.16459   0.83346   0.16779   0.00000  Uiso   1.00
C257   C     0.33541   0.83320   0.16555   0.00000  Uiso   1.00
C258   C     0.40882   0.88016   0.19038   0.00000  Uiso   1.00
Cu259  Cu    0.25500   0.83913   0.22813   0.00000  Uiso   1.00
Cu260  Cu    0.24499   0.82754   0.10521   0.00000  Uiso   1.00
H261   H     0.39117   0.91476   0.21060   0.00000  Uiso   1.00
H262   H     0.28494   0.87395   0.01702   0.00000  Uiso   1.00
H263   H     0.48786   0.96404   0.11007   0.00000  Uiso   1.00
H264   H     0.48764   0.97110   0.03154   0.00000  Uiso   1.00
H265   H     0.02962   0.93387   0.06115   0.00000  Uiso   1.00
H266   H     0.06098   0.68886   0.05553   0.00000  Uiso   1.00
H267   H     0.06315   0.67894   0.13257   0.00000  Uiso   1.00
H268   H     0.01241   0.69549   0.30183   0.00000  Uiso   1.00
H269   H     0.01208   0.70269   0.22334   0.00000  Uiso   1.00
H270   H     0.47037   0.73276   0.27241   0.00000  Uiso   1.00
H271   H     0.43684   0.98773   0.20086   0.00000  Uiso   1.00
H272   H     0.10883   0.75190   0.12276   0.00000  Uiso   1.00
H273   H     0.43903   0.97776   0.27787   0.00000  Uiso   1.00
H274   H     0.38326   0.75210   0.11599   0.00000  Uiso   1.00
H275   H     0.11674   0.91457   0.21733   0.00000  Uiso   1.00
H276   H     0.44954   0.70517   0.09379   0.00000  Uiso   1.00
H277   H     0.05046   0.96150   0.23953   0.00000  Uiso   1.00
H278   H     0.24422   0.98657   0.09548   0.00000  Uiso   1.00
H279   H     0.25578   0.68010   0.23785   0.00000  Uiso   1.00
H280   H     0.21506   0.79272   0.31631   0.00000  Uiso   1.00
N281   N     0.23744   0.81881   0.01284   0.00000  Uiso   1.00
N282   N     0.26255   0.84786   0.32049   0.00000  Uiso   1.00
O283   O     0.25325   0.76204   0.20659   0.00000  Uiso   1.00
O284   O     0.24674   0.90462   0.12674   0.00000  Uiso   1.00
O285   O     0.24480   0.75226   0.10279   0.00000  Uiso   1.00
O286   O     0.25520   0.91441   0.23055   0.00000  Uiso   1.00
O287   O     0.18935   0.83821   0.21857   0.00000  Uiso   1.00
O288   O     0.31064   0.82845   0.11476   0.00000  Uiso   1.00
O289   O     0.18090   0.82843   0.11477   0.00000  Uiso   1.00
O290   O     0.31910   0.83824   0.21857   0.00000  Uiso   1.00
C291   C     0.74866   0.73325   0.15106   0.00000  Uiso   1.00
C292   C     0.59118   0.78650   0.14297   0.00000  Uiso   1.00
C293   C     0.88348   0.83380   0.16330   0.00000  Uiso   1.00
C294   C     0.61652   0.83286   0.17003   0.00000  Uiso   1.00
C295   C     0.90382   0.78776   0.13647   0.00000  Uiso   1.00
C296   C     0.59618   0.87891   0.19686   0.00000  Uiso   1.00
C297   C     0.95043   0.78715   0.13825   0.00000  Uiso   1.00
C298   C     0.54957   0.87951   0.19508   0.00000  Uiso   1.00
C299   C     0.97660   0.83385   0.16580   0.00000  Uiso   1.00
C300   C     0.52340   0.83282   0.16753   0.00000  Uiso   1.00
C301   C     0.95579   0.88147   0.19134   0.00000  Uiso   1.00
C302   C     0.75134   0.93342   0.18227   0.00000  Uiso   1.00
C303   C     0.54421   0.78520   0.14201   0.00000  Uiso   1.00
C304   C     0.97085   0.74010   0.11386   0.00000  Uiso   1.00
C305   C     0.52915   0.92657   0.21947   0.00000  Uiso   1.00
C306   C     0.54031   0.68558   0.09413   0.00000  Uiso   1.00
C307   C     0.50919   0.96915   0.07297   0.00000  Uiso   1.00
C308   C     0.95969   0.98107   0.23927   0.00000  Uiso   1.00
C309   C     0.99080   0.69750   0.26047   0.00000  Uiso   1.00
C310   C     0.51781   0.73783   0.11624   0.00000  Uiso   1.00
C311   C     0.98219   0.92883   0.21711   0.00000  Uiso   1.00
C312   C     0.74800   0.67722   0.14233   0.00000  Uiso   1.00
C313   C     0.75200   0.98945   0.19101   0.00000  Uiso   1.00
C314   C     0.66459   0.83346   0.16779   0.00000  Uiso   1.00
C315   C     0.83541   0.83320   0.16555   0.00000  Uiso   1.00
C316   C     0.90882   0.88016   0.19038   0.00000  Uiso   1.00
Cu317  Cu    0.75500   0.83913   0.22813   0.00000  Uiso   1.00
Cu318  Cu    0.74499   0.82754   0.10521   0.00000  Uiso   1.00
H319   H     0.89117   0.91476   0.21060   0.00000  Uiso   1.00
H320   H     0.78494   0.87395   0.01702   0.00000  Uiso   1.00
H321   H     0.98786   0.96404   0.11007   0.00000  Uiso   1.00
H322   H     0.98764   0.97110   0.03154   0.00000  Uiso   1.00
H323   H     0.52962   0.93387   0.06115   0.00000  Uiso   1.00
H324   H     0.56098   0.68886   0.05553   0.00000  Uiso   1.00
H325   H     0.56315   0.67894   0.13257   0.00000  Uiso   1.00
H326   H     0.51241   0.69549   0.30183   0.00000  Uiso   1.00
H327   H     0.51208   0.70269   0.22334   0.00000  Uiso   1.00
H328   H     0.97037   0.73276   0.27241   0.00000  Uiso   1.00
H329   H     0.93684   0.98773   0.20086   0.00000  Uiso   1.00
H330   H     0.60883   0.75190   0.12276   0.00000  Uiso   1.00
H331   H     0.93903   0.97776   0.27787   0.00000  Uiso   1.00
H332   H     0.88326   0.75210   0.11599   0.00000  Uiso   1.00
H333   H     0.61674   0.91457   0.21733   0.00000  Uiso   1.00
H334   H     0.94954   0.70517   0.09379   0.00000  Uiso   1.00
H335   H     0.55046   0.96150   0.23953   0.00000  Uiso   1.00
H336   H     0.74422   0.98657   0.09548   0.00000  Uiso   1.00
H337   H     0.75578   0.68010   0.23785   0.00000  Uiso   1.00
H338   H     0.71506   0.79272   0.31631   0.00000  Uiso   1.00
N339   N     0.73744   0.81881   0.01284   0.00000  Uiso   1.00
N340   N     0.76255   0.84786   0.32049   0.00000  Uiso   1.00
O341   O     0.75325   0.76204   0.20659   0.00000  Uiso   1.00
O342   O     0.74674   0.90462   0.12674   0.00000  Uiso   1.00
O343   O     0.74480   0.75226   0.10279   0.00000  Uiso   1.00
O344   O     0.75520   0.91441   0.23055   0.00000  Uiso   1.00
O345   O     0.68935   0.83821   0.21857   0.00000  Uiso   1.00
O346   O     0.81064   0.82845   0.11476   0.00000  Uiso   1.00
O347   O     0.68090   0.82843   0.11477   0.00000  Uiso   1.00
O348   O     0.81910   0.83824   0.21857   0.00000  Uiso   1.00
C349   C     0.24866   0.06658   0.48440   0.00000  Uiso   1.00
C350   C     0.09118   0.11983   0.47630   0.00000  Uiso   1.00
C351   C     0.38348   0.16714   0.49663   0.00000  Uiso   1.00
C352   C     0.11652   0.16620   0.50337   0.00000  Uiso   1.00
C353   C     0.40382   0.12109   0.46980   0.00000  Uiso   1.00
C354   C     0.09618   0.21224   0.53019   0.00000  Uiso   1.00
C355   C     0.45043   0.12049   0.47158   0.00000  Uiso   1.00
C356   C     0.04957   0.21285   0.52841   0.00000  Uiso   1.00
C357   C     0.47660   0.16718   0.49914   0.00000  Uiso   1.00
C358   C     0.02340   0.16615   0.50087   0.00000  Uiso   1.00
C359   C     0.45579   0.21480   0.52468   0.00000  Uiso   1.00
C360   C     0.25134   0.26675   0.51560   0.00000  Uiso   1.00
C361   C     0.04421   0.11853   0.47534   0.00000  Uiso   1.00
C362   C     0.47085   0.07343   0.44719   0.00000  Uiso   1.00
C363   C     0.02915   0.25991   0.55281   0.00000  Uiso   1.00
C364   C     0.04031   0.01891   0.42747   0.00000  Uiso   1.00
C365   C     0.00919   0.30248   0.40630   0.00000  Uiso   1.00
C366   C     0.45969   0.31441   0.57261   0.00000  Uiso   1.00
C367   C     0.49080   0.03084   0.59380   0.00000  Uiso   1.00
C368   C     0.01781   0.07116   0.44958   0.00000  Uiso   1.00
C369   C     0.48219   0.26216   0.55045   0.00000  Uiso   1.00
C370   C     0.24800   0.01055   0.47566   0.00000  Uiso   1.00
C371   C     0.25200   0.32278   0.52434   0.00000  Uiso   1.00
C372   C     0.16459   0.16680   0.50112   0.00000  Uiso   1.00
C373   C     0.33541   0.16654   0.49888   0.00000  Uiso   1.00
C374   C     0.40882   0.21350   0.52371   0.00000  Uiso   1.00
Cu375  Cu    0.25500   0.17246   0.56146   0.00000  Uiso   1.00
Cu376  Cu    0.24499   0.16087   0.43854   0.00000  Uiso   1.00
H377   H     0.39117   0.24810   0.54393   0.00000  Uiso   1.00
H378   H     0.28494   0.20728   0.35035   0.00000  Uiso   1.00
H379   H     0.48786   0.29737   0.44340   0.00000  Uiso   1.00
H380   H     0.48764   0.30444   0.36487   0.00000  Uiso   1.00
H381   H     0.02962   0.26721   0.39448   0.00000  Uiso   1.00
H382   H     0.06098   0.02219   0.38886   0.00000  Uiso   1.00
H383   H     0.06315   0.01228   0.46590   0.00000  Uiso   1.00
H384   H     0.01241   0.02882   0.63516   0.00000  Uiso   1.00
H385   H     0.01208   0.03602   0.55667   0.00000  Uiso   1.00
H386   H     0.47037   0.06610   0.60575   0.00000  Uiso   1.00
H387   H     0.43684   0.32107   0.53419   0.00000  Uiso   1.00
H388   H     0.10883   0.08523   0.45610   0.00000  Uiso   1.00
H389   H     0.43903   0.31110   0.61120   0.00000  Uiso   1.00
H390   H     0.38326   0.08543   0.44932   0.00000  Uiso   1.00
H391   H     0.11674   0.24791   0.55066   0.00000  Uiso   1.00
H392   H     0.44954   0.03850   0.42712   0.00000  Uiso   1.00
H393   H     0.05046   0.29484   0.57287   0.00000  Uiso   1.00
H394   H     0.24422   0.31990   0.42881   0.00000  Uiso   1.00
H395   H     0.25578   0.01343   0.57119   0.00000  Uiso   1.00
H396   H     0.21506   0.12605   0.64965   0.00000  Uiso   1.00
N397   N     0.23744   0.15214   0.34617   0.00000  Uiso   1.00
N398   N     0.26255   0.18119   0.65383   0.00000  Uiso   1.00
O399   O     0.25325   0.09538   0.53992   0.00000  Uiso   1.00
O400   O     0.24674   0.23796   0.46008   0.00000  Uiso   1.00
O401   O     0.24480   0.08559   0.43612   0.00000  Uiso   1.00
O402   O     0.25520   0.24774   0.56388   0.00000  Uiso   1.00
O403   O     0.18935   0.17155   0.55191   0.00000  Uiso   1.00
O404   O     0.31064   0.16179   0.44809   0.00000  Uiso   1.00
O405   O     0.18090   0.16176   0.44810   0.00000  Uiso   1.00
O406   O     0.31910   0.17157   0.55190   0.00000  Uiso   1.00
C407   C     0.74866   0.06658   0.48440   0.00000  Uiso   1.00
C408   C     0.59118   0.11983   0.47630   0.00000  Uiso   1.00
C409   C     0.88348   0.16714   0.49663   0.00000  Uiso   1.00
C410   C     0.61652   0.16620   0.50337   0.00000  Uiso   1.00
C411   C     0.90382   0.12109   0.46980   0.00000  Uiso   1.00
C412   C     0.59618   0.21224   0.53019   0.00000  Uiso   1.00
C413   C     0.95043   0.12049   0.47158   0.00000  Uiso   1.00
C414   C     0.54957   0.21285   0.52841   0.00000  Uiso   1.00
C415   C     0.97660   0.16718   0.49914   0.00000  Uiso   1.00
C416   C     0.52340   0.16615   0.50087   0.00000  Uiso   1.00
C417   C     0.95579   0.21480   0.52468   0.00000  Uiso   1.00
C418   C     0.75134   0.26675   0.51560   0.00000  Uiso   1.00
C419   C     0.54421   0.11853   0.47534   0.00000  Uiso   1.00
C420   C     0.97085   0.07343   0.44719   0.00000  Uiso   1.00
C421   C     0.52915   0.25991   0.55281   0.00000  Uiso   1.00
C422   C     0.54031   0.01891   0.42747   0.00000  Uiso   1.00
C423   C     0.50919   0.30248   0.40630   0.00000  Uiso   1.00
C424   C     0.95969   0.31441   0.57261   0.00000  Uiso   1.00
C425   C     0.99080   0.03084   0.59380   0.00000  Uiso   1.00
C426   C     0.51781   0.07116   0.44958   0.00000  Uiso   1.00
C427   C     0.98219   0.26216   0.55045   0.00000  Uiso   1.00
C428   C     0.74800   0.01055   0.47566   0.00000  Uiso   1.00
C429   C     0.75200   0.32278   0.52434   0.00000  Uiso   1.00
C430   C     0.66459   0.16680   0.50112   0.00000  Uiso   1.00
C431   C     0.83541   0.16654   0.49888   0.00000  Uiso   1.00
C432   C     0.90882   0.21350   0.52371   0.00000  Uiso   1.00
Cu433  Cu    0.75500   0.17246   0.56146   0.00000  Uiso   1.00
Cu434  Cu    0.74499   0.16087   0.43854   0.00000  Uiso   1.00
H435   H     0.89117   0.24810   0.54393   0.00000  Uiso   1.00
H436   H     0.78494   0.20728   0.35035   0.00000  Uiso   1.00
H437   H     0.98786   0.29737   0.44340   0.00000  Uiso   1.00
H438   H     0.98764   0.30444   0.36487   0.00000  Uiso   1.00
H439   H     0.52962   0.26721   0.39448   0.00000  Uiso   1.00
H440   H     0.56098   0.02219   0.38886   0.00000  Uiso   1.00
H441   H     0.56315   0.01228   0.46590   0.00000  Uiso   1.00
H442   H     0.51241   0.02882   0.63516   0.00000  Uiso   1.00
H443   H     0.51208   0.03602   0.55667   0.00000  Uiso   1.00
H444   H     0.97037   0.06610   0.60575   0.00000  Uiso   1.00
H445   H     0.93684   0.32107   0.53419   0.00000  Uiso   1.00
H446   H     0.60883   0.08523   0.45610   0.00000  Uiso   1.00
H447   H     0.93903   0.31110   0.61120   0.00000  Uiso   1.00
H448   H     0.88326   0.08543   0.44932   0.00000  Uiso   1.00
H449   H     0.61674   0.24791   0.55066   0.00000  Uiso   1.00
H450   H     0.94954   0.03850   0.42712   0.00000  Uiso   1.00
H451   H     0.55046   0.29484   0.57287   0.00000  Uiso   1.00
H452   H     0.74422   0.31990   0.42881   0.00000  Uiso   1.00
H453   H     0.75578   0.01343   0.57119   0.00000  Uiso   1.00
H454   H     0.71506   0.12605   0.64965   0.00000  Uiso   1.00
N455   N     0.73744   0.15214   0.34617   0.00000  Uiso   1.00
N456   N     0.76255   0.18119   0.65383   0.00000  Uiso   1.00
O457   O     0.75325   0.09538   0.53992   0.00000  Uiso   1.00
O458   O     0.74674   0.23796   0.46008   0.00000  Uiso   1.00
O459   O     0.74480   0.08559   0.43612   0.00000  Uiso   1.00
O460   O     0.75520   0.24774   0.56388   0.00000  Uiso   1.00
O461   O     0.68935   0.17155   0.55191   0.00000  Uiso   1.00
O462   O     0.81064   0.16179   0.44809   0.00000  Uiso   1.00
O463   O     0.68090   0.16176   0.44810   0.00000  Uiso   1.00
O464   O     0.81910   0.17157   0.55190   0.00000  Uiso   1.00
C465   C     0.24866   0.39992   0.48440   0.00000  Uiso   1.00
C466   C     0.09118   0.45317   0.47630   0.00000  Uiso   1.00
C467   C     0.38348   0.50047   0.49663   0.00000  Uiso   1.00
C468   C     0.11652   0.49953   0.50337   0.00000  Uiso   1.00
C469   C     0.40382   0.45443   0.46980   0.00000  Uiso   1.00
C470   C     0.09618   0.54558   0.53019   0.00000  Uiso   1.00
C471   C     0.45043   0.45382   0.47158   0.00000  Uiso   1.00
C472   C     0.04957   0.54618   0.52841   0.00000  Uiso   1.00
C473   C     0.47660   0.50051   0.49914   0.00000  Uiso   1.00
C474   C     0.02340   0.49949   0.50087   0.00000  Uiso   1.00
C475   C     0.45579   0.54813   0.52468   0.00000  Uiso   1.00
C476   C     0.25134   0.60008   0.51560   0.00000  Uiso   1.00
C477   C     0.04421   0.45186   0.47534   0.00000  Uiso   1.00
C478   C     0.47085   0.40676   0.44719   0.00000  Uiso   1.00
C479   C     0.02915   0.59324   0.55281   0.00000  Uiso   1.00
C480   C     0.04031   0.35225   0.42747   0.00000  Uiso   1.00
C481   C     0.00919   0.63582   0.40630   0.00000  Uiso   1.00
C482   C     0.45969   0.64774   0.57261   0.00000  Uiso   1.00
C483   C     0.49080   0.36417   0.59380   0.00000  Uiso   1.00
C484   C     0.01781   0.40450   0.44958   0.00000  Uiso   1.00
C485   C     0.48219   0.59550   0.55045   0.00000  Uiso   1.00
C486   C     0.24800   0.34388   0.47566   0.00000  Uiso   1.00
C487   C     0.25200   0.65612   0.52434   0.00000  Uiso   1.00
C488   C     0.16459   0.50013   0.50112   0.00000  Uiso   1.00
C489   C     0.33541   0.49987   0.49888   0.00000  Uiso   1.00
C490   C     0.40882   0.54683   0.52371   0.00000  Uiso   1.00
Cu491  Cu    0.25500   0.50579   0.56146   0.00000  Uiso   1.00
Cu492  Cu    0.24499   0.49421   0.43854   0.00000  Uiso   1.00
H493   H     0.39117   0.58143   0.54393   0.00000  Uiso   1.00
H494   H     0.28494   0.54061   0.35035   0.00000  Uiso   1.00
H495   H     0.48786   0.63070   0.44340   0.00000  Uiso   1.00
H496   H     0.48764   0.63777   0.36487   0.00000  Uiso   1.00
H497   H     0.02962   0.60054   0.39448   0.00000  Uiso   1.00
H498   H     0.06098   0.35553   0.38886   0.00000  Uiso   1.00
H499   H     0.06315   0.34561   0.46590   0.00000  Uiso   1.00
H500   H     0.01241   0.36216   0.63516   0.00000  Uiso   1.00
H501   H     0.01208   0.36935   0.55667   0.00000  Uiso   1.00
H502   H     0.47037   0.39943   0.60575   0.00000  Uiso   1.00
H503   H     0.43684   0.65440   0.53419   0.00000  Uiso   1.00
H504   H     0.10883   0.41856   0.45610   0.00000  Uiso   1.00
H505   H     0.43903   0.64443   0.61120   0.00000  Uiso   1.00
H506   H     0.38326   0.41877   0.44932   0.00000  Uiso   1.00
H507   H     0.11674   0.58124   0.55066   0.00000  Uiso   1.00
H508   H     0.44954   0.37183   0.42712   0.00000  Uiso   1.00
H509   H     0.05046   0.62817   0.57287   0.00000  Uiso   1.00
H510   H     0.24422   0.65323   0.42881   0.00000  Uiso   1.00
H511   H     0.25578   0.34677   0.57119   0.00000  Uiso   1.00
H512   H     0.21506   0.45939   0.64965   0.00000  Uiso   1.00
N513   N     0.23744   0.48547   0.34617   0.00000  Uiso   1.00
N514   N     0.26255   0.51453   0.65383   0.00000  Uiso   1.00
O515   O     0.25325   0.42871   0.53992   0.00000  Uiso   1.00
O516   O     0.24674   0.57129   0.46008   0.00000  Uiso   1.00
O517   O     0.24480   0.41892   0.43612   0.00000  Uiso   1.00
O518   O     0.25520   0.58108   0.56388   0.00000  Uiso   1.00
O519   O     0.18935   0.50488   0.55191   0.00000  Uiso   1.00
O520   O     0.31064   0.49512   0.44809   0.00000  Uiso   1.00
O521   O     0.18090   0.49510   0.44810   0.00000  Uiso   1.00
O522   O     0.31910   0.50490   0.55190   0.00000  Uiso   1.00
C523   C     0.74866   0.39992   0.48440   0.00000  Uiso   1.00
C524   C     0.59118   0.45317   0.47630   0.00000  Uiso   1.00
C525   C     0.88348   0.50047   0.49663   0.00000  Uiso   1.00
C526   C     0.61652   0.49953   0.50337   0.00000  Uiso   1.00
C527   C     0.90382   0.45443   0.46980   0.00000  Uiso   1.00
C528   C     0.59618   0.54558   0.53019   0.00000  Uiso   1.00
C529   C     0.95043   0.45382   0.47158   0.00000  Uiso   1.00
C530   C     0.54957   0.54618   0.52841   0.00000  Uiso   1.00
C531   C     0.97660   0.50051   0.49914   0.00000  Uiso   1.00
C532   C     0.52340   0.49949   0.50087   0.00000  Uiso   1.00
C533   C     0.95579   0.54813   0.52468   0.00000  Uiso   1.00
C534   C     0.75134   0.60008   0.51560   0.00000  Uiso   1.00
C535   C     0.54421   0.45186   0.47534   0.00000  Uiso   1.00
C536   C     0.97085   0.40676   0.44719   0.00000  Uiso   1.00
C537   C     0.52915   0.59324   0.55281   0.00000  Uiso   1.00
C538   C     0.54031   0.35225   0.42747   0.00000  Uiso   1.00
C539   C     0.50919   0.63582   0.40630   0.00000  Uiso   1.00
C540   C     0.95969   0.64774   0.57261   0.00000  Uiso   1.00
C541   C     0.99080   0.36417   0.59380   0.00000  Uiso   1.00
C542   C     0.51781   0.40450   0.44958   0.00000  Uiso   1.00
C543   C     0.98219   0.59550   0.55045   0.00000  Uiso   1.00
C544   C     0.74800   0.34388   0.47566   0.00000  Uiso   1.00
C545   C     0.75200   0.65612   0.52434   0.00000  Uiso   1.00
C546   C     0.66459   0.50013   0.50112   0.00000  Uiso   1.00
C547   C     0.83541   0.49987   0.49888   0.00000  Uiso   1.00
C548   C     0.90882   0.54683   0.52371   0.00000  Uiso   1.00
Cu549  Cu    0.75500   0.50579   0.56146   0.00000  Uiso   1.00
Cu550  Cu    0.74499   0.49421   0.43854   0.00000  Uiso   1.00
H551   H     0.89117   0.58143   0.54393   0.00000  Uiso   1.00
H552   H     0.78494   0.54061   0.35035   0.00000  Uiso   1.00
H553   H     0.98786   0.63070   0.44340   0.00000  Uiso   1.00
H554   H     0.98764   0.63777   0.36487   0.00000  Uiso   1.00
H555   H     0.52962   0.60054   0.39448   0.00000  Uiso   1.00
H556   H     0.56098   0.35553   0.38886   0.00000  Uiso   1.00
H557   H     0.56315   0.34561   0.46590   0.00000  Uiso   1.00
H558   H     0.51241   0.36216   0.63516   0.00000  Uiso   1.00
H559   H     0.51208   0.36935   0.55667   0.00000  Uiso   1.00
H560   H     0.97037   0.39943   0.60575   0.00000  Uiso   1.00
H561   H     0.93684   0.65440   0.53419   0.00000  Uiso   1.00
H562   H     0.60883   0.41856   0.45610   0.00000  Uiso   1.00
H563   H     0.93903   0.64443   0.61120   0.00000  Uiso   1.00
H564   H     0.88326   0.41877   0.44932   0.00000  Uiso   1.00
H565   H     0.61674   0.58124   0.55066   0.00000  Uiso   1.00
H566   H     0.94954   0.37183   0.42712   0.00000  Uiso   1.00
H567   H     0.55046   0.62817   0.57287   0.00000  Uiso   1.00
H568   H     0.74422   0.65323   0.42881   0.00000  Uiso   1.00
H569   H     0.75578   0.34677   0.57119   0.00000  Uiso   1.00
H570   H     0.71506   0.45939   0.64965   0.00000  Uiso   1.00
N571   N     0.73744   0.48547   0.34617   0.00000  Uiso   1.00
N572   N     0.76255   0.51453   0.65383   0.00000  Uiso   1.00
O573   O     0.75325   0.42871   0.53992   0.00000  Uiso   1.00
O574   O     0.74674   0.57129   0.46008   0.00000  Uiso   1.00
O575   O     0.74480   0.41892   0.43612   0.00000  Uiso   1.00
O576   O     0.75520   0.58108   0.56388   0.00000  Uiso   1.00
O577   O     0.68935   0.50488   0.55191   0.00000  Uiso   1.00
O578   O     0.81064   0.49512   0.44809   0.00000  Uiso   1.00
O579   O     0.68090   0.49510   0.44810   0.00000  Uiso   1.00
O580   O     0.81910   0.50490   0.55190   0.00000  Uiso   1.00
C581   C     0.24866   0.73325   0.48440   0.00000  Uiso   1.00
C582   C     0.09118   0.78650   0.47630   0.00000  Uiso   1.00
C583   C     0.38348   0.83380   0.49663   0.00000  Uiso   1.00
C584   C     0.11652   0.83286   0.50337   0.00000  Uiso   1.00
C585   C     0.40382   0.78776   0.46980   0.00000  Uiso   1.00
C586   C     0.09618   0.87891   0.53019   0.00000  Uiso   1.00
C587   C     0.45043   0.78715   0.47158   0.00000  Uiso   1.00
C588   C     0.04957   0.87951   0.52841   0.00000  Uiso   1.00
C589   C     0.47660   0.83385   0.49914   0.00000  Uiso   1.00
C590   C     0.02340   0.83282   0.50087   0.00000  Uiso   1.00
C591   C     0.45579   0.88147   0.52468   0.00000  Uiso   1.00
C592   C     0.25134   0.93342   0.51560   0.00000  Uiso   1.00
C593   C     0.04421   0.78520   0.47534   0.00000  Uiso   1.00
C594   C     0.47085   0.74010   0.44719   0.00000  Uiso   1.00
C595   C     0.02915   0.92657   0.55281   0.00000  Uiso   1.00
C596   C     0.04031   0.68558   0.42747   0.00000  Uiso   1.00
C597   C     0.00919   0.96915   0.40630   0.00000  Uiso   1.00
C598   C     0.45969   0.98107   0.57261   0.00000  Uiso   1.00
C599   C     0.49080   0.69750   0.59380   0.00000  Uiso   1.00
C600   C     0.01781   0.73783   0.44958   0.00000  Uiso   1.00
C601   C     0.48219   0.92883   0.55045   0.00000  Uiso   1.00
C602   C     0.24800   0.67722   0.47566   0.00000  Uiso   1.00
C603   C     0.25200   0.98945   0.52434   0.00000  Uiso   1.00
C604   C     0.16459   0.83346   0.50112   0.00000  Uiso   1.00
C605   C     0.33541   0.83320   0.49888   0.00000  Uiso   1.00
C606   C     0.40882   0.88016   0.52371   0.00000  Uiso   1.00
Cu607  Cu    0.25500   0.83913   0.56146   0.00000  Uiso   1.00
Cu608  Cu    0.24499   0.82754   0.43854   0.00000  Uiso   1.00
H609   H     0.39117   0.91476   0.54393   0.00000  Uiso   1.00
H610   H     0.28494   0.87395   0.35035   0.00000  Uiso   1.00
H611   H     0.48786   0.96404   0.44340   0.00000  Uiso   1.00
H612   H     0.48764   0.97110   0.36487   0.00000  Uiso   1.00
H613   H     0.02962   0.93387   0.39448   0.00000  Uiso   1.00
H614   H     0.06098   0.68886   0.38886   0.00000  Uiso   1.00
H615   H     0.06315   0.67894   0.46590   0.00000  Uiso   1.00
H616   H     0.01241   0.69549   0.63516   0.00000  Uiso   1.00
H617   H     0.01208   0.70269   0.55667   0.00000  Uiso   1.00
H618   H     0.47037   0.73276   0.60575   0.00000  Uiso   1.00
H619   H     0.43684   0.98773   0.53419   0.00000  Uiso   1.00
H620   H     0.10883   0.75190   0.45610   0.00000  Uiso   1.00
H621   H     0.43903   0.97776   0.61120   0.00000  Uiso   1.00
H622   H     0.38326   0.75210   0.44932   0.00000  Uiso   1.00
H623   H     0.11674   0.91457   0.55066   0.00000  Uiso   1.00
H624   H     0.44954   0.70517   0.42712   0.00000  Uiso   1.00
H625   H     0.05046   0.96150   0.57287   0.00000  Uiso   1.00
H626   H     0.24422   0.98657   0.42881   0.00000  Uiso   1.00
H627   H     0.25578   0.68010   0.57119   0.00000  Uiso   1.00
H628   H     0.21506   0.79272   0.64965   0.00000  Uiso   1.00
N629   N     0.23744   0.81881   0.34617   0.00000  Uiso   1.00
N630   N     0.26255   0.84786   0.65383   0.00000  Uiso   1.00
O631   O     0.25325   0.76204   0.53992   0.00000  Uiso   1.00
O632   O     0.24674   0.90462   0.46008   0.00000  Uiso   1.00
O633   O     0.24480   0.75226   0.43612   0.00000  Uiso   1.00
O634   O     0.25520   0.91441   0.56388   0.00000  Uiso   1.00
O635   O     0.18935   0.83821   0.55191   0.00000  Uiso   1.00
O636   O     0.31064   0.82845   0.44809   0.00000  Uiso   1.00
O637   O     0.18090   0.82843   0.44810   0.00000  Uiso   1.00
O638   O     0.31910   0.83824   0.55190   0.00000  Uiso   1.00
C639   C     0.74866   0.73325   0.48440   0.00000  Uiso   1.00
C640   C     0.59118   0.78650   0.47630   0.00000  Uiso   1.00
C641   C     0.88348   0.83380   0.49663   0.00000  Uiso   1.00
C642   C     0.61652   0.83286   0.50337   0.00000  Uiso   1.00
C643   C     0.90382   0.78776   0.46980   0.00000  Uiso   1.00
C644   C     0.59618   0.87891   0.53019   0.00000  Uiso   1.00
C645   C     0.95043   0.78715   0.47158   0.00000  Uiso   1.00
C646   C     0.54957   0.87951   0.52841   0.00000  Uiso   1.00
C647   C     0.97660   0.83385   0.49914   0.00000  Uiso   1.00
C648   C     0.52340   0.83282   0.50087   0.00000  Uiso   1.00
C649   C     0.95579   0.88147   0.52468   0.00000  Uiso   1.00
C650   C     0.75134   0.93342   0.51560   0.00000  Uiso   1.00
C651   C     0.54421   0.78520   0.47534   0.00000  Uiso   1.00
C652   C     0.97085   0.74010   0.44719   0.00000  Uiso   1.00
C653   C     0.52915   0.92657   0.55281   0.00000  Uiso   1.00
C654   C     0.54031   0.68558   0.42747   0.00000  Uiso   1.00
C655   C     0.50919   0.96915   0.40630   0.00000  Uiso   1.00
C656   C     0.95969   0.98107   0.57261   0.00000  Uiso   1.00
C657   C     0.99080   0.69750   0.59380   0.00000  Uiso   1.00
C658   C     0.51781   0.73783   0.44958   0.00000  Uiso   1.00
C659   C     0.98219   0.92883   0.55045   0.00000  Uiso   1.00
C660   C     0.74800   0.67722   0.47566   0.00000  Uiso   1.00
C661   C     0.75200   0.98945   0.52434   0.00000  Uiso   1.00
C662   C     0.66459   0.83346   0.50112   0.00000  Uiso   1.00
C663   C     0.83541   0.83320   0.49888   0.00000  Uiso   1.00
C664   C     0.90882   0.88016   0.52371   0.00000  Uiso   1.00
Cu665  Cu    0.75500   0.83913   0.56146   0.00000  Uiso   1.00
Cu666  Cu    0.74499   0.82754   0.43854   0.00000  Uiso   1.00
H667   H     0.89117   0.91476   0.54393   0.00000  Uiso   1.00
H668   H     0.78494   0.87395   0.35035   0.00000  Uiso   1.00
H669   H     0.98786   0.96404   0.44340   0.00000  Uiso   1.00
H670   H     0.98764   0.97110   0.36487   0.00000  Uiso   1.00
H671   H     0.52962   0.93387   0.39448   0.00000  Uiso   1.00
H672   H     0.56098   0.68886   0.38886   0.00000  Uiso   1.00
H673   H     0.56315   0.67894   0.46590   0.00000  Uiso   1.00
H674   H     0.51241   0.69549   0.63516   0.00000  Uiso   1.00
H675   H     0.51208   0.70269   0.55667   0.00000  Uiso   1.00
H676   H     0.97037   0.73276   0.60575   0.00000  Uiso   1.00
H677   H     0.93684   0.98773   0.53419   0.00000  Uiso   1.00
H678   H     0.60883   0.75190   0.45610   0.00000  Uiso   1.00
H679   H     0.93903   0.97776   0.61120   0.00000  Uiso   1.00
H680   H     0.88326   0.75210   0.44932   0.00000  Uiso   1.00
H681   H     0.61674   0.91457   0.55066   0.00000  Uiso   1.00
H682   H     0.94954   0.70517   0.42712   0.00000  Uiso   1.00
H683   H     0.55046   0.96150   0.57287   0.00000  Uiso   1.00
H684   H     0.74422   0.98657   0.42881   0.00000  Uiso   1.00
H685   H     0.75578   0.68010   0.57119   0.00000  Uiso   1.00
H686   H     0.71506   0.79272   0.64965   0.00000  Uiso   1.00
N687   N     0.73744   0.81881   0.34617   0.00000  Uiso   1.00
N688   N     0.76255   0.84786   0.65383   0.00000  Uiso   1.00
O689   O     0.75325   0.76204   0.53992   0.00000  Uiso   1.00
O690   O     0.74674   0.90462   0.46008   0.00000  Uiso   1.00
O691   O     0.74480   0.75226   0.43612   0.00000  Uiso   1.00
O692   O     0.75520   0.91441   0.56388   0.00000  Uiso   1.00
O693   O     0.68935   0.83821   0.55191   0.00000  Uiso   1.00
O694   O     0.81064   0.82845   0.44809   0.00000  Uiso   1.00
O695   O     0.68090   0.82843   0.44810   0.00000  Uiso   1.00
O696   O     0.81910   0.83824   0.55190   0.00000  Uiso   1.00
C697   C     0.24866   0.06658   0.81773   0.00000  Uiso   1.00
C698   C     0.09118   0.11983   0.80963   0.00000  Uiso   1.00
C699   C     0.38348   0.16714   0.82997   0.00000  Uiso   1.00
C700   C     0.11652   0.16620   0.83670   0.00000  Uiso   1.00
C701   C     0.40382   0.12109   0.80313   0.00000  Uiso   1.00
C702   C     0.09618   0.21224   0.86352   0.00000  Uiso   1.00
C703   C     0.45043   0.12049   0.80491   0.00000  Uiso   1.00
C704   C     0.04957   0.21285   0.86175   0.00000  Uiso   1.00
C705   C     0.47660   0.16718   0.83247   0.00000  Uiso   1.00
C706   C     0.02340   0.16615   0.83420   0.00000  Uiso   1.00
C707   C     0.45579   0.21480   0.85801   0.00000  Uiso   1.00
C708   C     0.25134   0.26675   0.84894   0.00000  Uiso   1.00
C709   C     0.04421   0.11853   0.80867   0.00000  Uiso   1.00
C710   C     0.47085   0.07343   0.78053   0.00000  Uiso   1.00
C711   C     0.02915   0.25991   0.88614   0.00000  Uiso   1.00
C712   C     0.04031   0.01891   0.76080   0.00000  Uiso   1.00
C713   C     0.00919   0.30248   0.73963   0.00000  Uiso   1.00
C714   C     0.45969   0.31441   0.90594   0.00000  Uiso   1.00
C715   C     0.49080   0.03084   0.92714   0.00000  Uiso   1.00
C716   C     0.01781   0.07116   0.78291   0.00000  Uiso   1.00
C717   C     0.48219   0.26216   0.88378   0.00000  Uiso   1.00
C718   C     0.24800   0.01055   0.80899   0.00000  Uiso   1.00
C719   C     0.25200   0.32278   0.85767   0.00000  Uiso   1.00
C720   C     0.16459   0.16680   0.83445   0.00000  Uiso   1.00
C721   C     0.33541   0.16654   0.83221   0.00000  Uiso   1.00
C722   C     0.40882   0.21350   0.85705   0.00000  Uiso   1.00
Cu723  Cu    0.25500   0.17246   0.89479   0.00000  Uiso   1.00
Cu724  Cu    0.24499   0.16087   0.77187   0.00000  Uiso   1.00
H725   H     0.39117   0.24810   0.87726   0.00000  Uiso   1.00
H726   H     0.28494   0.20728   0.68369   0.00000  Uiso   1.00
H727   H     0.48786   0.29737   0.77673   0.00000  Uiso   1.00
H728   H     0.48764   0.30444   0.69820   0.00000  Uiso   1.00
H729   H     0.02962   0.26721   0.72782   0.00000  Uiso   1.00
H730   H     0.06098   0.02219   0.72220   0.00000  Uiso   1.00
H731   H     0.06315   0.01228   0.79923   0.00000  Uiso   1.00
H732   H     0.01241   0.02882   0.96850   0.00000  Uiso   1.00
H733   H     0.01208   0.03602   0.89001   0.00000  Uiso   1.00
H734   H     0.47037   0.06610   0.93908   0.00000  Uiso   1.00
H735   H     0.43684   0.32107   0.86752   0.00000  Uiso   1.00
H736   H     0.10883   0.08523   0.78943   0.00000  Uiso   1.00
H737   H     0.43903   0.31110   0.94454   0.00000  Uiso   1.00
H738   H     0.38326   0.08543   0.78265   0.00000  Uiso   1.00
H739   H     0.11674   0.24791   0.88399   0.00000  Uiso   1.00
H740   H     0.44954   0.03850   0.76045   0.00000  Uiso   1.00
H741   H     0.05046   0.29484   0.90620   0.00000  Uiso   1.00
H742   H     0.24422   0.31990   0.76215   0.00000  Uiso   1.00
H743   H     0.25578   0.01343   0.90452   0.00000  Uiso   1.00
H744   H     0.21506   0.12605   0.98298   0.00000  Uiso   1.00
N745   N     0.23744   0.15214   0.67951   0.00000  Uiso   1.00
N746   N     0.26255   0.18119   0.98716   0.00000  Uiso   1.00
O747   O     0.25325   0.09538   0.87326   0.00000  Uiso   1.00
O748   O     0.24674   0.23796   0.79341   0.00000  Uiso   1.00
O749   O     0.24480   0.08559   0.76945   0.00000  Uiso   1.00
O750   O     0.25520   0.24774   0.89721   0.00000  Uiso   1.00
O751   O     0.18935   0.17155   0.88524   0.00000  Uiso   1.00
O752   O     0.31064   0.16179   0.78143   0.00000  Uiso   1.00
O753   O     0.18090   0.16176   0.78143   0.00000  Uiso   1.00
O754   O     0.31910   0.17157   0.88523   0.00000  Uiso   1.00
C755   C     0.74866   0.06658   0.81773   0.00000  Uiso   1.00
C756   C     0.59118   0.11983   0.80963   0.00000  Uiso   1.00
C757   C     0.88348   0.16714   0.82997   0.00000  Uiso   1.00
C758   C     0.61652   0.16620   0.83670   0.00000  Uiso   1.00
C759   C     0.90382   0.12109   0.80313   0.00000  Uiso   1.00
C760   C     0.59618   0.21224   0.86352   0.00000  Uiso   1.00
C761   C     0.95043   0.12049   0.80491   0.00000  Uiso   1.00
C762   C     0.54957   0.21285   0.86175   0.00000  Uiso   1.00
C763   C     0.97660   0.16718   0.83247   0.00000  Uiso   1.00
C764   C     0.52340   0.16615   0.83420   0.00000  Uiso   1.00
C765   C     0.95579   0.21480   0.85801   0.00000  Uiso   1.00
C766   C     0.75134   0.26675   0.84894   0.00000  Uiso   1.00
C767   C     0.54421   0.11853   0.80867   0.00000  Uiso   1.00
C768   C     0.97085   0.07343   0.78053   0.00000  Uiso   1.00
C769   C     0.52915   0.25991   0.88614   0.00000  Uiso   1.00
C770   C     0.54031   0.01891   0.76080   0.00000  Uiso   1.00
C771   C     0.50919   0.30248   0.73963   0.00000  Uiso   1.00
C772   C     0.95969   0.31441   0.90594   0.00000  Uiso   1.00
C773   C     0.99080   0.03084   0.92714   0.00000  Uiso   1.00
C774   C     0.51781   0.07116   0.78291   0.00000  Uiso   1.00
C775   C     0.98219   0.26216   0.88378   0.00000  Uiso   1.00
C776   C     0.74800   0.01055   0.80899   0.00000  Uiso   1.00
C777   C     0.75200   0.32278   0.85767   0.00000  Uiso   1.00
C778   C     0.66459   0.16680   0.83445   0.00000  Uiso   1.00
C779   C     0.83541   0.16654   0.83221   0.00000  Uiso   1.00
C780   C     0.90882   0.21350   0.85705   0.00000  Uiso   1.00
Cu781  Cu    0.75500   0.17246   0.89479   0.00000  Uiso   1.00
Cu782  Cu    0.74499   0.16087   0.77187   0.00000  Uiso   1.00
H783   H     0.89117   0.24810   0.87726   0.00000  Uiso   1.00
H784   H     0.78494   0.20728   0.68369   0.00000  Uiso   1.00
H785   H     0.98786   0.29737   0.77673   0.00000  Uiso   1.00
H786   H     0.98764   0.30444   0.69820   0.00000  Uiso   1.00
H787   H     0.52962   0.26721   0.72782   0.00000  Uiso   1.00
H788   H     0.56098   0.02219   0.72220   0.00000  Uiso   1.00
H789   H     0.56315   0.01228   0.79923   0.00000  Uiso   1.00
H790   H     0.51241   0.02882   0.96850   0.00000  Uiso   1.00
H791   H     0.51208   0.03602   0.89001   0.00000  Uiso   1.00
H792   H     0.97037   0.06610   0.93908   0.00000  Uiso   1.00
H793   H     0.93684   0.32107   0.86752   0.00000  Uiso   1.00
H794   H     0.60883   0.08523   0.78943   0.00000  Uiso   1.00
H795   H     0.93903   0.31110   0.94454   0.00000  Uiso   1.00
H796   H     0.88326   0.08543   0.78265   0.00000  Uiso   1.00
H797   H     0.61674   0.24791   0.88399   0.00000  Uiso   1.00
H798   H     0.94954   0.03850   0.76045   0.00000  Uiso   1.00
H799   H     0.55046   0.29484   0.90620   0.00000  Uiso   1.00
H800   H     0.74422   0.31990   0.76215   0.00000  Uiso   1.00
H801   H     0.75578   0.01343   0.90452   0.00000  Uiso   1.00
H802   H     0.71506   0.12605   0.98298   0.00000  Uiso   1.00
N803   N     0.73744   0.15214   0.67951   0.00000  Uiso   1.00
N804   N     0.76255   0.18119   0.98716   0.00000  Uiso   1.00
O805   O     0.75325   0.09538   0.87326   0.00000  Uiso   1.00
O806   O     0.74674   0.23796   0.79341   0.00000  Uiso   1.00
O807   O     0.74480   0.08559   0.76945   0.00000  Uiso   1.00
O808   O     0.75520   0.24774   0.89721   0.00000  Uiso   1.00
O809   O     0.68935   0.17155   0.88524   0.00000  Uiso   1.00
O810   O     0.81064   0.16179   0.78143   0.00000  Uiso   1.00
O811   O     0.68090   0.16176   0.78143   0.00000  Uiso   1.00
O812   O     0.81910   0.17157   0.88523   0.00000  Uiso   1.00
C813   C     0.24866   0.39992   0.81773   0.00000  Uiso   1.00
C814   C     0.09118   0.45317   0.80963   0.00000  Uiso   1.00
C815   C     0.38348   0.50047   0.82997   0.00000  Uiso   1.00
C816   C     0.11652   0.49953   0.83670   0.00000  Uiso   1.00
C817   C     0.40382   0.45443   0.80313   0.00000  Uiso   1.00
C818   C     0.09618   0.54558   0.86352   0.00000  Uiso   1.00
C819   C     0.45043   0.45382   0.80491   0.00000  Uiso   1.00
C820   C     0.04957   0.54618   0.86175   0.00000  Uiso   1.00
C821   C     0.47660   0.50051   0.83247   0.00000  Uiso   1.00
C822   C     0.02340   0.49949   0.83420   0.00000  Uiso   1.00
C823   C     0.45579   0.54813   0.85801   0.00000  Uiso   1.00
C824   C     0.25134   0.60008   0.84894   0.00000  Uiso   1.00
C825   C     0.04421   0.45186   0.80867   0.00000  Uiso   1.00
C826   C     0.47085   0.40676   0.78053   0.00000  Uiso   1.00
C827   C     0.02915   0.59324   0.88614   0.00000  Uiso   1.00
C828   C     0.04031   0.35225   0.76080   0.00000  Uiso   1.00
C829   C     0.00919   0.63582   0.73963   0.00000  Uiso   1.00
C830   C     0.45969   0.64774   0.90594   0.00000  Uiso   1.00
C831   C     0.49080   0.36417   0.92714   0.00000  Uiso   1.00
C832   C     0.01781   0.40450   0.78291   0.00000  Uiso   1.00
C833   C     0.48219   0.59550   0.88378   0.00000  Uiso   1.00
C834   C     0.24800   0.34388   0.80899   0.00000  Uiso   1.00
C835   C     0.25200   0.65612   0.85767   0.00000  Uiso   1.00
C836   C     0.16459   0.50013   0.83445   0.00000  Uiso   1.00
C837   C     0.33541   0.49987   0.83221   0.00000  Uiso   1.00
C838   C     0.40882   0.54683   0.85705   0.00000  Uiso   1.00
Cu839  Cu    0.25500   0.50579   0.89479   0.00000  Uiso   1.00
Cu840  Cu    0.24499   0.49421   0.77187   0.00000  Uiso   1.00
H841   H     0.39117   0.58143   0.87726   0.00000  Uiso   1.00
H842   H     0.28494   0.54061   0.68369   0.00000  Uiso   1.00
H843   H     0.48786   0.63070   0.77673   0.00000  Uiso   1.00
H844   H     0.48764   0.63777   0.69820   0.00000  Uiso   1.00
H845   H     0.02962   0.60054   0.72782   0.00000  Uiso   1.00
H846   H     0.06098   0.35553   0.72220   0.00000  Uiso   1.00
H847   H     0.06315   0.34561   0.79923   0.00000  Uiso   1.00
H848   H     0.01241   0.36216   0.96850   0.00000  Uiso   1.00
H849   H     0.01208   0.36935   0.89001   0.00000  Uiso   1.00
H850   H     0.47037   0.39943   0.93908   0.00000  Uiso   1.00
H851   H     0.43684   0.65440   0.86752   0.00000  Uiso   1.00
H852   H     0.10883   0.41856   0.78943   0.00000  Uiso   1.00
H853   H     0.43903   0.64443   0.94454   0.00000  Uiso   1.00
H854   H     0.38326   0.41877   0.78265   0.00000  Uiso   1.00
H855   H     0.11674   0.58124   0.88399   0.00000  Uiso   1.00
H856   H     0.44954   0.37183   0.76045   0.00000  Uiso   1.00
H857   H     0.05046   0.62817   0.90620   0.00000  Uiso   1.00
H858   H     0.24422   0.65323   0.76215   0.00000  Uiso   1.00
H859   H     0.25578   0.34677   0.90452   0.00000  Uiso   1.00
H860   H     0.21506   0.45939   0.98298   0.00000  Uiso   1.00
N861   N     0.23744   0.48547   0.67951   0.00000  Uiso   1.00
N862   N     0.26255   0.51453   0.98716   0.00000  Uiso   1.00
O863   O     0.25325   0.42871   0.87326   0.00000  Uiso   1.00
O864   O     0.24674   0.57129   0.79341   0.00000  Uiso   1.00
O865   O     0.24480   0.41892   0.76945   0.00000  Uiso   1.00
O866   O     0.25520   0.58108   0.89721   0.00000  Uiso   1.00
O867   O     0.18935   0.50488   0.88524   0.00000  Uiso   1.00
O868   O     0.31064   0.49512   0.78143   0.00000  Uiso   1.00
O869   O     0.18090   0.49510   0.78143   0.00000  Uiso   1.00
O870   O     0.31910   0.50490   0.88523   0.00000  Uiso   1.00
C871   C     0.74866   0.39992   0.81773   0.00000  Uiso   1.00
C872   C     0.59118   0.45317   0.80963   0.00000  Uiso   1.00
C873   C     0.88348   0.50047   0.82997   0.00000  Uiso   1.00
C874   C     0.61652   0.49953   0.83670   0.00000  Uiso   1.00
C875   C     0.90382   0.45443   0.80313   0.00000  Uiso   1.00
C876   C     0.59618   0.54558   0.86352   0.00000  Uiso   1.00
C877   C     0.95043   0.45382   0.80491   0.00000  Uiso   1.00
C878   C     0.54957   0.54618   0.86175   0.00000  Uiso   1.00
C879   C     0.97660   0.50051   0.83247   0.00000  Uiso   1.00
C880   C     0.52340   0.49949   0.83420   0.00000  Uiso   1.00
C881   C     0.95579   0.54813   0.85801   0.00000  Uiso   1.00
C882   C     0.75134   0.60008   0.84894   0.00000  Uiso   1.00
C883   C     0.54421   0.45186   0.80867   0.00000  Uiso   1.00
C884   C     0.97085   0.40676   0.78053   0.00000  Uiso   1.00
C885   C     0.52915   0.59324   0.88614   0.00000  Uiso   1.00
C886   C     0.54031   0.35225   0.76080   0.00000  Uiso   1.00
C887   C     0.50919   0.63582   0.73963   0.00000  Uiso   1.00
C888   C     0.95969   0.64774   0.90594   0.00000  Uiso   1.00
C889   C     0.99080   0.36417   0.92714   0.00000  Uiso   1.00
C890   C     0.51781   0.40450   0.78291   0.00000  Uiso   1.00
C891   C     0.98219   0.59550   0.88378   0.00000  Uiso   1.00
C892   C     0.74800   0.34388   0.80899   0.00000  Uiso   1.00
C893   C     0.75200   0.65612   0.85767   0.00000  Uiso   1.00
C894   C     0.66459   0.50013   0.83445   0.00000  Uiso   1.00
C895   C     0.83541   0.49987   0.83221   0.00000  Uiso   1.00
C896   C     0.90882   0.54683   0.85705   0.00000  Uiso   1.00
Cu897  Cu    0.75500   0.50579   0.89479   0.00000  Uiso   1.00
Cu898  Cu    0.74499   0.49421   0.77187   0.00000  Uiso   1.00
H899   H     0.89117   0.58143   0.87726   0.00000  Uiso   1.00
H900   H     0.78494   0.54061   0.68369   0.00000  Uiso   1.00
H901   H     0.98786   0.63070   0.77673   0.00000  Uiso   1.00
H902   H     0.98764   0.63777   0.69820   0.00000  Uiso   1.00
H903   H     0.52962   0.60054   0.72782   0.00000  Uiso   1.00
H904   H     0.56098   0.35553   0.72220   0.00000  Uiso   1.00
H905   H     0.56315   0.34561   0.79923   0.00000  Uiso   1.00
H906   H     0.51241   0.36216   0.96850   0.00000  Uiso   1.00
H907   H     0.51208   0.36935   0.89001   0.00000  Uiso   1.00
H908   H     0.97037   0.39943   0.93908   0.00000  Uiso   1.00
H909   H     0.93684   0.65440   0.86752   0.00000  Uiso   1.00
H910   H     0.60883   0.41856   0.78943   0.00000  Uiso   1.00
H911   H     0.93903   0.64443   0.94454   0.00000  Uiso   1.00
H912   H     0.88326   0.41877   0.78265   0.00000  Uiso   1.00
H913   H     0.61674   0.58124   0.88399   0.00000  Uiso   1.00
H914   H     0.94954   0.37183   0.76045   0.00000  Uiso   1.00
H915   H     0.55046   0.62817   0.90620   0.00000  Uiso   1.00
H916   H     0.74422   0.65323   0.76215   0.00000  Uiso   1.00
H917   H     0.75578   0.34677   0.90452   0.00000  Uiso   1.00
H918   H     0.71506   0.45939   0.98298   0.00000  Uiso   1.00
N919   N     0.73744   0.48547   0.67951   0.00000  Uiso   1.00
N920   N     0.76255   0.51453   0.98716   0.00000  Uiso   1.00
O921   O     0.75325   0.42871   0.87326   0.00000  Uiso   1.00
O922   O     0.74674   0.57129   0.79341   0.00000  Uiso   1.00
O923   O     0.74480   0.41892   0.76945   0.00000  Uiso   1.00
O924   O     0.75520   0.58108   0.89721   0.00000  Uiso   1.00
O925   O     0.68935   0.50488   0.88524   0.00000  Uiso   1.00
O926   O     0.81064   0.49512   0.78143   0.00000  Uiso   1.00
O927   O     0.68090   0.49510   0.78143   0.00000  Uiso   1.00
O928   O     0.81910   0.50490   0.88523   0.00000  Uiso   1.00
C929   C     0.24866   0.73325   0.81773   0.00000  Uiso   1.00
C930   C     0.09118   0.78650   0.80963   0.00000  Uiso   1.00
C931   C     0.38348   0.83380   0.82997   0.00000  Uiso   1.00
C932   C     0.11652   0.83286   0.83670   0.00000  Uiso   1.00
C933   C     0.40382   0.78776   0.80313   0.00000  Uiso   1.00
C934   C     0.09618   0.87891   0.86352   0.00000  Uiso   1.00
C935   C     0.45043   0.78715   0.80491   0.00000  Uiso   1.00
C936   C     0.04957   0.87951   0.86175   0.00000  Uiso   1.00
C937   C     0.47660   0.83385   0.83247   0.00000  Uiso   1.00
C938   C     0.02340   0.83282   0.83420   0.00000  Uiso   1.00
C939   C     0.45579   0.88147   0.85801   0.00000  Uiso   1.00
C940   C     0.25134   0.93342   0.84894   0.00000  Uiso   1.00
C941   C     0.04421   0.78520   0.80867   0.00000  Uiso   1.00
C942   C     0.47085   0.74010   0.78053   0.00000  Uiso   1.00
C943   C     0.02915   0.92657   0.88614   0.00000  Uiso   1.00
C944   C     0.04031   0.68558   0.76080   0.00000  Uiso   1.00
C945   C     0.00919   0.96915   0.73963   0.00000  Uiso   1.00
C946   C     0.45969   0.98107   0.90594   0.00000  Uiso   1.00
C947   C     0.49080   0.69750   0.92714   0.00000  Uiso   1.00
C948   C     0.01781   0.73783   0.78291   0.00000  Uiso   1.00
C949   C     0.48219   0.92883   0.88378   0.00000  Uiso   1.00
C950   C     0.24800   0.67722   0.80899   0.00000  Uiso   1.00
C951   C     0.25200   0.98945   0.85767   0.00000  Uiso   1.00
C952   C     0.16459   0.83346   0.83445   0.00000  Uiso   1.00
C953   C     0.33541   0.83320   0.83221   0.00000  Uiso   1.00
C954   C     0.40882   0.88016   0.85705   0.00000  Uiso   1.00
Cu955  Cu    0.25500   0.83913   0.89479   0.00000  Uiso   1.00
Cu956  Cu    0.24499   0.82754   0.77187   0.00000  Uiso   1.00
H957   H     0.39117   0.91476   0.87726   0.00000  Uiso   1.00
H958   H     0.28494   0.87395   0.68369   0.00000  Uiso   1.00
H959   H     0.48786   0.96404   0.77673   0.00000  Uiso   1.00
H960   H     0.48764   0.97110   0.69820   0.00000  Uiso   1.00
H961   H     0.02962   0.93387   0.72782   0.00000  Uiso   1.00
H962   H     0.06098   0.68886   0.72220   0.00000  Uiso   1.00
H963   H     0.06315   0.67894   0.79923   0.00000  Uiso   1.00
H964   H     0.01241   0.69549   0.96850   0.00000  Uiso   1.00
H965   H     0.01208   0.70269   0.89001   0.00000  Uiso   1.00
H966   H     0.47037   0.73276   0.93908   0.00000  Uiso   1.00
H967   H     0.43684   0.98773   0.86752   0.00000  Uiso   1.00
H968   H     0.10883   0.75190   0.78943   0.00000  Uiso   1.00
H969   H     0.43903   0.97776   0.94454   0.00000  Uiso   1.00
H970   H     0.38326   0.75210   0.78265   0.00000  Uiso   1.00
H971   H     0.11674   0.91457   0.88399   0.00000  Uiso   1.00
H972   H     0.44954   0.70517   0.76045   0.00000  Uiso   1.00
H973   H     0.05046   0.96150   0.90620   0.00000  Uiso   1.00
H974   H     0.24422   0.98657   0.76215   0.00000  Uiso   1.00
H975   H     0.25578   0.68010   0.90452   0.00000  Uiso   1.00
H976   H     0.21506   0.79272   0.98298   0.00000  Uiso   1.00
N977   N     0.23744   0.81881   0.67951   0.00000  Uiso   1.00
N978   N     0.26255   0.84786   0.98716   0.00000  Uiso   1.00
O979   O     0.25325   0.76204   0.87326   0.00000  Uiso   1.00
O980   O     0.24674   0.90462   0.79341   0.00000  Uiso   1.00
O981   O     0.24480   0.75226   0.76945   0.00000  Uiso   1.00
O982   O     0.25520   0.91441   0.89721   0.00000  Uiso   1.00
O983   O     0.18935   0.83821   0.88524   0.00000  Uiso   1.00
O984   O     0.31064   0.82845   0.78143   0.00000  Uiso   1.00
O985   O     0.18090   0.82843   0.78143   0.00000  Uiso   1.00
O986   O     0.31910   0.83824   0.88523   0.00000  Uiso   1.00
C987   C     0.74866   0.73325   0.81773   0.00000  Uiso   1.00
C988   C     0.59118   0.78650   0.80963   0.00000  Uiso   1.00
C989   C     0.88348   0.83380   0.82997   0.00000  Uiso   1.00
C990   C     0.61652   0.83286   0.83670   0.00000  Uiso   1.00
C991   C     0.90382   0.78776   0.80313   0.00000  Uiso   1.00
C992   C     0.59618   0.87891   0.86352   0.00000  Uiso   1.00
C993   C     0.95043   0.78715   0.80491   0.00000  Uiso   1.00
C994   C     0.54957   0.87951   0.86175   0.00000  Uiso   1.00
C995   C     0.97660   0.83385   0.83247   0.00000  Uiso   1.00
C996   C     0.52340   0.83282   0.83420   0.00000  Uiso   1.00
C997   C     0.95579   0.88147   0.85801   0.00000  Uiso   1.00
C998   C     0.75134   0.93342   0.84894   0.00000  Uiso   1.00
C999   C     0.54421   0.78520   0.80867   0.00000  Uiso   1.00
C1000  C     0.97085   0.74010   0.78053   0.00000  Uiso   1.00
C1001  C     0.52915   0.92657   0.88614   0.00000  Uiso   1.00
C1002  C     0.54031   0.68558   0.76080   0.00000  Uiso   1.00
C1003  C     0.50919   0.96915   0.73963   0.00000  Uiso   1.00
C1004  C     0.95969   0.98107   0.90594   0.00000  Uiso   1.00
C1005  C     0.99080   0.69750   0.92714   0.00000  Uiso   1.00
C1006  C     0.51781   0.73783   0.78291   0.00000  Uiso   1.00
C1007  C     0.98219   0.92883   0.88378   0.00000  Uiso   1.00
C1008  C     0.74800   0.67722   0.80899   0.00000  Uiso   1.00
C1009  C     0.75200   0.98945   0.85767   0.00000  Uiso   1.00
C1010  C     0.66459   0.83346   0.83445   0.00000  Uiso   1.00
C1011  C     0.83541   0.83320   0.83221   0.00000  Uiso   1.00
C1012  C     0.90882   0.88016   0.85705   0.00000  Uiso   1.00
Cu1013 Cu    0.75500   0.83913   0.89479   0.00000  Uiso   1.00
Cu1014 Cu    0.74499   0.82754   0.77187   0.00000  Uiso   1.00
H1015  H     0.89117   0.91476   0.87726   0.00000  Uiso   1.00
H1016  H     0.78494   0.87395   0.68369   0.00000  Uiso   1.00
H1017  H     0.98786   0.96404   0.77673   0.00000  Uiso   1.00
H1018  H     0.98764   0.97110   0.69820   0.00000  Uiso   1.00
H1019  H     0.52962   0.93387   0.72782   0.00000  Uiso   1.00
H1020  H     0.56098   0.68886   0.72220   0.00000  Uiso   1.00
H1021  H     0.56315   0.67894   0.79923   0.00000  Uiso   1.00
H1022  H     0.51241   0.69549   0.96850   0.00000  Uiso   1.00
H1023  H     0.51208   0.70269   0.89001   0.00000  Uiso   1.00
H1024  H     0.97037   0.73276   0.93908   0.00000  Uiso   1.00
H1025  H     0.93684   0.98773   0.86752   0.00000  Uiso   1.00
H1026  H     0.60883   0.75190   0.78943   0.00000  Uiso   1.00
H1027  H     0.93903   0.97776   0.94454   0.00000  Uiso   1.00
H1028  H     0.88326   0.75210   0.78265   0.00000  Uiso   1.00
H1029  H     0.61674   0.91457   0.88399   0.00000  Uiso   1.00
H1030  H     0.94954   0.70517   0.76045   0.00000  Uiso   1.00
H1031  H     0.55046   0.96150   0.90620   0.00000  Uiso   1.00
H1032  H     0.74422   0.98657   0.76215   0.00000  Uiso   1.00
H1033  H     0.75578   0.68010   0.90452   0.00000  Uiso   1.00
H1034  H     0.71506   0.79272   0.98298   0.00000  Uiso   1.00
N1035  N     0.73744   0.81881   0.67951   0.00000  Uiso   1.00
N1036  N     0.76255   0.84786   0.98716   0.00000  Uiso   1.00
O1037  O     0.75325   0.76204   0.87326   0.00000  Uiso   1.00
O1038  O     0.74674   0.90462   0.79341   0.00000  Uiso   1.00
O1039  O     0.74480   0.75226   0.76945   0.00000  Uiso   1.00
O1040  O     0.75520   0.91441   0.89721   0.00000  Uiso   1.00
O1041  O     0.68935   0.83821   0.88524   0.00000  Uiso   1.00
O1042  O     0.81064   0.82845   0.78143   0.00000  Uiso   1.00
O1043  O     0.68090   0.82843   0.78143   0.00000  Uiso   1.00
O1044  O     0.81910   0.83824   0.88523   0.00000  Uiso   1.00
loop_
_geom_bond_atom_site_label_1
_geom_bond_atom_site_label_2
_geom_bond_distance
_geom_bond_site_symmetry_2
_ccdc_geom_bond_type
C1     O51     1.293   .     A
C1     C22     1.424   .     S
C1     O53     1.286   .     A
C2     C4      1.392   .     A
C2     H40     1.082   .     S
C2     C13     1.403   .     A
C3     C26     1.392   .     A
C3     C25     1.441   .     S
C3     C5      1.391   .     A
C4     C24     1.441   .     S
C4     C6      1.391   .     A
C5     H42     1.085   .     S
C5     C7      1.393   .     A
C6     H43     1.085   .     S
C6     C8      1.393   .     A
C7     C9      1.413   .     A
C7     C14     1.399   .     A
C8     C10     1.413   .     A
C8     C15     1.400   .     A
C9     C11     1.423   .     A
C9     C68     1.399   .     S
C10    C13     1.423   .     A
C10    C67     1.399   1_455 S
C11    C26     1.402   .     A
C11    C21     1.422   .     A
C12    O52     1.293   .     A
C12    C23     1.424   .     S
C12    O54     1.286   .     A
C13    C20     1.422   .     A
C14    H44     1.081   .     S
C14    C78     1.406   .     S
C15    H45     1.081   .     S
C15    C79     1.406   1_455 S
C16    C20     1.531   .     S
C16    H35     1.112   .     S
C16    H34     1.111   .     S
C16    C249    1.531   1_545 S
C17    H33     1.111   .     S
C17    C132    1.531   .     S
C17    H89     1.107   1_455 S
C17    H90     1.106   1_455 S
C18    C21     1.531   .     S
C18    H41     1.111   .     S
C18    H39     1.112   .     S
C18    C135    1.531   .     S
C19    H38     1.111   .     S
C19    C250    1.531   1_545 S
C19    H94     1.107   .     S
C19    H95     1.107   .     S
C20    C72     1.406   1_455 S
C21    C73     1.406   .     S
C22    C255    1.327   1_545 S
C22    H278    1.088   1_545 S
C23    C138    1.327   .     S
C23    H163    1.088   .     S
C24    O55     1.295   .     A
C24    O57     1.293   .     A
C25    O56     1.295   .     A
C25    O58     1.293   .     A
C26    H29     1.082   .     S
Cu27   N50     2.024   .     S
Cu27   O54     1.944   .     S
Cu27   O58     1.943   .     S
Cu27   O51     1.949   .     S
Cu27   O55     1.960   .     S
Cu27   Cu28    2.694   .     S
Cu28   O53     1.944   .     S
Cu28   O52     1.949   .     S
Cu28   O57     1.943   .     S
Cu28   O56     1.960   .     S
Cu28   N49     2.024   .     S
H30    N746    1.029   1_554 S
H31    C75     1.107   .     S
H32    C75     1.106   .     S
H36    C77     1.107   1_455 S
H37    C77     1.107   1_455 S
H46    C138    1.088   .     S
H47    C255    1.088   1_545 S
H48    N397    1.029   .     S
N49    H744    1.029   1_554 S
N49    N746    1.295   1_554 S
N50    N397    1.295   .     S
N50    H378    1.029   .     S
C59    O109    1.293   .     A
C59    C80     1.424   .     S
C59    O111    1.286   .     A
C60    C62     1.392   .     A
C60    H98     1.082   .     S
C60    C71     1.403   .     A
C61    C84     1.392   .     A
C61    C83     1.441   .     S
C61    C63     1.391   .     A
C62    C82     1.441   .     S
C62    C64     1.391   .     A
C63    H100    1.085   .     S
C63    C65     1.393   .     A
C64    H101    1.085   .     S
C64    C66     1.393   .     A
C65    C67     1.413   .     A
C65    C72     1.399   .     A
C66    C68     1.413   .     A
C66    C73     1.400   .     A
C67    C69     1.423   .     A
C67    C10     1.399   1_655 S
C68    C71     1.423   .     A
C69    C84     1.402   .     A
C69    C79     1.422   .     A
C70    O110    1.293   .     A
C70    C81     1.424   .     S
C70    O112    1.286   .     A
C71    C78     1.422   .     A
C72    H102    1.081   .     S
C72    C20     1.406   1_655 S
C73    H103    1.081   .     S
C74    C78     1.531   .     S
C74    H93     1.112   .     S
C74    H92     1.111   .     S
C74    C307    1.531   1_545 S
C75    H91     1.111   .     S
C75    C190    1.531   .     S
C76    C79     1.531   .     S
C76    H99     1.111   .     S
C76    H97     1.112   .     S
C76    C193    1.531   .     S
C77    H96     1.111   .     S
C77    C308    1.531   1_545 S
C77    H36     1.107   1_655 S
C77    H37     1.107   1_655 S
C79    C15     1.406   1_655 S
C80    C313    1.327   1_545 S
C80    H336    1.088   1_545 S
C81    C196    1.327   .     S
C81    H221    1.088   .     S
C82    O113    1.295   .     A
C82    O115    1.293   .     A
C83    O114    1.295   .     A
C83    O116    1.293   .     A
C84    H87     1.082   .     S
Cu85   N108    2.024   .     S
Cu85   O112    1.944   .     S
Cu85   O116    1.943   .     S
Cu85   O109    1.949   .     S
Cu85   O113    1.960   .     S
Cu85   Cu86    2.694   .     S
Cu86   O111    1.944   .     S
Cu86   O110    1.949   .     S
Cu86   O115    1.943   .     S
Cu86   O114    1.960   .     S
Cu86   N107    2.024   .     S
H88    N804    1.029   1_554 S
H89    C17     1.107   1_655 S
H90    C17     1.106   1_655 S
H104   C196    1.088   .     S
H105   C313    1.088   1_545 S
H106   N455    1.029   .     S
N107   H802    1.029   1_554 S
N107   N804    1.295   1_554 S
N108   N455    1.295   .     S
N108   H436    1.029   .     S
C117   O167    1.293   .     A
C117   C138    1.424   .     S
C117   O169    1.286   .     A
C118   C120    1.392   .     A
C118   H156    1.082   .     S
C118   C129    1.403   .     A
C119   C142    1.392   .     A
C119   C141    1.441   .     S
C119   C121    1.391   .     A
C120   C140    1.441   .     S
C120   C122    1.391   .     A
C121   H158    1.085   .     S
C121   C123    1.393   .     A
C122   H159    1.085   .     S
C122   C124    1.393   .     A
C123   C125    1.413   .     A
C123   C130    1.399   .     A
C124   C126    1.413   .     A
C124   C131    1.400   .     A
C125   C127    1.423   .     A
C125   C184    1.399   .     S
C126   C129    1.423   .     A
C126   C183    1.399   1_455 S
C127   C142    1.402   .     A
C127   C137    1.422   .     A
C128   O168    1.293   .     A
C128   C139    1.424   .     S
C128   O170    1.286   .     A
C129   C136    1.422   .     A
C130   H160    1.081   .     S
C130   C194    1.406   .     S
C131   H161    1.081   .     S
C131   C195    1.406   1_455 S
C132   C136    1.531   .     S
C132   H151    1.112   .     S
C132   H150    1.111   .     S
C133   H149    1.111   .     S
C133   C248    1.531   .     S
C133   H205    1.107   1_455 S
C133   H206    1.106   1_455 S
C134   C137    1.531   .     S
C134   H157    1.111   .     S
C134   H155    1.112   .     S
C134   C251    1.531   .     S
C135   H154    1.111   .     S
C135   H210    1.107   .     S
C135   H211    1.107   .     S
C136   C188    1.406   1_455 S
C137   C189    1.406   .     S
C139   C254    1.327   .     S
C139   H279    1.088   .     S
C140   O171    1.295   .     A
C140   O173    1.293   .     A
C141   O172    1.295   .     A
C141   O174    1.293   .     A
C142   H145    1.082   .     S
Cu143  N166    2.024   .     S
Cu143  O170    1.944   .     S
Cu143  O174    1.943   .     S
Cu143  O167    1.949   .     S
Cu143  O171    1.960   .     S
Cu143  Cu144   2.694   .     S
Cu144  O169    1.944   .     S
Cu144  O168    1.949   .     S
Cu144  O173    1.943   .     S
Cu144  O172    1.960   .     S
Cu144  N165    2.024   .     S
H146   N862    1.029   1_554 S
H147   C191    1.107   .     S
H148   C191    1.106   .     S
H152   C193    1.107   1_455 S
H153   C193    1.107   1_455 S
H162   C254    1.088   .     S
H164   N513    1.029   .     S
N165   H860    1.029   1_554 S
N165   N862    1.295   1_554 S
N166   N513    1.295   .     S
N166   H494    1.029   .     S
C175   O225    1.293   .     A
C175   C196    1.424   .     S
C175   O227    1.286   .     A
C176   C178    1.392   .     A
C176   H214    1.082   .     S
C176   C187    1.403   .     A
C177   C200    1.392   .     A
C177   C199    1.441   .     S
C177   C179    1.391   .     A
C178   C198    1.441   .     S
C178   C180    1.391   .     A
C179   H216    1.085   .     S
C179   C181    1.393   .     A
C180   H217    1.085   .     S
C180   C182    1.393   .     A
C181   C183    1.413   .     A
C181   C188    1.399   .     A
C182   C184    1.413   .     A
C182   C189    1.400   .     A
C183   C185    1.423   .     A
C183   C126    1.399   1_655 S
C184   C187    1.423   .     A
C185   C200    1.402   .     A
C185   C195    1.422   .     A
C186   O226    1.293   .     A
C186   C197    1.424   .     S
C186   O228    1.286   .     A
C187   C194    1.422   .     A
C188   H218    1.081   .     S
C188   C136    1.406   1_655 S
C189   H219    1.081   .     S
C190   C194    1.531   .     S
C190   H209    1.112   .     S
C190   H208    1.111   .     S
C191   H207    1.111   .     S
C191   C306    1.531   .     S
C192   C195    1.531   .     S
C192   H215    1.111   .     S
C192   H213    1.112   .     S
C192   C309    1.531   .     S
C193   H212    1.111   .     S
C193   H152    1.107   1_655 S
C193   H153    1.107   1_655 S
C195   C131    1.406   1_655 S
C197   C312    1.327   .     S
C197   H337    1.088   .     S
C198   O229    1.295   .     A
C198   O231    1.293   .     A
C199   O230    1.295   .     A
C199   O232    1.293   .     A
C200   H203    1.082   .     S
Cu201  N224    2.024   .     S
Cu201  O228    1.944   .     S
Cu201  O232    1.943   .     S
Cu201  O225    1.949   .     S
Cu201  O229    1.960   .     S
Cu201  Cu202   2.694   .     S
Cu202  O227    1.944   .     S
Cu202  O226    1.949   .     S
Cu202  O231    1.943   .     S
Cu202  O230    1.960   .     S
Cu202  N223    2.024   .     S
H204   N920    1.029   1_554 S
H205   C133    1.107   1_655 S
H206   C133    1.106   1_655 S
H220   C312    1.088   .     S
H222   N571    1.029   .     S
N223   H918    1.029   1_554 S
N223   N920    1.295   1_554 S
N224   N571    1.295   .     S
N224   H552    1.029   .     S
C233   O283    1.293   .     A
C233   C254    1.424   .     S
C233   O285    1.286   .     A
C234   C236    1.392   .     A
C234   H272    1.082   .     S
C234   C245    1.403   .     A
C235   C258    1.392   .     A
C235   C257    1.441   .     S
C235   C237    1.391   .     A
C236   C256    1.441   .     S
C236   C238    1.391   .     A
C237   H274    1.085   .     S
C237   C239    1.393   .     A
C238   H275    1.085   .     S
C238   C240    1.393   .     A
C239   C241    1.413   .     A
C239   C246    1.399   .     A
C240   C242    1.413   .     A
C240   C247    1.400   .     A
C241   C243    1.423   .     A
C241   C300    1.399   .     S
C242   C245    1.423   .     A
C242   C299    1.399   1_455 S
C243   C258    1.402   .     A
C243   C253    1.422   .     A
C244   O284    1.293   .     A
C244   C255    1.424   .     S
C244   O286    1.286   .     A
C245   C252    1.422   .     A
C246   H276    1.081   .     S
C246   C310    1.406   .     S
C247   H277    1.081   .     S
C247   C311    1.406   1_455 S
C248   C252    1.531   .     S
C248   H267    1.112   .     S
C248   H266    1.111   .     S
C249   H265    1.111   .     S
C249   C16     1.531   1_565 S
C249   H321    1.107   1_455 S
C249   H322    1.106   1_455 S
C250   C253    1.531   .     S
C250   H273    1.111   .     S
C250   H271    1.112   .     S
C250   C19     1.531   1_565 S
C251   H270    1.111   .     S
C251   H326    1.107   .     S
C251   H327    1.107   .     S
C252   C304    1.406   1_455 S
C253   C305    1.406   .     S
C255   C22     1.327   1_565 S
C255   H47     1.088   1_565 S
C256   O287    1.295   .     A
C256   O289    1.293   .     A
C257   O288    1.295   .     A
C257   O290    1.293   .     A
C258   H261    1.082   .     S
Cu259  N282    2.024   .     S
Cu259  O286    1.944   .     S
Cu259  O290    1.943   .     S
Cu259  O283    1.949   .     S
Cu259  O287    1.960   .     S
Cu259  Cu260   2.694   .     S
Cu260  O285    1.944   .     S
Cu260  O284    1.949   .     S
Cu260  O289    1.943   .     S
Cu260  O288    1.960   .     S
Cu260  N281    2.024   .     S
H262   N978    1.029   1_554 S
H263   C307    1.107   .     S
H264   C307    1.106   .     S
H268   C309    1.107   1_455 S
H269   C309    1.107   1_455 S
H278   C22     1.088   1_565 S
H280   N629    1.029   .     S
N281   H976    1.029   1_554 S
N281   N978    1.295   1_554 S
N282   N629    1.295   .     S
N282   H610    1.029   .     S
C291   O341    1.293   .     A
C291   C312    1.424   .     S
C291   O343    1.286   .     A
C292   C294    1.392   .     A
C292   H330    1.082   .     S
C292   C303    1.403   .     A
C293   C316    1.392   .     A
C293   C315    1.441   .     S
C293   C295    1.391   .     A
C294   C314    1.441   .     S
C294   C296    1.391   .     A
C295   H332    1.085   .     S
C295   C297    1.393   .     A
C296   H333    1.085   .     S
C296   C298    1.393   .     A
C297   C299    1.413   .     A
C297   C304    1.399   .     A
C298   C300    1.413   .     A
C298   C305    1.400   .     A
C299   C301    1.423   .     A
C299   C242    1.399   1_655 S
C300   C303    1.423   .     A
C301   C316    1.402   .     A
C301   C311    1.422   .     A
C302   O342    1.293   .     A
C302   C313    1.424   .     S
C302   O344    1.286   .     A
C303   C310    1.422   .     A
C304   H334    1.081   .     S
C304   C252    1.406   1_655 S
C305   H335    1.081   .     S
C306   C310    1.531   .     S
C306   H325    1.112   .     S
C306   H324    1.111   .     S
C307   H323    1.111   .     S
C307   C74     1.531   1_565 S
C308   C311    1.531   .     S
C308   H331    1.111   .     S
C308   H329    1.112   .     S
C308   C77     1.531   1_565 S
C309   H328    1.111   .     S
C309   H268    1.107   1_655 S
C309   H269    1.107   1_655 S
C311   C247    1.406   1_655 S
C313   C80     1.327   1_565 S
C313   H105    1.088   1_565 S
C314   O345    1.295   .     A
C314   O347    1.293   .     A
C315   O346    1.295   .     A
C315   O348    1.293   .     A
C316   H319    1.082   .     S
Cu317  N340    2.024   .     S
Cu317  O344    1.944   .     S
Cu317  O348    1.943   .     S
Cu317  O341    1.949   .     S
Cu317  O345    1.960   .     S
Cu317  Cu318   2.694   .     S
Cu318  O343    1.944   .     S
Cu318  O342    1.949   .     S
Cu318  O347    1.943   .     S
Cu318  O346    1.960   .     S
Cu318  N339    2.024   .     S
H320   N1036   1.029   1_554 S
H321   C249    1.107   1_655 S
H322   C249    1.106   1_655 S
H336   C80     1.088   1_565 S
H338   N687    1.029   .     S
N339   H1034   1.029   1_554 S
N339   N1036   1.295   1_554 S
N340   N687    1.295   .     S
N340   H668    1.029   .     S
C349   O399    1.293   .     A
C349   C370    1.424   .     S
C349   O401    1.286   .     A
C350   C352    1.392   .     A
C350   H388    1.082   .     S
C350   C361    1.403   .     A
C351   C374    1.392   .     A
C351   C373    1.441   .     S
C351   C353    1.391   .     A
C352   C372    1.441   .     S
C352   C354    1.391   .     A
C353   H390    1.085   .     S
C353   C355    1.393   .     A
C354   H391    1.085   .     S
C354   C356    1.393   .     A
C355   C357    1.413   .     A
C355   C362    1.399   .     A
C356   C358    1.413   .     A
C356   C363    1.400   .     A
C357   C359    1.423   .     A
C357   C416    1.399   .     S
C358   C361    1.423   .     A
C358   C415    1.399   1_455 S
C359   C374    1.402   .     A
C359   C369    1.422   .     A
C360   O400    1.293   .     A
C360   C371    1.424   .     S
C360   O402    1.286   .     A
C361   C368    1.422   .     A
C362   H392    1.081   .     S
C362   C426    1.406   .     S
C363   H393    1.081   .     S
C363   C427    1.406   1_455 S
C364   C368    1.531   .     S
C364   H383    1.112   .     S
C364   H382    1.111   .     S
C364   C597    1.531   1_545 S
C365   H381    1.111   .     S
C365   C480    1.531   .     S
C365   H437    1.107   1_455 S
C365   H438    1.106   1_455 S
C366   C369    1.531   .     S
C366   H389    1.111   .     S
C366   H387    1.112   .     S
C366   C483    1.531   .     S
C367   H386    1.111   .     S
C367   C598    1.531   1_545 S
C367   H442    1.107   .     S
C367   H443    1.107   .     S
C368   C420    1.406   1_455 S
C369   C421    1.406   .     S
C370   C603    1.327   1_545 S
C370   H626    1.088   1_545 S
C371   C486    1.327   .     S
C371   H511    1.088   .     S
C372   O403    1.295   .     A
C372   O405    1.293   .     A
C373   O404    1.295   .     A
C373   O406    1.293   .     A
C374   H377    1.082   .     S
Cu375  N398    2.024   .     S
Cu375  O402    1.944   .     S
Cu375  O406    1.943   .     S
Cu375  O399    1.949   .     S
Cu375  O403    1.960   .     S
Cu375  Cu376   2.694   .     S
Cu376  O401    1.944   .     S
Cu376  O400    1.949   .     S
Cu376  O405    1.943   .     S
Cu376  O404    1.960   .     S
Cu376  N397    2.024   .     S
H379   C423    1.107   .     S
H380   C423    1.106   .     S
H384   C425    1.107   1_455 S
H385   C425    1.107   1_455 S
H394   C486    1.088   .     S
H395   C603    1.088   1_545 S
H396   N745    1.029   .     S
N398   N745    1.295   .     S
N398   H726    1.029   .     S
C407   O457    1.293   .     A
C407   C428    1.424   .     S
C407   O459    1.286   .     A
C408   C410    1.392   .     A
C408   H446    1.082   .     S
C408   C419    1.403   .     A
C409   C432    1.392   .     A
C409   C431    1.441   .     S
C409   C411    1.391   .     A
C410   C430    1.441   .     S
C410   C412    1.391   .     A
C411   H448    1.085   .     S
C411   C413    1.393   .     A
C412   H449    1.085   .     S
C412   C414    1.393   .     A
C413   C415    1.413   .     A
C413   C420    1.399   .     A
C414   C416    1.413   .     A
C414   C421    1.400   .     A
C415   C417    1.423   .     A
C415   C358    1.399   1_655 S
C416   C419    1.423   .     A
C417   C432    1.402   .     A
C417   C427    1.422   .     A
C418   O458    1.293   .     A
C418   C429    1.424   .     S
C418   O460    1.286   .     A
C419   C426    1.422   .     A
C420   H450    1.081   .     S
C420   C368    1.406   1_655 S
C421   H451    1.081   .     S
C422   C426    1.531   .     S
C422   H441    1.112   .     S
C422   H440    1.111   .     S
C422   C655    1.531   1_545 S
C423   H439    1.111   .     S
C423   C538    1.531   .     S
C424   C427    1.531   .     S
C424   H447    1.111   .     S
C424   H445    1.112   .     S
C424   C541    1.531   .     S
C425   H444    1.111   .     S
C425   C656    1.531   1_545 S
C425   H384    1.107   1_655 S
C425   H385    1.107   1_655 S
C427   C363    1.406   1_655 S
C428   C661    1.327   1_545 S
C428   H684    1.088   1_545 S
C429   C544    1.327   .     S
C429   H569    1.088   .     S
C430   O461    1.295   .     A
C430   O463    1.293   .     A
C431   O462    1.295   .     A
C431   O464    1.293   .     A
C432   H435    1.082   .     S
Cu433  N456    2.024   .     S
Cu433  O460    1.944   .     S
Cu433  O464    1.943   .     S
Cu433  O457    1.949   .     S
Cu433  O461    1.960   .     S
Cu433  Cu434   2.694   .     S
Cu434  O459    1.944   .     S
Cu434  O458    1.949   .     S
Cu434  O463    1.943   .     S
Cu434  O462    1.960   .     S
Cu434  N455    2.024   .     S
H437   C365    1.107   1_655 S
H438   C365    1.106   1_655 S
H452   C544    1.088   .     S
H453   C661    1.088   1_545 S
H454   N803    1.029   .     S
N456   N803    1.295   .     S
N456   H784    1.029   .     S
C465   O515    1.293   .     A
C465   C486    1.424   .     S
C465   O517    1.286   .     A
C466   C468    1.392   .     A
C466   H504    1.082   .     S
C466   C477    1.403   .     A
C467   C490    1.392   .     A
C467   C489    1.441   .     S
C467   C469    1.391   .     A
C468   C488    1.441   .     S
C468   C470    1.391   .     A
C469   H506    1.085   .     S
C469   C471    1.393   .     A
C470   H507    1.085   .     S
C470   C472    1.393   .     A
C471   C473    1.413   .     A
C471   C478    1.399   .     A
C472   C474    1.413   .     A
C472   C479    1.400   .     A
C473   C475    1.423   .     A
C473   C532    1.399   .     S
C474   C477    1.423   .     A
C474   C531    1.399   1_455 S
C475   C490    1.402   .     A
C475   C485    1.422   .     A
C476   O516    1.293   .     A
C476   C487    1.424   .     S
C476   O518    1.286   .     A
C477   C484    1.422   .     A
C478   H508    1.081   .     S
C478   C542    1.406   .     S
C479   H509    1.081   .     S
C479   C543    1.406   1_455 S
C480   C484    1.531   .     S
C480   H499    1.112   .     S
C480   H498    1.111   .     S
C481   H497    1.111   .     S
C481   C596    1.531   .     S
C481   H553    1.107   1_455 S
C481   H554    1.106   1_455 S
C482   C485    1.531   .     S
C482   H505    1.111   .     S
C482   H503    1.112   .     S
C482   C599    1.531   .     S
C483   H502    1.111   .     S
C483   H558    1.107   .     S
C483   H559    1.107   .     S
C484   C536    1.406   1_455 S
C485   C537    1.406   .     S
C487   C602    1.327   .     S
C487   H627    1.088   .     S
C488   O519    1.295   .     A
C488   O521    1.293   .     A
C489   O520    1.295   .     A
C489   O522    1.293   .     A
C490   H493    1.082   .     S
Cu491  N514    2.024   .     S
Cu491  O518    1.944   .     S
Cu491  O522    1.943   .     S
Cu491  O515    1.949   .     S
Cu491  O519    1.960   .     S
Cu491  Cu492   2.694   .     S
Cu492  O517    1.944   .     S
Cu492  O516    1.949   .     S
Cu492  O521    1.943   .     S
Cu492  O520    1.960   .     S
Cu492  N513    2.024   .     S
H495   C539    1.107   .     S
H496   C539    1.106   .     S
H500   C541    1.107   1_455 S
H501   C541    1.107   1_455 S
H510   C602    1.088   .     S
H512   N861    1.029   .     S
N514   N861    1.295   .     S
N514   H842    1.029   .     S
C523   O573    1.293   .     A
C523   C544    1.424   .     S
C523   O575    1.286   .     A
C524   C526    1.392   .     A
C524   H562    1.082   .     S
C524   C535    1.403   .     A
C525   C548    1.392   .     A
C525   C547    1.441   .     S
C525   C527    1.391   .     A
C526   C546    1.441   .     S
C526   C528    1.391   .     A
C527   H564    1.085   .     S
C527   C529    1.393   .     A
C528   H565    1.085   .     S
C528   C530    1.393   .     A
C529   C531    1.413   .     A
C529   C536    1.399   .     A
C530   C532    1.413   .     A
C530   C537    1.400   .     A
C531   C533    1.423   .     A
C531   C474    1.399   1_655 S
C532   C535    1.423   .     A
C533   C548    1.402   .     A
C533   C543    1.422   .     A
C534   O574    1.293   .     A
C534   C545    1.424   .     S
C534   O576    1.286   .     A
C535   C542    1.422   .     A
C536   H566    1.081   .     S
C536   C484    1.406   1_655 S
C537   H567    1.081   .     S
C538   C542    1.531   .     S
C538   H557    1.112   .     S
C538   H556    1.111   .     S
C539   H555    1.111   .     S
C539   C654    1.531   .     S
C540   C543    1.531   .     S
C540   H563    1.111   .     S
C540   H561    1.112   .     S
C540   C657    1.531   .     S
C541   H560    1.111   .     S
C541   H500    1.107   1_655 S
C541   H501    1.107   1_655 S
C543   C479    1.406   1_655 S
C545   C660    1.327   .     S
C545   H685    1.088   .     S
C546   O577    1.295   .     A
C546   O579    1.293   .     A
C547   O578    1.295   .     A
C547   O580    1.293   .     A
C548   H551    1.082   .     S
Cu549  N572    2.024   .     S
Cu549  O576    1.944   .     S
Cu549  O580    1.943   .     S
Cu549  O573    1.949   .     S
Cu549  O577    1.960   .     S
Cu549  Cu550   2.694   .     S
Cu550  O575    1.944   .     S
Cu550  O574    1.949   .     S
Cu550  O579    1.943   .     S
Cu550  O578    1.960   .     S
Cu550  N571    2.024   .     S
H553   C481    1.107   1_655 S
H554   C481    1.106   1_655 S
H568   C660    1.088   .     S
H570   N919    1.029   .     S
N572   N919    1.295   .     S
N572   H900    1.029   .     S
C581   O631    1.293   .     A
C581   C602    1.424   .     S
C581   O633    1.286   .     A
C582   C584    1.392   .     A
C582   H620    1.082   .     S
C582   C593    1.403   .     A
C583   C606    1.392   .     A
C583   C605    1.441   .     S
C583   C585    1.391   .     A
C584   C604    1.441   .     S
C584   C586    1.391   .     A
C585   H622    1.085   .     S
C585   C587    1.393   .     A
C586   H623    1.085   .     S
C586   C588    1.393   .     A
C587   C589    1.413   .     A
C587   C594    1.399   .     A
C588   C590    1.413   .     A
C588   C595    1.400   .     A
C589   C591    1.423   .     A
C589   C648    1.399   .     S
C590   C593    1.423   .     A
C590   C647    1.399   1_455 S
C591   C606    1.402   .     A
C591   C601    1.422   .     A
C592   O632    1.293   .     A
C592   C603    1.424   .     S
C592   O634    1.286   .     A
C593   C600    1.422   .     A
C594   H624    1.081   .     S
C594   C658    1.406   .     S
C595   H625    1.081   .     S
C595   C659    1.406   1_455 S
C596   C600    1.531   .     S
C596   H615    1.112   .     S
C596   H614    1.111   .     S
C597   H613    1.111   .     S
C597   C364    1.531   1_565 S
C597   H669    1.107   1_455 S
C597   H670    1.106   1_455 S
C598   C601    1.531   .     S
C598   H621    1.111   .     S
C598   H619    1.112   .     S
C598   C367    1.531   1_565 S
C599   H618    1.111   .     S
C599   H674    1.107   .     S
C599   H675    1.107   .     S
C600   C652    1.406   1_455 S
C601   C653    1.406   .     S
C603   C370    1.327   1_565 S
C603   H395    1.088   1_565 S
C604   O635    1.295   .     A
C604   O637    1.293   .     A
C605   O636    1.295   .     A
C605   O638    1.293   .     A
C606   H609    1.082   .     S
Cu607  N630    2.024   .     S
Cu607  O634    1.944   .     S
Cu607  O638    1.943   .     S
Cu607  O631    1.949   .     S
Cu607  O635    1.960   .     S
Cu607  Cu608   2.694   .     S
Cu608  O633    1.944   .     S
Cu608  O632    1.949   .     S
Cu608  O637    1.943   .     S
Cu608  O636    1.960   .     S
Cu608  N629    2.024   .     S
H611   C655    1.107   .     S
H612   C655    1.106   .     S
H616   C657    1.107   1_455 S
H617   C657    1.107   1_455 S
H626   C370    1.088   1_565 S
H628   N977    1.029   .     S
N630   N977    1.295   .     S
N630   H958    1.029   .     S
C639   O689    1.293   .     A
C639   C660    1.424   .     S
C639   O691    1.286   .     A
C640   C642    1.392   .     A
C640   H678    1.082   .     S
C640   C651    1.403   .     A
C641   C664    1.392   .     A
C641   C663    1.441   .     S
C641   C643    1.391   .     A
C642   C662    1.441   .     S
C642   C644    1.391   .     A
C643   H680    1.085   .     S
C643   C645    1.393   .     A
C644   H681    1.085   .     S
C644   C646    1.393   .     A
C645   C647    1.413   .     A
C645   C652    1.399   .     A
C646   C648    1.413   .     A
C646   C653    1.400   .     A
C647   C649    1.423   .     A
C647   C590    1.399   1_655 S
C648   C651    1.423   .     A
C649   C664    1.402   .     A
C649   C659    1.422   .     A
C650   O690    1.293   .     A
C650   C661    1.424   .     S
C650   O692    1.286   .     A
C651   C658    1.422   .     A
C652   H682    1.081   .     S
C652   C600    1.406   1_655 S
C653   H683    1.081   .     S
C654   C658    1.531   .     S
C654   H673    1.112   .     S
C654   H672    1.111   .     S
C655   H671    1.111   .     S
C655   C422    1.531   1_565 S
C656   C659    1.531   .     S
C656   H679    1.111   .     S
C656   H677    1.112   .     S
C656   C425    1.531   1_565 S
C657   H676    1.111   .     S
C657   H616    1.107   1_655 S
C657   H617    1.107   1_655 S
C659   C595    1.406   1_655 S
C661   C428    1.327   1_565 S
C661   H453    1.088   1_565 S
C662   O693    1.295   .     A
C662   O695    1.293   .     A
C663   O694    1.295   .     A
C663   O696    1.293   .     A
C664   H667    1.082   .     S
Cu665  N688    2.024   .     S
Cu665  O692    1.944   .     S
Cu665  O696    1.943   .     S
Cu665  O689    1.949   .     S
Cu665  O693    1.960   .     S
Cu665  Cu666   2.694   .     S
Cu666  O691    1.944   .     S
Cu666  O690    1.949   .     S
Cu666  O695    1.943   .     S
Cu666  O694    1.960   .     S
Cu666  N687    2.024   .     S
H669   C597    1.107   1_655 S
H670   C597    1.106   1_655 S
H684   C428    1.088   1_565 S
H686   N1035   1.029   .     S
N688   N1035   1.295   .     S
N688   H1016   1.029   .     S
C697   O747    1.293   .     A
C697   C718    1.424   .     S
C697   O749    1.286   .     A
C698   C700    1.392   .     A
C698   H736    1.082   .     S
C698   C709    1.403   .     A
C699   C722    1.392   .     A
C699   C721    1.441   .     S
C699   C701    1.391   .     A
C700   C720    1.441   .     S
C700   C702    1.391   .     A
C701   H738    1.085   .     S
C701   C703    1.393   .     A
C702   H739    1.085   .     S
C702   C704    1.393   .     A
C703   C705    1.413   .     A
C703   C710    1.399   .     A
C704   C706    1.413   .     A
C704   C711    1.400   .     A
C705   C707    1.423   .     A
C705   C764    1.399   .     S
C706   C709    1.423   .     A
C706   C763    1.399   1_455 S
C707   C722    1.402   .     A
C707   C717    1.422   .     A
C708   O748    1.293   .     A
C708   C719    1.424   .     S
C708   O750    1.286   .     A
C709   C716    1.422   .     A
C710   H740    1.081   .     S
C710   C774    1.406   .     S
C711   H741    1.081   .     S
C711   C775    1.406   1_455 S
C712   C716    1.531   .     S
C712   H731    1.112   .     S
C712   H730    1.111   .     S
C712   C945    1.531   1_545 S
C713   H729    1.111   .     S
C713   C828    1.531   .     S
C713   H785    1.107   1_455 S
C713   H786    1.106   1_455 S
C714   C717    1.531   .     S
C714   H737    1.111   .     S
C714   H735    1.112   .     S
C714   C831    1.531   .     S
C715   H734    1.111   .     S
C715   C946    1.531   1_545 S
C715   H790    1.107   .     S
C715   H791    1.107   .     S
C716   C768    1.406   1_455 S
C717   C769    1.406   .     S
C718   C951    1.327   1_545 S
C718   H974    1.088   1_545 S
C719   C834    1.327   .     S
C719   H859    1.088   .     S
C720   O751    1.295   .     A
C720   O753    1.293   .     A
C721   O752    1.295   .     A
C721   O754    1.293   .     A
C722   H725    1.082   .     S
Cu723  N746    2.024   .     S
Cu723  O750    1.944   .     S
Cu723  O754    1.943   .     S
Cu723  O747    1.949   .     S
Cu723  O751    1.960   .     S
Cu723  Cu724   2.694   .     S
Cu724  O749    1.944   .     S
Cu724  O748    1.949   .     S
Cu724  O753    1.943   .     S
Cu724  O752    1.960   .     S
Cu724  N745    2.024   .     S
H727   C771    1.107   .     S
H728   C771    1.106   .     S
H732   C773    1.107   1_455 S
H733   C773    1.107   1_455 S
H742   C834    1.088   .     S
H743   C951    1.088   1_545 S
H744   N49     1.029   1_556 S
N746   N49     1.295   1_556 S
N746   H30     1.029   1_556 S
C755   O805    1.293   .     A
C755   C776    1.424   .     S
C755   O807    1.286   .     A
C756   C758    1.392   .     A
C756   H794    1.082   .     S
C756   C767    1.403   .     A
C757   C780    1.392   .     A
C757   C779    1.441   .     S
C757   C759    1.391   .     A
C758   C778    1.441   .     S
C758   C760    1.391   .     A
C759   H796    1.085   .     S
C759   C761    1.393   .     A
C760   H797    1.085   .     S
C760   C762    1.393   .     A
C761   C763    1.413   .     A
C761   C768    1.399   .     A
C762   C764    1.413   .     A
C762   C769    1.400   .     A
C763   C765    1.423   .     A
C763   C706    1.399   1_655 S
C764   C767    1.423   .     A
C765   C780    1.402   .     A
C765   C775    1.422   .     A
C766   O806    1.293   .     A
C766   C777    1.424   .     S
C766   O808    1.286   .     A
C767   C774    1.422   .     A
C768   H798    1.081   .     S
C768   C716    1.406   1_655 S
C769   H799    1.081   .     S
C770   C774    1.531   .     S
C770   H789    1.112   .     S
C770   H788    1.111   .     S
C770   C1003   1.531   1_545 S
C771   H787    1.111   .     S
C771   C886    1.531   .     S
C772   C775    1.531   .     S
C772   H795    1.111   .     S
C772   H793    1.112   .     S
C772   C889    1.531   .     S
C773   H792    1.111   .     S
C773   C1004   1.531   1_545 S
C773   H732    1.107   1_655 S
C773   H733    1.107   1_655 S
C775   C711    1.406   1_655 S
C776   C1009   1.327   1_545 S
C776   H1032   1.088   1_545 S
C777   C892    1.327   .     S
C777   H917    1.088   .     S
C778   O809    1.295   .     A
C778   O811    1.293   .     A
C779   O810    1.295   .     A
C779   O812    1.293   .     A
C780   H783    1.082   .     S
Cu781  N804    2.024   .     S
Cu781  O808    1.944   .     S
Cu781  O812    1.943   .     S
Cu781  O805    1.949   .     S
Cu781  O809    1.960   .     S
Cu781  Cu782   2.694   .     S
Cu782  O807    1.944   .     S
Cu782  O806    1.949   .     S
Cu782  O811    1.943   .     S
Cu782  O810    1.960   .     S
Cu782  N803    2.024   .     S
H785   C713    1.107   1_655 S
H786   C713    1.106   1_655 S
H800   C892    1.088   .     S
H801   C1009   1.088   1_545 S
H802   N107    1.029   1_556 S
N804   N107    1.295   1_556 S
N804   H88     1.029   1_556 S
C813   O863    1.293   .     A
C813   C834    1.424   .     S
C813   O865    1.286   .     A
C814   C816    1.392   .     A
C814   H852    1.082   .     S
C814   C825    1.403   .     A
C815   C838    1.392   .     A
C815   C837    1.441   .     S
C815   C817    1.391   .     A
C816   C836    1.441   .     S
C816   C818    1.391   .     A
C817   H854    1.085   .     S
C817   C819    1.393   .     A
C818   H855    1.085   .     S
C818   C820    1.393   .     A
C819   C821    1.413   .     A
C819   C826    1.399   .     A
C820   C822    1.413   .     A
C820   C827    1.400   .     A
C821   C823    1.423   .     A
C821   C880    1.399   .     S
C822   C825    1.423   .     A
C822   C879    1.399   1_455 S
C823   C838    1.402   .     A
C823   C833    1.422   .     A
C824   O864    1.293   .     A
C824   C835    1.424   .     S
C824   O866    1.286   .     A
C825   C832    1.422   .     A
C826   H856    1.081   .     S
C826   C890    1.406   .     S
C827   H857    1.081   .     S
C827   C891    1.406   1_455 S
C828   C832    1.531   .     S
C828   H847    1.112   .     S
C828   H846    1.111   .     S
C829   H845    1.111   .     S
C829   C944    1.531   .     S
C829   H901    1.107   1_455 S
C829   H902    1.106   1_455 S
C830   C833    1.531   .     S
C830   H853    1.111   .     S
C830   H851    1.112   .     S
C830   C947    1.531   .     S
C831   H850    1.111   .     S
C831   H906    1.107   .     S
C831   H907    1.107   .     S
C832   C884    1.406   1_455 S
C833   C885    1.406   .     S
C835   C950    1.327   .     S
C835   H975    1.088   .     S
C836   O867    1.295   .     A
C836   O869    1.293   .     A
C837   O868    1.295   .     A
C837   O870    1.293   .     A
C838   H841    1.082   .     S
Cu839  N862    2.024   .     S
Cu839  O866    1.944   .     S
Cu839  O870    1.943   .     S
Cu839  O863    1.949   .     S
Cu839  O867    1.960   .     S
Cu839  Cu840   2.694   .     S
Cu840  O865    1.944   .     S
Cu840  O864    1.949   .     S
Cu840  O869    1.943   .     S
Cu840  O868    1.960   .     S
Cu840  N861    2.024   .     S
H843   C887    1.107   .     S
H844   C887    1.106   .     S
H848   C889    1.107   1_455 S
H849   C889    1.107   1_455 S
H858   C950    1.088   .     S
H860   N165    1.029   1_556 S
N862   N165    1.295   1_556 S
N862   H146    1.029   1_556 S
C871   O921    1.293   .     A
C871   C892    1.424   .     S
C871   O923    1.286   .     A
C872   C874    1.392   .     A
C872   H910    1.082   .     S
C872   C883    1.403   .     A
C873   C896    1.392   .     A
C873   C895    1.441   .     S
C873   C875    1.391   .     A
C874   C894    1.441   .     S
C874   C876    1.391   .     A
C875   H912    1.085   .     S
C875   C877    1.393   .     A
C876   H913    1.085   .     S
C876   C878    1.393   .     A
C877   C879    1.413   .     A
C877   C884    1.399   .     A
C878   C880    1.413   .     A
C878   C885    1.400   .     A
C879   C881    1.423   .     A
C879   C822    1.399   1_655 S
C880   C883    1.423   .     A
C881   C896    1.402   .     A
C881   C891    1.422   .     A
C882   O922    1.293   .     A
C882   C893    1.424   .     S
C882   O924    1.286   .     A
C883   C890    1.422   .     A
C884   H914    1.081   .     S
C884   C832    1.406   1_655 S
C885   H915    1.081   .     S
C886   C890    1.531   .     S
C886   H905    1.112   .     S
C886   H904    1.111   .     S
C887   H903    1.111   .     S
C887   C1002   1.531   .     S
C888   C891    1.531   .     S
C888   H911    1.111   .     S
C888   H909    1.112   .     S
C888   C1005   1.531   .     S
C889   H908    1.111   .     S
C889   H848    1.107   1_655 S
C889   H849    1.107   1_655 S
C891   C827    1.406   1_655 S
C893   C1008   1.327   .     S
C893   H1033   1.088   .     S
C894   O925    1.295   .     A
C894   O927    1.293   .     A
C895   O926    1.295   .     A
C895   O928    1.293   .     A
C896   H899    1.082   .     S
Cu897  N920    2.024   .     S
Cu897  O924    1.944   .     S
Cu897  O928    1.943   .     S
Cu897  O921    1.949   .     S
Cu897  O925    1.960   .     S
Cu897  Cu898   2.694   .     S
Cu898  O923    1.944   .     S
Cu898  O922    1.949   .     S
Cu898  O927    1.943   .     S
Cu898  O926    1.960   .     S
Cu898  N919    2.024   .     S
H901   C829    1.107   1_655 S
H902   C829    1.106   1_655 S
H916   C1008   1.088   .     S
H918   N223    1.029   1_556 S
N920   N223    1.295   1_556 S
N920   H204    1.029   1_556 S
C929   O979    1.293   .     A
C929   C950    1.424   .     S
C929   O981    1.286   .     A
C930   C932    1.392   .     A
C930   H968    1.082   .     S
C930   C941    1.403   .     A
C931   C954    1.392   .     A
C931   C953    1.441   .     S
C931   C933    1.391   .     A
C932   C952    1.441   .     S
C932   C934    1.391   .     A
C933   H970    1.085   .     S
C933   C935    1.393   .     A
C934   H971    1.085   .     S
C934   C936    1.393   .     A
C935   C937    1.413   .     A
C935   C942    1.399   .     A
C936   C938    1.413   .     A
C936   C943    1.400   .     A
C937   C939    1.423   .     A
C937   C996    1.399   .     S
C938   C941    1.423   .     A
C938   C995    1.399   1_455 S
C939   C954    1.402   .     A
C939   C949    1.422   .     A
C940   O980    1.293   .     A
C940   C951    1.424   .     S
C940   O982    1.286   .     A
C941   C948    1.422   .     A
C942   H972    1.081   .     S
C942   C1006   1.406   .     S
C943   H973    1.081   .     S
C943   C1007   1.406   1_455 S
C944   C948    1.531   .     S
C944   H963    1.112   .     S
C944   H962    1.111   .     S
C945   H961    1.111   .     S
C945   C712    1.531   1_565 S
C945   H1017   1.107   1_455 S
C945   H1018   1.106   1_455 S
C946   C949    1.531   .     S
C946   H969    1.111   .     S
C946   H967    1.112   .     S
C946   C715    1.531   1_565 S
C947   H966    1.111   .     S
C947   H1022   1.107   .     S
C947   H1023   1.107   .     S
C948   C1000   1.406   1_455 S
C949   C1001   1.406   .     S
C951   C718    1.327   1_565 S
C951   H743    1.088   1_565 S
C952   O983    1.295   .     A
C952   O985    1.293   .     A
C953   O984    1.295   .     A
C953   O986    1.293   .     A
C954   H957    1.082   .     S
Cu955  N978    2.024   .     S
Cu955  O982    1.944   .     S
Cu955  O986    1.943   .     S
Cu955  O979    1.949   .     S
Cu955  O983    1.960   .     S
Cu955  Cu956   2.694   .     S
Cu956  O981    1.944   .     S
Cu956  O980    1.949   .     S
Cu956  O985    1.943   .     S
Cu956  O984    1.960   .     S
Cu956  N977    2.024   .     S
H959   C1003   1.107   .     S
H960   C1003   1.106   .     S
H964   C1005   1.107   1_455 S
H965   C1005   1.107   1_455 S
H974   C718    1.088   1_565 S
H976   N281    1.029   1_556 S
N978   N281    1.295   1_556 S
N978   H262    1.029   1_556 S
C987   O1037   1.293   .     A
C987   C1008   1.424   .     S
C987   O1039   1.286   .     A
C988   C990    1.392   .     A
C988   H1026   1.082   .     S
C988   C999    1.403   .     A
C989   C1012   1.392   .     A
C989   C1011   1.441   .     S
C989   C991    1.391   .     A
C990   C1010   1.441   .     S
C990   C992    1.391   .     A
C991   H1028   1.085   .     S
C991   C993    1.393   .     A
C992   H1029   1.085   .     S
C992   C994    1.393   .     A
C993   C995    1.413   .     A
C993   C1000   1.399   .     A
C994   C996    1.413   .     A
C994   C1001   1.400   .     A
C995   C997    1.423   .     A
C995   C938    1.399   1_655 S
C996   C999    1.423   .     A
C997   C1012   1.402   .     A
C997   C1007   1.422   .     A
C998   O1038   1.293   .     A
C998   C1009   1.424   .     S
C998   O1040   1.286   .     A
C999   C1006   1.422   .     A
C1000  H1030   1.081   .     S
C1000  C948    1.406   1_655 S
C1001  H1031   1.081   .     S
C1002  C1006   1.531   .     S
C1002  H1021   1.112   .     S
C1002  H1020   1.111   .     S
C1003  H1019   1.111   .     S
C1003  C770    1.531   1_565 S
C1004  C1007   1.531   .     S
C1004  H1027   1.111   .     S
C1004  H1025   1.112   .     S
C1004  C773    1.531   1_565 S
C1005  H1024   1.111   .     S
C1005  H964    1.107   1_655 S
C1005  H965    1.107   1_655 S
C1007  C943    1.406   1_655 S
C1009  C776    1.327   1_565 S
C1009  H801    1.088   1_565 S
C1010  O1041   1.295   .     A
C1010  O1043   1.293   .     A
C1011  O1042   1.295   .     A
C1011  O1044   1.293   .     A
C1012  H1015   1.082   .     S
Cu1013 N1036   2.024   .     S
Cu1013 O1040   1.944   .     S
Cu1013 O1044   1.943   .     S
Cu1013 O1037   1.949   .     S
Cu1013 O1041   1.960   .     S
Cu1013 Cu1014  2.694   .     S
Cu1014 O1039   1.944   .     S
Cu1014 O1038   1.949   .     S
Cu1014 O1043   1.943   .     S
Cu1014 O1042   1.960   .     S
Cu1014 N1035   2.024   .     S
H1017  C945    1.107   1_655 S
H1018  C945    1.106   1_655 S
H1032  C776    1.088   1_565 S
H1034  N339    1.029   1_556 S
N1036  N339    1.295   1_556 S
N1036  H320    1.029   1_556 S
