data_str_m2_o1_o2_pcu_sym.127
_audit_creation_date              2020-01-03
_audit_creation_method            'Materials Studio'
_symmetry_space_group_name_H-M    'P1'
_symmetry_Int_Tables_number       1
_symmetry_cell_setting            triclinic
loop_
_symmetry_equiv_pos_as_xyz
  x,y,z
_cell_length_a                    32.3300
_cell_length_b                    28.4625
_cell_length_c                    30.6180
_cell_angle_alpha                 89.6206
_cell_angle_beta                  90.2724
_cell_angle_gamma                 90.2961
loop_
_atom_site_label
_atom_site_type_symbol
_atom_site_fract_x
_atom_site_fract_y
_atom_site_fract_z
_atom_site_U_iso_or_equiv
_atom_site_adp_type
_atom_site_occupancy
C1     C     0.08751   0.16658   0.25046   0.00000  Uiso   1.00
C2     C     0.24584   0.16661   0.25058   0.00000  Uiso   1.00
C3     C     0.16590   0.16698   0.16494   0.00000  Uiso   1.00
C4     C     0.16684   0.16658   0.33533   0.00000  Uiso   1.00
C5     C     0.13505   0.02478   0.23092   0.00000  Uiso   1.00
C6     C     0.19834   0.30862   0.26884   0.00000  Uiso   1.00
C7     C     0.19848   0.02487   0.26860   0.00000  Uiso   1.00
C8     C     0.13515   0.30846   0.23074   0.00000  Uiso   1.00
C9     C     0.02211   0.16750   0.29118   0.00000  Uiso   1.00
C10    C     0.31139   0.15964   0.21086   0.00000  Uiso   1.00
C11    C     0.31183   0.16884   0.29123   0.00000  Uiso   1.00
C12    C     0.02144   0.16378   0.21039   0.00000  Uiso   1.00
C13    C     0.18252   0.20462   0.04726   0.00000  Uiso   1.00
C14    C     0.16822   0.12499   0.45415   0.00000  Uiso   1.00
C15    C     0.16202   0.20905   0.45303   0.00000  Uiso   1.00
C16    C     0.14567   0.13090   0.04779   0.00000  Uiso   1.00
C17    C     0.18097   0.20708   0.09270   0.00000  Uiso   1.00
C18    C     0.16738   0.12342   0.40862   0.00000  Uiso   1.00
C19    C     0.16518   0.21017   0.40763   0.00000  Uiso   1.00
C20    C     0.14594   0.12979   0.09332   0.00000  Uiso   1.00
C21    C     0.16432   0.16796   0.11672   0.00000  Uiso   1.00
C22    C     0.16659   0.16665   0.38404   0.00000  Uiso   1.00
C23    C     0.16448   0.16742   0.02461   0.00000  Uiso   1.00
C24    C     0.16471   0.16713   0.47648   0.00000  Uiso   1.00
C25    C     0.29049   0.16585   0.25084   0.00000  Uiso   1.00
C26    C     0.04287   0.16633   0.25065   0.00000  Uiso   1.00
Cu27   Cu    0.16667   0.21355   0.25000   0.00000  Uiso   1.00
Cu28   Cu    0.16667   0.11978   0.25000   0.00000  Uiso   1.00
H29    H     0.10978   0.04341   0.21551   0.00000  Uiso   1.00
H30    H     0.22371   0.29014   0.28392   0.00000  Uiso   1.00
H31    H     0.22415   0.04351   0.28322   0.00000  Uiso   1.00
H32    H     0.11004   0.28977   0.21505   0.00000  Uiso   1.00
H33    H     0.19794   0.23248   0.02928   0.00000  Uiso   1.00
H34    H     0.17189   0.09258   0.47250   0.00000  Uiso   1.00
H35    H     0.15792   0.24175   0.47035   0.00000  Uiso   1.00
H36    H     0.13018   0.10285   0.03029   0.00000  Uiso   1.00
N37    N     0.16667   0.28402   0.25000   0.00000  Uiso   1.00
N38    N     0.16667   0.04931   0.25000   0.00000  Uiso   1.00
O39    O     0.10655   0.20625   0.25000   0.00000  Uiso   1.00
O40    O     0.22679   0.12709   0.25001   0.00000  Uiso   1.00
O41    O     0.22679   0.20625   0.25001   0.00000  Uiso   1.00
O42    O     0.10655   0.12709   0.25000   0.00000  Uiso   1.00
O43    O     0.16666   0.20626   0.18573   0.00000  Uiso   1.00
O44    O     0.16667   0.12707   0.31427   0.00000  Uiso   1.00
O45    O     0.16667   0.20626   0.31427   0.00000  Uiso   1.00
O46    O     0.16666   0.12707   0.18573   0.00000  Uiso   1.00
C47    C     0.19589   0.25332   0.11246   0.00000  Uiso   1.00
C48    C     0.23902   0.25007   0.13266   0.00000  Uiso   1.00
H49    H     0.23819   0.23113   0.16423   0.00000  Uiso   1.00
H50    H     0.26054   0.23232   0.11001   0.00000  Uiso   1.00
H51    H     0.25103   0.28601   0.13911   0.00000  Uiso   1.00
H52    H     0.19756   0.28103   0.08671   0.00000  Uiso   1.00
H53    H     0.17322   0.26764   0.13583   0.00000  Uiso   1.00
C54    C     0.16824   0.07421   0.38946   0.00000  Uiso   1.00
C55    C     0.21217   0.05980   0.37766   0.00000  Uiso   1.00
H56    H     0.21185   0.02360   0.36439   0.00000  Uiso   1.00
H57    H     0.22556   0.08394   0.35296   0.00000  Uiso   1.00
H58    H     0.23220   0.06024   0.40724   0.00000  Uiso   1.00
H59    H     0.15675   0.04808   0.41379   0.00000  Uiso   1.00
H60    H     0.14627   0.06978   0.36196   0.00000  Uiso   1.00
C61    C     0.16841   0.25925   0.38759   0.00000  Uiso   1.00
C62    C     0.12643   0.27768   0.37222   0.00000  Uiso   1.00
H63    H     0.13050   0.31289   0.35699   0.00000  Uiso   1.00
H64    H     0.11197   0.25418   0.34783   0.00000  Uiso   1.00
H65    H     0.10524   0.28089   0.40048   0.00000  Uiso   1.00
H66    H     0.18040   0.28453   0.41222   0.00000  Uiso   1.00
H67    H     0.19207   0.26135   0.36163   0.00000  Uiso   1.00
C68    C     0.12459   0.08765   0.11428   0.00000  Uiso   1.00
C69    C     0.15371   0.04564   0.11715   0.00000  Uiso   1.00
H70    H     0.16396   0.03534   0.08401   0.00000  Uiso   1.00
H71    H     0.18133   0.05411   0.13735   0.00000  Uiso   1.00
H72    H     0.13727   0.01533   0.13224   0.00000  Uiso   1.00
H73    H     0.11159   0.09529   0.14671   0.00000  Uiso   1.00
H74    H     0.09716   0.07737   0.09439   0.00000  Uiso   1.00
C75    C     0.04687   0.16629   0.33388   0.00000  Uiso   1.00
C76    C     0.05506   0.11584   0.34873   0.00000  Uiso   1.00
H77    H     0.02555   0.09649   0.35366   0.00000  Uiso   1.00
H78    H     0.07374   0.09703   0.32414   0.00000  Uiso   1.00
H79    H     0.07248   0.11613   0.38008   0.00000  Uiso   1.00
H80    H     0.07687   0.18477   0.33033   0.00000  Uiso   1.00
H81    H     0.03138   0.18548   0.36044   0.00000  Uiso   1.00
C82    C     0.28776   0.14475   0.16975   0.00000  Uiso   1.00
C83    C     0.28953   0.09154   0.16395   0.00000  Uiso   1.00
H84    H     0.32197   0.07937   0.16138   0.00000  Uiso   1.00
H85    H     0.27467   0.07350   0.19213   0.00000  Uiso   1.00
H86    H     0.27262   0.08156   0.13371   0.00000  Uiso   1.00
H87    H     0.25474   0.15443   0.17085   0.00000  Uiso   1.00
H88    H     0.29963   0.16263   0.14011   0.00000  Uiso   1.00
C89    C     0.28786   0.17129   0.33408   0.00000  Uiso   1.00
C90    C     0.28270   0.22191   0.34912   0.00000  Uiso   1.00
H91    H     0.31306   0.23966   0.35330   0.00000  Uiso   1.00
H92    H     0.26435   0.24184   0.32478   0.00000  Uiso   1.00
H93    H     0.26608   0.22232   0.38077   0.00000  Uiso   1.00
H94    H     0.25671   0.15532   0.33097   0.00000  Uiso   1.00
H95    H     0.30282   0.15016   0.36018   0.00000  Uiso   1.00
C96    C     0.04471   0.16769   0.16716   0.00000  Uiso   1.00
C97    C     0.04234   0.21755   0.14864   0.00000  Uiso   1.00
H98    H     0.00978   0.22823   0.14300   0.00000  Uiso   1.00
H99    H     0.05704   0.24264   0.17167   0.00000  Uiso   1.00
H100   H     0.05913   0.21937   0.11711   0.00000  Uiso   1.00
H101   H     0.07780   0.15920   0.17091   0.00000  Uiso   1.00
H102   H     0.03314   0.14208   0.14285   0.00000  Uiso   1.00
C103   C     0.42085   0.16658   0.25046   0.00000  Uiso   1.00
C104   C     0.57917   0.16661   0.25058   0.00000  Uiso   1.00
C105   C     0.49923   0.16698   0.16494   0.00000  Uiso   1.00
C106   C     0.50017   0.16658   0.33533   0.00000  Uiso   1.00
C107   C     0.46838   0.02478   0.23092   0.00000  Uiso   1.00
C108   C     0.53167   0.30862   0.26884   0.00000  Uiso   1.00
C109   C     0.53181   0.02487   0.26860   0.00000  Uiso   1.00
C110   C     0.46848   0.30846   0.23074   0.00000  Uiso   1.00
C111   C     0.35544   0.16750   0.29118   0.00000  Uiso   1.00
C112   C     0.64473   0.15964   0.21086   0.00000  Uiso   1.00
C113   C     0.64517   0.16884   0.29123   0.00000  Uiso   1.00
C114   C     0.35477   0.16378   0.21039   0.00000  Uiso   1.00
C115   C     0.51586   0.20462   0.04726   0.00000  Uiso   1.00
C116   C     0.50155   0.12499   0.45415   0.00000  Uiso   1.00
C117   C     0.49535   0.20905   0.45303   0.00000  Uiso   1.00
C118   C     0.47900   0.13090   0.04779   0.00000  Uiso   1.00
C119   C     0.51430   0.20708   0.09270   0.00000  Uiso   1.00
C120   C     0.50071   0.12342   0.40862   0.00000  Uiso   1.00
C121   C     0.49851   0.21017   0.40763   0.00000  Uiso   1.00
C122   C     0.47928   0.12979   0.09332   0.00000  Uiso   1.00
C123   C     0.49765   0.16796   0.11672   0.00000  Uiso   1.00
C124   C     0.49992   0.16665   0.38404   0.00000  Uiso   1.00
C125   C     0.49782   0.16742   0.02461   0.00000  Uiso   1.00
C126   C     0.49805   0.16713   0.47648   0.00000  Uiso   1.00
C127   C     0.62383   0.16585   0.25084   0.00000  Uiso   1.00
C128   C     0.37620   0.16633   0.25065   0.00000  Uiso   1.00
Cu129  Cu    0.50000   0.21355   0.25000   0.00000  Uiso   1.00
Cu130  Cu    0.50000   0.11978   0.25000   0.00000  Uiso   1.00
H131   H     0.44311   0.04341   0.21551   0.00000  Uiso   1.00
H132   H     0.55704   0.29014   0.28392   0.00000  Uiso   1.00
H133   H     0.55749   0.04351   0.28322   0.00000  Uiso   1.00
H134   H     0.44337   0.28977   0.21505   0.00000  Uiso   1.00
H135   H     0.53127   0.23248   0.02928   0.00000  Uiso   1.00
H136   H     0.50523   0.09258   0.47250   0.00000  Uiso   1.00
H137   H     0.49125   0.24175   0.47035   0.00000  Uiso   1.00
H138   H     0.46352   0.10285   0.03029   0.00000  Uiso   1.00
N139   N     0.50000   0.28402   0.25000   0.00000  Uiso   1.00
N140   N     0.50000   0.04931   0.25000   0.00000  Uiso   1.00
O141   O     0.43988   0.20625   0.25000   0.00000  Uiso   1.00
O142   O     0.56012   0.12709   0.25001   0.00000  Uiso   1.00
O143   O     0.56012   0.20625   0.25001   0.00000  Uiso   1.00
O144   O     0.43988   0.12709   0.25000   0.00000  Uiso   1.00
O145   O     0.50000   0.20626   0.18573   0.00000  Uiso   1.00
O146   O     0.50000   0.12707   0.31427   0.00000  Uiso   1.00
O147   O     0.50000   0.20626   0.31427   0.00000  Uiso   1.00
O148   O     0.50000   0.12707   0.18573   0.00000  Uiso   1.00
C149   C     0.52922   0.25332   0.11246   0.00000  Uiso   1.00
C150   C     0.57235   0.25007   0.13266   0.00000  Uiso   1.00
H151   H     0.57153   0.23113   0.16423   0.00000  Uiso   1.00
H152   H     0.59387   0.23232   0.11001   0.00000  Uiso   1.00
H153   H     0.58436   0.28601   0.13911   0.00000  Uiso   1.00
H154   H     0.53089   0.28103   0.08671   0.00000  Uiso   1.00
H155   H     0.50656   0.26764   0.13583   0.00000  Uiso   1.00
C156   C     0.50157   0.07421   0.38946   0.00000  Uiso   1.00
C157   C     0.54551   0.05980   0.37766   0.00000  Uiso   1.00
H158   H     0.54518   0.02360   0.36439   0.00000  Uiso   1.00
H159   H     0.55890   0.08394   0.35296   0.00000  Uiso   1.00
H160   H     0.56553   0.06024   0.40724   0.00000  Uiso   1.00
H161   H     0.49008   0.04808   0.41379   0.00000  Uiso   1.00
H162   H     0.47960   0.06978   0.36196   0.00000  Uiso   1.00
C163   C     0.50174   0.25925   0.38759   0.00000  Uiso   1.00
C164   C     0.45977   0.27768   0.37222   0.00000  Uiso   1.00
H165   H     0.46383   0.31289   0.35699   0.00000  Uiso   1.00
H166   H     0.44530   0.25418   0.34783   0.00000  Uiso   1.00
H167   H     0.43857   0.28089   0.40048   0.00000  Uiso   1.00
H168   H     0.51373   0.28453   0.41222   0.00000  Uiso   1.00
H169   H     0.52540   0.26135   0.36163   0.00000  Uiso   1.00
C170   C     0.45792   0.08765   0.11428   0.00000  Uiso   1.00
C171   C     0.48704   0.04564   0.11715   0.00000  Uiso   1.00
H172   H     0.49730   0.03534   0.08401   0.00000  Uiso   1.00
H173   H     0.51467   0.05411   0.13735   0.00000  Uiso   1.00
H174   H     0.47060   0.01533   0.13224   0.00000  Uiso   1.00
H175   H     0.44492   0.09529   0.14671   0.00000  Uiso   1.00
H176   H     0.43049   0.07737   0.09439   0.00000  Uiso   1.00
C177   C     0.38020   0.16629   0.33388   0.00000  Uiso   1.00
C178   C     0.38839   0.11584   0.34873   0.00000  Uiso   1.00
H179   H     0.35888   0.09649   0.35366   0.00000  Uiso   1.00
H180   H     0.40707   0.09703   0.32414   0.00000  Uiso   1.00
H181   H     0.40581   0.11613   0.38008   0.00000  Uiso   1.00
H182   H     0.41020   0.18477   0.33033   0.00000  Uiso   1.00
H183   H     0.36471   0.18548   0.36044   0.00000  Uiso   1.00
C184   C     0.62109   0.14475   0.16975   0.00000  Uiso   1.00
C185   C     0.62286   0.09154   0.16395   0.00000  Uiso   1.00
H186   H     0.65531   0.07937   0.16138   0.00000  Uiso   1.00
H187   H     0.60801   0.07350   0.19213   0.00000  Uiso   1.00
H188   H     0.60596   0.08156   0.13371   0.00000  Uiso   1.00
H189   H     0.58807   0.15443   0.17085   0.00000  Uiso   1.00
H190   H     0.63297   0.16263   0.14011   0.00000  Uiso   1.00
C191   C     0.62120   0.17129   0.33408   0.00000  Uiso   1.00
C192   C     0.61603   0.22191   0.34912   0.00000  Uiso   1.00
H193   H     0.64640   0.23966   0.35330   0.00000  Uiso   1.00
H194   H     0.59768   0.24184   0.32478   0.00000  Uiso   1.00
H195   H     0.59942   0.22232   0.38077   0.00000  Uiso   1.00
H196   H     0.59005   0.15532   0.33097   0.00000  Uiso   1.00
H197   H     0.63615   0.15016   0.36018   0.00000  Uiso   1.00
C198   C     0.37804   0.16769   0.16716   0.00000  Uiso   1.00
C199   C     0.37567   0.21755   0.14864   0.00000  Uiso   1.00
H200   H     0.34311   0.22823   0.14300   0.00000  Uiso   1.00
H201   H     0.39038   0.24264   0.17167   0.00000  Uiso   1.00
H202   H     0.39246   0.21937   0.11711   0.00000  Uiso   1.00
H203   H     0.41113   0.15920   0.17091   0.00000  Uiso   1.00
H204   H     0.36647   0.14208   0.14285   0.00000  Uiso   1.00
C205   C     0.75418   0.16658   0.25046   0.00000  Uiso   1.00
C206   C     0.91250   0.16661   0.25058   0.00000  Uiso   1.00
C207   C     0.83257   0.16698   0.16494   0.00000  Uiso   1.00
C208   C     0.83350   0.16658   0.33533   0.00000  Uiso   1.00
C209   C     0.80171   0.02478   0.23092   0.00000  Uiso   1.00
C210   C     0.86501   0.30862   0.26884   0.00000  Uiso   1.00
C211   C     0.86514   0.02487   0.26860   0.00000  Uiso   1.00
C212   C     0.80181   0.30846   0.23074   0.00000  Uiso   1.00
C213   C     0.68878   0.16750   0.29118   0.00000  Uiso   1.00
C214   C     0.97806   0.15964   0.21086   0.00000  Uiso   1.00
C215   C     0.97850   0.16884   0.29123   0.00000  Uiso   1.00
C216   C     0.68811   0.16378   0.21039   0.00000  Uiso   1.00
C217   C     0.84919   0.20462   0.04726   0.00000  Uiso   1.00
C218   C     0.83489   0.12499   0.45415   0.00000  Uiso   1.00
C219   C     0.82869   0.20905   0.45303   0.00000  Uiso   1.00
C220   C     0.81233   0.13090   0.04779   0.00000  Uiso   1.00
C221   C     0.84763   0.20708   0.09270   0.00000  Uiso   1.00
C222   C     0.83405   0.12342   0.40862   0.00000  Uiso   1.00
C223   C     0.83185   0.21017   0.40763   0.00000  Uiso   1.00
C224   C     0.81261   0.12979   0.09332   0.00000  Uiso   1.00
C225   C     0.83099   0.16796   0.11672   0.00000  Uiso   1.00
C226   C     0.83325   0.16665   0.38404   0.00000  Uiso   1.00
C227   C     0.83115   0.16742   0.02461   0.00000  Uiso   1.00
C228   C     0.83138   0.16713   0.47648   0.00000  Uiso   1.00
C229   C     0.95716   0.16585   0.25084   0.00000  Uiso   1.00
C230   C     0.70953   0.16633   0.25065   0.00000  Uiso   1.00
Cu231  Cu    0.83333   0.21355   0.25000   0.00000  Uiso   1.00
Cu232  Cu    0.83333   0.11978   0.25000   0.00000  Uiso   1.00
H233   H     0.77645   0.04341   0.21551   0.00000  Uiso   1.00
H234   H     0.89038   0.29014   0.28392   0.00000  Uiso   1.00
H235   H     0.89082   0.04351   0.28322   0.00000  Uiso   1.00
H236   H     0.77671   0.28977   0.21505   0.00000  Uiso   1.00
H237   H     0.86460   0.23248   0.02928   0.00000  Uiso   1.00
H238   H     0.83856   0.09258   0.47250   0.00000  Uiso   1.00
H239   H     0.82458   0.24175   0.47035   0.00000  Uiso   1.00
H240   H     0.79685   0.10285   0.03029   0.00000  Uiso   1.00
N241   N     0.83333   0.28402   0.25000   0.00000  Uiso   1.00
N242   N     0.83333   0.04931   0.25000   0.00000  Uiso   1.00
O243   O     0.77321   0.20625   0.25000   0.00000  Uiso   1.00
O244   O     0.89345   0.12709   0.25001   0.00000  Uiso   1.00
O245   O     0.89345   0.20625   0.25001   0.00000  Uiso   1.00
O246   O     0.77321   0.12709   0.25000   0.00000  Uiso   1.00
O247   O     0.83333   0.20626   0.18573   0.00000  Uiso   1.00
O248   O     0.83334   0.12707   0.31427   0.00000  Uiso   1.00
O249   O     0.83334   0.20626   0.31427   0.00000  Uiso   1.00
O250   O     0.83333   0.12707   0.18573   0.00000  Uiso   1.00
C251   C     0.86256   0.25332   0.11246   0.00000  Uiso   1.00
C252   C     0.90569   0.25007   0.13266   0.00000  Uiso   1.00
H253   H     0.90486   0.23113   0.16423   0.00000  Uiso   1.00
H254   H     0.92720   0.23232   0.11001   0.00000  Uiso   1.00
H255   H     0.91770   0.28601   0.13911   0.00000  Uiso   1.00
H256   H     0.86422   0.28103   0.08671   0.00000  Uiso   1.00
H257   H     0.83989   0.26764   0.13583   0.00000  Uiso   1.00
C258   C     0.83490   0.07421   0.38946   0.00000  Uiso   1.00
C259   C     0.87884   0.05980   0.37766   0.00000  Uiso   1.00
H260   H     0.87851   0.02360   0.36439   0.00000  Uiso   1.00
H261   H     0.89223   0.08394   0.35296   0.00000  Uiso   1.00
H262   H     0.89887   0.06024   0.40724   0.00000  Uiso   1.00
H263   H     0.82342   0.04808   0.41379   0.00000  Uiso   1.00
H264   H     0.81294   0.06978   0.36196   0.00000  Uiso   1.00
C265   C     0.83507   0.25925   0.38759   0.00000  Uiso   1.00
C266   C     0.79310   0.27768   0.37222   0.00000  Uiso   1.00
H267   H     0.79716   0.31289   0.35699   0.00000  Uiso   1.00
H268   H     0.77864   0.25418   0.34783   0.00000  Uiso   1.00
H269   H     0.77191   0.28089   0.40048   0.00000  Uiso   1.00
H270   H     0.84707   0.28453   0.41222   0.00000  Uiso   1.00
H271   H     0.85874   0.26135   0.36163   0.00000  Uiso   1.00
C272   C     0.79126   0.08765   0.11428   0.00000  Uiso   1.00
C273   C     0.82038   0.04564   0.11715   0.00000  Uiso   1.00
H274   H     0.83063   0.03534   0.08401   0.00000  Uiso   1.00
H275   H     0.84800   0.05411   0.13735   0.00000  Uiso   1.00
H276   H     0.80393   0.01533   0.13224   0.00000  Uiso   1.00
H277   H     0.77826   0.09529   0.14671   0.00000  Uiso   1.00
H278   H     0.76383   0.07737   0.09439   0.00000  Uiso   1.00
C279   C     0.71353   0.16629   0.33388   0.00000  Uiso   1.00
C280   C     0.72173   0.11584   0.34873   0.00000  Uiso   1.00
H281   H     0.69221   0.09649   0.35366   0.00000  Uiso   1.00
H282   H     0.74040   0.09703   0.32414   0.00000  Uiso   1.00
H283   H     0.73914   0.11613   0.38008   0.00000  Uiso   1.00
H284   H     0.74354   0.18477   0.33033   0.00000  Uiso   1.00
H285   H     0.69804   0.18548   0.36044   0.00000  Uiso   1.00
C286   C     0.95443   0.14475   0.16975   0.00000  Uiso   1.00
C287   C     0.95619   0.09154   0.16395   0.00000  Uiso   1.00
H288   H     0.98864   0.07937   0.16138   0.00000  Uiso   1.00
H289   H     0.94134   0.07350   0.19213   0.00000  Uiso   1.00
H290   H     0.93929   0.08156   0.13371   0.00000  Uiso   1.00
H291   H     0.92140   0.15443   0.17085   0.00000  Uiso   1.00
H292   H     0.96630   0.16263   0.14011   0.00000  Uiso   1.00
C293   C     0.95453   0.17129   0.33408   0.00000  Uiso   1.00
C294   C     0.94937   0.22191   0.34912   0.00000  Uiso   1.00
H295   H     0.97973   0.23966   0.35330   0.00000  Uiso   1.00
H296   H     0.93102   0.24184   0.32478   0.00000  Uiso   1.00
H297   H     0.93275   0.22232   0.38077   0.00000  Uiso   1.00
H298   H     0.92338   0.15532   0.33097   0.00000  Uiso   1.00
H299   H     0.96949   0.15016   0.36018   0.00000  Uiso   1.00
C300   C     0.71138   0.16769   0.16716   0.00000  Uiso   1.00
C301   C     0.70901   0.21755   0.14864   0.00000  Uiso   1.00
H302   H     0.67645   0.22823   0.14300   0.00000  Uiso   1.00
H303   H     0.72371   0.24264   0.17167   0.00000  Uiso   1.00
H304   H     0.72579   0.21937   0.11711   0.00000  Uiso   1.00
H305   H     0.74446   0.15920   0.17091   0.00000  Uiso   1.00
H306   H     0.69981   0.14208   0.14285   0.00000  Uiso   1.00
C307   C     0.08751   0.49991   0.25046   0.00000  Uiso   1.00
C308   C     0.24584   0.49994   0.25058   0.00000  Uiso   1.00
C309   C     0.16590   0.50031   0.16494   0.00000  Uiso   1.00
C310   C     0.16684   0.49991   0.33533   0.00000  Uiso   1.00
C311   C     0.13505   0.35811   0.23092   0.00000  Uiso   1.00
C312   C     0.19834   0.64195   0.26884   0.00000  Uiso   1.00
C313   C     0.19848   0.35820   0.26860   0.00000  Uiso   1.00
C314   C     0.13515   0.64180   0.23074   0.00000  Uiso   1.00
C315   C     0.02211   0.50083   0.29118   0.00000  Uiso   1.00
C316   C     0.31139   0.49297   0.21086   0.00000  Uiso   1.00
C317   C     0.31183   0.50218   0.29123   0.00000  Uiso   1.00
C318   C     0.02144   0.49712   0.21039   0.00000  Uiso   1.00
C319   C     0.18252   0.53795   0.04726   0.00000  Uiso   1.00
C320   C     0.16822   0.45832   0.45415   0.00000  Uiso   1.00
C321   C     0.16202   0.54238   0.45303   0.00000  Uiso   1.00
C322   C     0.14567   0.46424   0.04779   0.00000  Uiso   1.00
C323   C     0.18097   0.54041   0.09270   0.00000  Uiso   1.00
C324   C     0.16738   0.45675   0.40862   0.00000  Uiso   1.00
C325   C     0.16518   0.54350   0.40763   0.00000  Uiso   1.00
C326   C     0.14594   0.46313   0.09332   0.00000  Uiso   1.00
C327   C     0.16432   0.50129   0.11672   0.00000  Uiso   1.00
C328   C     0.16659   0.49998   0.38404   0.00000  Uiso   1.00
C329   C     0.16448   0.50075   0.02461   0.00000  Uiso   1.00
C330   C     0.16471   0.50047   0.47648   0.00000  Uiso   1.00
C331   C     0.29049   0.49918   0.25084   0.00000  Uiso   1.00
C332   C     0.04287   0.49967   0.25065   0.00000  Uiso   1.00
Cu333  Cu    0.16667   0.54689   0.25000   0.00000  Uiso   1.00
Cu334  Cu    0.16667   0.45311   0.25000   0.00000  Uiso   1.00
H335   H     0.10978   0.37674   0.21551   0.00000  Uiso   1.00
H336   H     0.22371   0.62348   0.28392   0.00000  Uiso   1.00
H337   H     0.22415   0.37685   0.28322   0.00000  Uiso   1.00
H338   H     0.11004   0.62311   0.21505   0.00000  Uiso   1.00
H339   H     0.19794   0.56581   0.02928   0.00000  Uiso   1.00
H340   H     0.17189   0.42592   0.47250   0.00000  Uiso   1.00
H341   H     0.15792   0.57508   0.47035   0.00000  Uiso   1.00
H342   H     0.13018   0.43619   0.03029   0.00000  Uiso   1.00
N343   N     0.16667   0.61736   0.25000   0.00000  Uiso   1.00
N344   N     0.16667   0.38264   0.25000   0.00000  Uiso   1.00
O345   O     0.10655   0.53958   0.25000   0.00000  Uiso   1.00
O346   O     0.22679   0.46042   0.25001   0.00000  Uiso   1.00
O347   O     0.22679   0.53958   0.25001   0.00000  Uiso   1.00
O348   O     0.10655   0.46042   0.25000   0.00000  Uiso   1.00
O349   O     0.16666   0.53959   0.18573   0.00000  Uiso   1.00
O350   O     0.16667   0.46041   0.31427   0.00000  Uiso   1.00
O351   O     0.16667   0.53959   0.31427   0.00000  Uiso   1.00
O352   O     0.16666   0.46041   0.18573   0.00000  Uiso   1.00
C353   C     0.19589   0.58666   0.11246   0.00000  Uiso   1.00
C354   C     0.23902   0.58341   0.13266   0.00000  Uiso   1.00
H355   H     0.23819   0.56446   0.16423   0.00000  Uiso   1.00
H356   H     0.26054   0.56566   0.11001   0.00000  Uiso   1.00
H357   H     0.25103   0.61934   0.13911   0.00000  Uiso   1.00
H358   H     0.19756   0.61436   0.08671   0.00000  Uiso   1.00
H359   H     0.17322   0.60097   0.13583   0.00000  Uiso   1.00
C360   C     0.16824   0.40754   0.38946   0.00000  Uiso   1.00
C361   C     0.21217   0.39313   0.37766   0.00000  Uiso   1.00
H362   H     0.21185   0.35694   0.36439   0.00000  Uiso   1.00
H363   H     0.22556   0.41727   0.35296   0.00000  Uiso   1.00
H364   H     0.23220   0.39357   0.40724   0.00000  Uiso   1.00
H365   H     0.15675   0.38141   0.41379   0.00000  Uiso   1.00
H366   H     0.14627   0.40312   0.36196   0.00000  Uiso   1.00
C367   C     0.16841   0.59258   0.38759   0.00000  Uiso   1.00
C368   C     0.12643   0.61101   0.37222   0.00000  Uiso   1.00
H369   H     0.13050   0.64622   0.35699   0.00000  Uiso   1.00
H370   H     0.11197   0.58752   0.34783   0.00000  Uiso   1.00
H371   H     0.10524   0.61423   0.40048   0.00000  Uiso   1.00
H372   H     0.18040   0.61786   0.41222   0.00000  Uiso   1.00
H373   H     0.19207   0.59469   0.36163   0.00000  Uiso   1.00
C374   C     0.12459   0.42098   0.11428   0.00000  Uiso   1.00
C375   C     0.15371   0.37897   0.11715   0.00000  Uiso   1.00
H376   H     0.16396   0.36868   0.08401   0.00000  Uiso   1.00
H377   H     0.18133   0.38744   0.13735   0.00000  Uiso   1.00
H378   H     0.13727   0.34867   0.13224   0.00000  Uiso   1.00
H379   H     0.11159   0.42863   0.14671   0.00000  Uiso   1.00
H380   H     0.09716   0.41071   0.09439   0.00000  Uiso   1.00
C381   C     0.04687   0.49962   0.33388   0.00000  Uiso   1.00
C382   C     0.05506   0.44918   0.34873   0.00000  Uiso   1.00
H383   H     0.02555   0.42982   0.35366   0.00000  Uiso   1.00
H384   H     0.07374   0.43037   0.32414   0.00000  Uiso   1.00
H385   H     0.07248   0.44946   0.38008   0.00000  Uiso   1.00
H386   H     0.07687   0.51810   0.33033   0.00000  Uiso   1.00
H387   H     0.03138   0.51881   0.36044   0.00000  Uiso   1.00
C388   C     0.28776   0.47808   0.16975   0.00000  Uiso   1.00
C389   C     0.28953   0.42487   0.16395   0.00000  Uiso   1.00
H390   H     0.32197   0.41270   0.16138   0.00000  Uiso   1.00
H391   H     0.27467   0.40683   0.19213   0.00000  Uiso   1.00
H392   H     0.27262   0.41490   0.13371   0.00000  Uiso   1.00
H393   H     0.25474   0.48776   0.17085   0.00000  Uiso   1.00
H394   H     0.29963   0.49596   0.14011   0.00000  Uiso   1.00
C395   C     0.28786   0.50463   0.33408   0.00000  Uiso   1.00
C396   C     0.28270   0.55525   0.34912   0.00000  Uiso   1.00
H397   H     0.31306   0.57300   0.35330   0.00000  Uiso   1.00
H398   H     0.26435   0.57517   0.32478   0.00000  Uiso   1.00
H399   H     0.26608   0.55565   0.38077   0.00000  Uiso   1.00
H400   H     0.25671   0.48866   0.33097   0.00000  Uiso   1.00
H401   H     0.30282   0.48349   0.36018   0.00000  Uiso   1.00
C402   C     0.04471   0.50102   0.16716   0.00000  Uiso   1.00
C403   C     0.04234   0.55088   0.14864   0.00000  Uiso   1.00
H404   H     0.00978   0.56156   0.14300   0.00000  Uiso   1.00
H405   H     0.05704   0.57597   0.17167   0.00000  Uiso   1.00
H406   H     0.05913   0.55270   0.11711   0.00000  Uiso   1.00
H407   H     0.07780   0.49253   0.17091   0.00000  Uiso   1.00
H408   H     0.03314   0.47541   0.14285   0.00000  Uiso   1.00
C409   C     0.42085   0.49991   0.25046   0.00000  Uiso   1.00
C410   C     0.57917   0.49994   0.25058   0.00000  Uiso   1.00
C411   C     0.49923   0.50031   0.16494   0.00000  Uiso   1.00
C412   C     0.50017   0.49991   0.33533   0.00000  Uiso   1.00
C413   C     0.46838   0.35811   0.23092   0.00000  Uiso   1.00
C414   C     0.53167   0.64195   0.26884   0.00000  Uiso   1.00
C415   C     0.53181   0.35820   0.26860   0.00000  Uiso   1.00
C416   C     0.46848   0.64180   0.23074   0.00000  Uiso   1.00
C417   C     0.35544   0.50083   0.29118   0.00000  Uiso   1.00
C418   C     0.64473   0.49297   0.21086   0.00000  Uiso   1.00
C419   C     0.64517   0.50218   0.29123   0.00000  Uiso   1.00
C420   C     0.35477   0.49712   0.21039   0.00000  Uiso   1.00
C421   C     0.51586   0.53795   0.04726   0.00000  Uiso   1.00
C422   C     0.50155   0.45832   0.45415   0.00000  Uiso   1.00
C423   C     0.49535   0.54238   0.45303   0.00000  Uiso   1.00
C424   C     0.47900   0.46424   0.04779   0.00000  Uiso   1.00
C425   C     0.51430   0.54041   0.09270   0.00000  Uiso   1.00
C426   C     0.50071   0.45675   0.40862   0.00000  Uiso   1.00
C427   C     0.49851   0.54350   0.40763   0.00000  Uiso   1.00
C428   C     0.47928   0.46313   0.09332   0.00000  Uiso   1.00
C429   C     0.49765   0.50129   0.11672   0.00000  Uiso   1.00
C430   C     0.49992   0.49998   0.38404   0.00000  Uiso   1.00
C431   C     0.49782   0.50075   0.02461   0.00000  Uiso   1.00
C432   C     0.49805   0.50047   0.47648   0.00000  Uiso   1.00
C433   C     0.62383   0.49918   0.25084   0.00000  Uiso   1.00
C434   C     0.37620   0.49967   0.25065   0.00000  Uiso   1.00
Cu435  Cu    0.50000   0.54689   0.25000   0.00000  Uiso   1.00
Cu436  Cu    0.50000   0.45311   0.25000   0.00000  Uiso   1.00
H437   H     0.44311   0.37674   0.21551   0.00000  Uiso   1.00
H438   H     0.55704   0.62348   0.28392   0.00000  Uiso   1.00
H439   H     0.55749   0.37685   0.28322   0.00000  Uiso   1.00
H440   H     0.44337   0.62311   0.21505   0.00000  Uiso   1.00
H441   H     0.53127   0.56581   0.02928   0.00000  Uiso   1.00
H442   H     0.50523   0.42592   0.47250   0.00000  Uiso   1.00
H443   H     0.49125   0.57508   0.47035   0.00000  Uiso   1.00
H444   H     0.46352   0.43619   0.03029   0.00000  Uiso   1.00
N445   N     0.50000   0.61736   0.25000   0.00000  Uiso   1.00
N446   N     0.50000   0.38264   0.25000   0.00000  Uiso   1.00
O447   O     0.43988   0.53958   0.25000   0.00000  Uiso   1.00
O448   O     0.56012   0.46042   0.25001   0.00000  Uiso   1.00
O449   O     0.56012   0.53958   0.25001   0.00000  Uiso   1.00
O450   O     0.43988   0.46042   0.25000   0.00000  Uiso   1.00
O451   O     0.50000   0.53959   0.18573   0.00000  Uiso   1.00
O452   O     0.50000   0.46041   0.31427   0.00000  Uiso   1.00
O453   O     0.50000   0.53959   0.31427   0.00000  Uiso   1.00
O454   O     0.50000   0.46041   0.18573   0.00000  Uiso   1.00
C455   C     0.52922   0.58666   0.11246   0.00000  Uiso   1.00
C456   C     0.57235   0.58341   0.13266   0.00000  Uiso   1.00
H457   H     0.57153   0.56446   0.16423   0.00000  Uiso   1.00
H458   H     0.59387   0.56566   0.11001   0.00000  Uiso   1.00
H459   H     0.58436   0.61934   0.13911   0.00000  Uiso   1.00
H460   H     0.53089   0.61436   0.08671   0.00000  Uiso   1.00
H461   H     0.50656   0.60097   0.13583   0.00000  Uiso   1.00
C462   C     0.50157   0.40754   0.38946   0.00000  Uiso   1.00
C463   C     0.54551   0.39313   0.37766   0.00000  Uiso   1.00
H464   H     0.54518   0.35694   0.36439   0.00000  Uiso   1.00
H465   H     0.55890   0.41727   0.35296   0.00000  Uiso   1.00
H466   H     0.56553   0.39357   0.40724   0.00000  Uiso   1.00
H467   H     0.49008   0.38141   0.41379   0.00000  Uiso   1.00
H468   H     0.47960   0.40312   0.36196   0.00000  Uiso   1.00
C469   C     0.50174   0.59258   0.38759   0.00000  Uiso   1.00
C470   C     0.45977   0.61101   0.37222   0.00000  Uiso   1.00
H471   H     0.46383   0.64622   0.35699   0.00000  Uiso   1.00
H472   H     0.44530   0.58752   0.34783   0.00000  Uiso   1.00
H473   H     0.43857   0.61423   0.40048   0.00000  Uiso   1.00
H474   H     0.51373   0.61786   0.41222   0.00000  Uiso   1.00
H475   H     0.52540   0.59469   0.36163   0.00000  Uiso   1.00
C476   C     0.45792   0.42098   0.11428   0.00000  Uiso   1.00
C477   C     0.48704   0.37897   0.11715   0.00000  Uiso   1.00
H478   H     0.49730   0.36868   0.08401   0.00000  Uiso   1.00
H479   H     0.51467   0.38744   0.13735   0.00000  Uiso   1.00
H480   H     0.47060   0.34867   0.13224   0.00000  Uiso   1.00
H481   H     0.44492   0.42863   0.14671   0.00000  Uiso   1.00
H482   H     0.43049   0.41071   0.09439   0.00000  Uiso   1.00
C483   C     0.38020   0.49962   0.33388   0.00000  Uiso   1.00
C484   C     0.38839   0.44918   0.34873   0.00000  Uiso   1.00
H485   H     0.35888   0.42982   0.35366   0.00000  Uiso   1.00
H486   H     0.40707   0.43037   0.32414   0.00000  Uiso   1.00
H487   H     0.40581   0.44946   0.38008   0.00000  Uiso   1.00
H488   H     0.41020   0.51810   0.33033   0.00000  Uiso   1.00
H489   H     0.36471   0.51881   0.36044   0.00000  Uiso   1.00
C490   C     0.62109   0.47808   0.16975   0.00000  Uiso   1.00
C491   C     0.62286   0.42487   0.16395   0.00000  Uiso   1.00
H492   H     0.65531   0.41270   0.16138   0.00000  Uiso   1.00
H493   H     0.60801   0.40683   0.19213   0.00000  Uiso   1.00
H494   H     0.60596   0.41490   0.13371   0.00000  Uiso   1.00
H495   H     0.58807   0.48776   0.17085   0.00000  Uiso   1.00
H496   H     0.63297   0.49596   0.14011   0.00000  Uiso   1.00
C497   C     0.62120   0.50463   0.33408   0.00000  Uiso   1.00
C498   C     0.61603   0.55525   0.34912   0.00000  Uiso   1.00
H499   H     0.64640   0.57300   0.35330   0.00000  Uiso   1.00
H500   H     0.59768   0.57517   0.32478   0.00000  Uiso   1.00
H501   H     0.59942   0.55565   0.38077   0.00000  Uiso   1.00
H502   H     0.59005   0.48866   0.33097   0.00000  Uiso   1.00
H503   H     0.63615   0.48349   0.36018   0.00000  Uiso   1.00
C504   C     0.37804   0.50102   0.16716   0.00000  Uiso   1.00
C505   C     0.37567   0.55088   0.14864   0.00000  Uiso   1.00
H506   H     0.34311   0.56156   0.14300   0.00000  Uiso   1.00
H507   H     0.39038   0.57597   0.17167   0.00000  Uiso   1.00
H508   H     0.39246   0.55270   0.11711   0.00000  Uiso   1.00
H509   H     0.41113   0.49253   0.17091   0.00000  Uiso   1.00
H510   H     0.36647   0.47541   0.14285   0.00000  Uiso   1.00
C511   C     0.75418   0.49991   0.25046   0.00000  Uiso   1.00
C512   C     0.91250   0.49994   0.25058   0.00000  Uiso   1.00
C513   C     0.83257   0.50031   0.16494   0.00000  Uiso   1.00
C514   C     0.83350   0.49991   0.33533   0.00000  Uiso   1.00
C515   C     0.80171   0.35811   0.23092   0.00000  Uiso   1.00
C516   C     0.86501   0.64195   0.26884   0.00000  Uiso   1.00
C517   C     0.86514   0.35820   0.26860   0.00000  Uiso   1.00
C518   C     0.80181   0.64180   0.23074   0.00000  Uiso   1.00
C519   C     0.68878   0.50083   0.29118   0.00000  Uiso   1.00
C520   C     0.97806   0.49297   0.21086   0.00000  Uiso   1.00
C521   C     0.97850   0.50218   0.29123   0.00000  Uiso   1.00
C522   C     0.68811   0.49712   0.21039   0.00000  Uiso   1.00
C523   C     0.84919   0.53795   0.04726   0.00000  Uiso   1.00
C524   C     0.83489   0.45832   0.45415   0.00000  Uiso   1.00
C525   C     0.82869   0.54238   0.45303   0.00000  Uiso   1.00
C526   C     0.81233   0.46424   0.04779   0.00000  Uiso   1.00
C527   C     0.84763   0.54041   0.09270   0.00000  Uiso   1.00
C528   C     0.83405   0.45675   0.40862   0.00000  Uiso   1.00
C529   C     0.83185   0.54350   0.40763   0.00000  Uiso   1.00
C530   C     0.81261   0.46313   0.09332   0.00000  Uiso   1.00
C531   C     0.83099   0.50129   0.11672   0.00000  Uiso   1.00
C532   C     0.83325   0.49998   0.38404   0.00000  Uiso   1.00
C533   C     0.83115   0.50075   0.02461   0.00000  Uiso   1.00
C534   C     0.83138   0.50047   0.47648   0.00000  Uiso   1.00
C535   C     0.95716   0.49918   0.25084   0.00000  Uiso   1.00
C536   C     0.70953   0.49967   0.25065   0.00000  Uiso   1.00
Cu537  Cu    0.83333   0.54689   0.25000   0.00000  Uiso   1.00
Cu538  Cu    0.83333   0.45311   0.25000   0.00000  Uiso   1.00
H539   H     0.77645   0.37674   0.21551   0.00000  Uiso   1.00
H540   H     0.89038   0.62348   0.28392   0.00000  Uiso   1.00
H541   H     0.89082   0.37685   0.28322   0.00000  Uiso   1.00
H542   H     0.77671   0.62311   0.21505   0.00000  Uiso   1.00
H543   H     0.86460   0.56581   0.02928   0.00000  Uiso   1.00
H544   H     0.83856   0.42592   0.47250   0.00000  Uiso   1.00
H545   H     0.82458   0.57508   0.47035   0.00000  Uiso   1.00
H546   H     0.79685   0.43619   0.03029   0.00000  Uiso   1.00
N547   N     0.83333   0.61736   0.25000   0.00000  Uiso   1.00
N548   N     0.83333   0.38264   0.25000   0.00000  Uiso   1.00
O549   O     0.77321   0.53958   0.25000   0.00000  Uiso   1.00
O550   O     0.89345   0.46042   0.25001   0.00000  Uiso   1.00
O551   O     0.89345   0.53958   0.25001   0.00000  Uiso   1.00
O552   O     0.77321   0.46042   0.25000   0.00000  Uiso   1.00
O553   O     0.83333   0.53959   0.18573   0.00000  Uiso   1.00
O554   O     0.83334   0.46041   0.31427   0.00000  Uiso   1.00
O555   O     0.83334   0.53959   0.31427   0.00000  Uiso   1.00
O556   O     0.83333   0.46041   0.18573   0.00000  Uiso   1.00
C557   C     0.86256   0.58666   0.11246   0.00000  Uiso   1.00
C558   C     0.90569   0.58341   0.13266   0.00000  Uiso   1.00
H559   H     0.90486   0.56446   0.16423   0.00000  Uiso   1.00
H560   H     0.92720   0.56566   0.11001   0.00000  Uiso   1.00
H561   H     0.91770   0.61934   0.13911   0.00000  Uiso   1.00
H562   H     0.86422   0.61436   0.08671   0.00000  Uiso   1.00
H563   H     0.83989   0.60097   0.13583   0.00000  Uiso   1.00
C564   C     0.83490   0.40754   0.38946   0.00000  Uiso   1.00
C565   C     0.87884   0.39313   0.37766   0.00000  Uiso   1.00
H566   H     0.87851   0.35694   0.36439   0.00000  Uiso   1.00
H567   H     0.89223   0.41727   0.35296   0.00000  Uiso   1.00
H568   H     0.89887   0.39357   0.40724   0.00000  Uiso   1.00
H569   H     0.82342   0.38141   0.41379   0.00000  Uiso   1.00
H570   H     0.81294   0.40312   0.36196   0.00000  Uiso   1.00
C571   C     0.83507   0.59258   0.38759   0.00000  Uiso   1.00
C572   C     0.79310   0.61101   0.37222   0.00000  Uiso   1.00
H573   H     0.79716   0.64622   0.35699   0.00000  Uiso   1.00
H574   H     0.77864   0.58752   0.34783   0.00000  Uiso   1.00
H575   H     0.77191   0.61423   0.40048   0.00000  Uiso   1.00
H576   H     0.84707   0.61786   0.41222   0.00000  Uiso   1.00
H577   H     0.85874   0.59469   0.36163   0.00000  Uiso   1.00
C578   C     0.79126   0.42098   0.11428   0.00000  Uiso   1.00
C579   C     0.82038   0.37897   0.11715   0.00000  Uiso   1.00
H580   H     0.83063   0.36868   0.08401   0.00000  Uiso   1.00
H581   H     0.84800   0.38744   0.13735   0.00000  Uiso   1.00
H582   H     0.80393   0.34867   0.13224   0.00000  Uiso   1.00
H583   H     0.77826   0.42863   0.14671   0.00000  Uiso   1.00
H584   H     0.76383   0.41071   0.09439   0.00000  Uiso   1.00
C585   C     0.71353   0.49962   0.33388   0.00000  Uiso   1.00
C586   C     0.72173   0.44918   0.34873   0.00000  Uiso   1.00
H587   H     0.69221   0.42982   0.35366   0.00000  Uiso   1.00
H588   H     0.74040   0.43037   0.32414   0.00000  Uiso   1.00
H589   H     0.73914   0.44946   0.38008   0.00000  Uiso   1.00
H590   H     0.74354   0.51810   0.33033   0.00000  Uiso   1.00
H591   H     0.69804   0.51881   0.36044   0.00000  Uiso   1.00
C592   C     0.95443   0.47808   0.16975   0.00000  Uiso   1.00
C593   C     0.95619   0.42487   0.16395   0.00000  Uiso   1.00
H594   H     0.98864   0.41270   0.16138   0.00000  Uiso   1.00
H595   H     0.94134   0.40683   0.19213   0.00000  Uiso   1.00
H596   H     0.93929   0.41490   0.13371   0.00000  Uiso   1.00
H597   H     0.92140   0.48776   0.17085   0.00000  Uiso   1.00
H598   H     0.96630   0.49596   0.14011   0.00000  Uiso   1.00
C599   C     0.95453   0.50463   0.33408   0.00000  Uiso   1.00
C600   C     0.94937   0.55525   0.34912   0.00000  Uiso   1.00
H601   H     0.97973   0.57300   0.35330   0.00000  Uiso   1.00
H602   H     0.93102   0.57517   0.32478   0.00000  Uiso   1.00
H603   H     0.93275   0.55565   0.38077   0.00000  Uiso   1.00
H604   H     0.92338   0.48866   0.33097   0.00000  Uiso   1.00
H605   H     0.96949   0.48349   0.36018   0.00000  Uiso   1.00
C606   C     0.71138   0.50102   0.16716   0.00000  Uiso   1.00
C607   C     0.70901   0.55088   0.14864   0.00000  Uiso   1.00
H608   H     0.67645   0.56156   0.14300   0.00000  Uiso   1.00
H609   H     0.72371   0.57597   0.17167   0.00000  Uiso   1.00
H610   H     0.72579   0.55270   0.11711   0.00000  Uiso   1.00
H611   H     0.74446   0.49253   0.17091   0.00000  Uiso   1.00
H612   H     0.69981   0.47541   0.14285   0.00000  Uiso   1.00
C613   C     0.08751   0.83325   0.25046   0.00000  Uiso   1.00
C614   C     0.24584   0.83327   0.25058   0.00000  Uiso   1.00
C615   C     0.16590   0.83364   0.16494   0.00000  Uiso   1.00
C616   C     0.16684   0.83325   0.33533   0.00000  Uiso   1.00
C617   C     0.13505   0.69144   0.23092   0.00000  Uiso   1.00
C618   C     0.19834   0.97528   0.26884   0.00000  Uiso   1.00
C619   C     0.19848   0.69154   0.26860   0.00000  Uiso   1.00
C620   C     0.13515   0.97513   0.23074   0.00000  Uiso   1.00
C621   C     0.02211   0.83417   0.29118   0.00000  Uiso   1.00
C622   C     0.31139   0.82630   0.21086   0.00000  Uiso   1.00
C623   C     0.31183   0.83551   0.29123   0.00000  Uiso   1.00
C624   C     0.02144   0.83045   0.21039   0.00000  Uiso   1.00
C625   C     0.18252   0.87129   0.04726   0.00000  Uiso   1.00
C626   C     0.16822   0.79166   0.45415   0.00000  Uiso   1.00
C627   C     0.16202   0.87572   0.45303   0.00000  Uiso   1.00
C628   C     0.14567   0.79757   0.04779   0.00000  Uiso   1.00
C629   C     0.18097   0.87375   0.09270   0.00000  Uiso   1.00
C630   C     0.16738   0.79008   0.40862   0.00000  Uiso   1.00
C631   C     0.16518   0.87684   0.40763   0.00000  Uiso   1.00
C632   C     0.14594   0.79646   0.09332   0.00000  Uiso   1.00
C633   C     0.16432   0.83462   0.11672   0.00000  Uiso   1.00
C634   C     0.16659   0.83331   0.38404   0.00000  Uiso   1.00
C635   C     0.16448   0.83408   0.02461   0.00000  Uiso   1.00
C636   C     0.16471   0.83380   0.47648   0.00000  Uiso   1.00
C637   C     0.29049   0.83251   0.25084   0.00000  Uiso   1.00
C638   C     0.04287   0.83300   0.25065   0.00000  Uiso   1.00
Cu639  Cu    0.16667   0.88022   0.25000   0.00000  Uiso   1.00
Cu640  Cu    0.16667   0.78645   0.25000   0.00000  Uiso   1.00
H641   H     0.10978   0.71007   0.21551   0.00000  Uiso   1.00
H642   H     0.22371   0.95681   0.28392   0.00000  Uiso   1.00
H643   H     0.22415   0.71018   0.28322   0.00000  Uiso   1.00
H644   H     0.11004   0.95644   0.21505   0.00000  Uiso   1.00
H645   H     0.19794   0.89915   0.02928   0.00000  Uiso   1.00
H646   H     0.17189   0.75925   0.47250   0.00000  Uiso   1.00
H647   H     0.15792   0.90842   0.47035   0.00000  Uiso   1.00
H648   H     0.13018   0.76952   0.03029   0.00000  Uiso   1.00
N649   N     0.16667   0.95069   0.25000   0.00000  Uiso   1.00
N650   N     0.16667   0.71598   0.25000   0.00000  Uiso   1.00
O651   O     0.10655   0.87291   0.25000   0.00000  Uiso   1.00
O652   O     0.22679   0.79375   0.25001   0.00000  Uiso   1.00
O653   O     0.22679   0.87291   0.25001   0.00000  Uiso   1.00
O654   O     0.10655   0.79375   0.25000   0.00000  Uiso   1.00
O655   O     0.16666   0.87293   0.18573   0.00000  Uiso   1.00
O656   O     0.16667   0.79374   0.31427   0.00000  Uiso   1.00
O657   O     0.16667   0.87293   0.31427   0.00000  Uiso   1.00
O658   O     0.16666   0.79374   0.18573   0.00000  Uiso   1.00
C659   C     0.19589   0.91999   0.11246   0.00000  Uiso   1.00
C660   C     0.23902   0.91674   0.13266   0.00000  Uiso   1.00
H661   H     0.23819   0.89780   0.16423   0.00000  Uiso   1.00
H662   H     0.26054   0.89899   0.11001   0.00000  Uiso   1.00
H663   H     0.25103   0.95267   0.13911   0.00000  Uiso   1.00
H664   H     0.19756   0.94769   0.08671   0.00000  Uiso   1.00
H665   H     0.17322   0.93431   0.13583   0.00000  Uiso   1.00
C666   C     0.16824   0.74087   0.38946   0.00000  Uiso   1.00
C667   C     0.21217   0.72646   0.37766   0.00000  Uiso   1.00
H668   H     0.21185   0.69027   0.36439   0.00000  Uiso   1.00
H669   H     0.22556   0.75060   0.35296   0.00000  Uiso   1.00
H670   H     0.23220   0.72690   0.40724   0.00000  Uiso   1.00
H671   H     0.15675   0.71474   0.41379   0.00000  Uiso   1.00
H672   H     0.14627   0.73645   0.36196   0.00000  Uiso   1.00
C673   C     0.16841   0.92591   0.38759   0.00000  Uiso   1.00
C674   C     0.12643   0.94434   0.37222   0.00000  Uiso   1.00
H675   H     0.13050   0.97956   0.35699   0.00000  Uiso   1.00
H676   H     0.11197   0.92085   0.34783   0.00000  Uiso   1.00
H677   H     0.10524   0.94756   0.40048   0.00000  Uiso   1.00
H678   H     0.18040   0.95119   0.41222   0.00000  Uiso   1.00
H679   H     0.19207   0.92802   0.36163   0.00000  Uiso   1.00
C680   C     0.12459   0.75432   0.11428   0.00000  Uiso   1.00
C681   C     0.15371   0.71230   0.11715   0.00000  Uiso   1.00
H682   H     0.16396   0.70201   0.08401   0.00000  Uiso   1.00
H683   H     0.18133   0.72077   0.13735   0.00000  Uiso   1.00
H684   H     0.13727   0.68200   0.13224   0.00000  Uiso   1.00
H685   H     0.11159   0.76196   0.14671   0.00000  Uiso   1.00
H686   H     0.09716   0.74404   0.09439   0.00000  Uiso   1.00
C687   C     0.04687   0.83296   0.33388   0.00000  Uiso   1.00
C688   C     0.05506   0.78251   0.34873   0.00000  Uiso   1.00
H689   H     0.02555   0.76315   0.35366   0.00000  Uiso   1.00
H690   H     0.07374   0.76370   0.32414   0.00000  Uiso   1.00
H691   H     0.07248   0.78279   0.38008   0.00000  Uiso   1.00
H692   H     0.07687   0.85143   0.33033   0.00000  Uiso   1.00
H693   H     0.03138   0.85215   0.36044   0.00000  Uiso   1.00
C694   C     0.28776   0.81142   0.16975   0.00000  Uiso   1.00
C695   C     0.28953   0.75820   0.16395   0.00000  Uiso   1.00
H696   H     0.32197   0.74604   0.16138   0.00000  Uiso   1.00
H697   H     0.27467   0.74016   0.19213   0.00000  Uiso   1.00
H698   H     0.27262   0.74823   0.13371   0.00000  Uiso   1.00
H699   H     0.25474   0.82110   0.17085   0.00000  Uiso   1.00
H700   H     0.29963   0.82929   0.14011   0.00000  Uiso   1.00
C701   C     0.28786   0.83796   0.33408   0.00000  Uiso   1.00
C702   C     0.28270   0.88858   0.34912   0.00000  Uiso   1.00
H703   H     0.31306   0.90633   0.35330   0.00000  Uiso   1.00
H704   H     0.26435   0.90850   0.32478   0.00000  Uiso   1.00
H705   H     0.26608   0.88899   0.38077   0.00000  Uiso   1.00
H706   H     0.25671   0.82199   0.33097   0.00000  Uiso   1.00
H707   H     0.30282   0.81682   0.36018   0.00000  Uiso   1.00
C708   C     0.04471   0.83435   0.16716   0.00000  Uiso   1.00
C709   C     0.04234   0.88421   0.14864   0.00000  Uiso   1.00
H710   H     0.00978   0.89489   0.14300   0.00000  Uiso   1.00
H711   H     0.05704   0.90930   0.17167   0.00000  Uiso   1.00
H712   H     0.05913   0.88604   0.11711   0.00000  Uiso   1.00
H713   H     0.07780   0.82587   0.17091   0.00000  Uiso   1.00
H714   H     0.03314   0.80875   0.14285   0.00000  Uiso   1.00
C715   C     0.42085   0.83325   0.25046   0.00000  Uiso   1.00
C716   C     0.57917   0.83327   0.25058   0.00000  Uiso   1.00
C717   C     0.49923   0.83364   0.16494   0.00000  Uiso   1.00
C718   C     0.50017   0.83325   0.33533   0.00000  Uiso   1.00
C719   C     0.46838   0.69144   0.23092   0.00000  Uiso   1.00
C720   C     0.53167   0.97528   0.26884   0.00000  Uiso   1.00
C721   C     0.53181   0.69154   0.26860   0.00000  Uiso   1.00
C722   C     0.46848   0.97513   0.23074   0.00000  Uiso   1.00
C723   C     0.35544   0.83417   0.29118   0.00000  Uiso   1.00
C724   C     0.64473   0.82630   0.21086   0.00000  Uiso   1.00
C725   C     0.64517   0.83551   0.29123   0.00000  Uiso   1.00
C726   C     0.35477   0.83045   0.21039   0.00000  Uiso   1.00
C727   C     0.51586   0.87129   0.04726   0.00000  Uiso   1.00
C728   C     0.50155   0.79166   0.45415   0.00000  Uiso   1.00
C729   C     0.49535   0.87572   0.45303   0.00000  Uiso   1.00
C730   C     0.47900   0.79757   0.04779   0.00000  Uiso   1.00
C731   C     0.51430   0.87375   0.09270   0.00000  Uiso   1.00
C732   C     0.50071   0.79008   0.40862   0.00000  Uiso   1.00
C733   C     0.49851   0.87684   0.40763   0.00000  Uiso   1.00
C734   C     0.47928   0.79646   0.09332   0.00000  Uiso   1.00
C735   C     0.49765   0.83462   0.11672   0.00000  Uiso   1.00
C736   C     0.49992   0.83331   0.38404   0.00000  Uiso   1.00
C737   C     0.49782   0.83408   0.02461   0.00000  Uiso   1.00
C738   C     0.49805   0.83380   0.47648   0.00000  Uiso   1.00
C739   C     0.62383   0.83251   0.25084   0.00000  Uiso   1.00
C740   C     0.37620   0.83300   0.25065   0.00000  Uiso   1.00
Cu741  Cu    0.50000   0.88022   0.25000   0.00000  Uiso   1.00
Cu742  Cu    0.50000   0.78645   0.25000   0.00000  Uiso   1.00
H743   H     0.44311   0.71007   0.21551   0.00000  Uiso   1.00
H744   H     0.55704   0.95681   0.28392   0.00000  Uiso   1.00
H745   H     0.55749   0.71018   0.28322   0.00000  Uiso   1.00
H746   H     0.44337   0.95644   0.21505   0.00000  Uiso   1.00
H747   H     0.53127   0.89915   0.02928   0.00000  Uiso   1.00
H748   H     0.50523   0.75925   0.47250   0.00000  Uiso   1.00
H749   H     0.49125   0.90842   0.47035   0.00000  Uiso   1.00
H750   H     0.46352   0.76952   0.03029   0.00000  Uiso   1.00
N751   N     0.50000   0.95069   0.25000   0.00000  Uiso   1.00
N752   N     0.50000   0.71598   0.25000   0.00000  Uiso   1.00
O753   O     0.43988   0.87291   0.25000   0.00000  Uiso   1.00
O754   O     0.56012   0.79375   0.25001   0.00000  Uiso   1.00
O755   O     0.56012   0.87291   0.25001   0.00000  Uiso   1.00
O756   O     0.43988   0.79375   0.25000   0.00000  Uiso   1.00
O757   O     0.50000   0.87293   0.18573   0.00000  Uiso   1.00
O758   O     0.50000   0.79374   0.31427   0.00000  Uiso   1.00
O759   O     0.50000   0.87293   0.31427   0.00000  Uiso   1.00
O760   O     0.50000   0.79374   0.18573   0.00000  Uiso   1.00
C761   C     0.52922   0.91999   0.11246   0.00000  Uiso   1.00
C762   C     0.57235   0.91674   0.13266   0.00000  Uiso   1.00
H763   H     0.57153   0.89780   0.16423   0.00000  Uiso   1.00
H764   H     0.59387   0.89899   0.11001   0.00000  Uiso   1.00
H765   H     0.58436   0.95267   0.13911   0.00000  Uiso   1.00
H766   H     0.53089   0.94769   0.08671   0.00000  Uiso   1.00
H767   H     0.50656   0.93431   0.13583   0.00000  Uiso   1.00
C768   C     0.50157   0.74087   0.38946   0.00000  Uiso   1.00
C769   C     0.54551   0.72646   0.37766   0.00000  Uiso   1.00
H770   H     0.54518   0.69027   0.36439   0.00000  Uiso   1.00
H771   H     0.55890   0.75060   0.35296   0.00000  Uiso   1.00
H772   H     0.56553   0.72690   0.40724   0.00000  Uiso   1.00
H773   H     0.49008   0.71474   0.41379   0.00000  Uiso   1.00
H774   H     0.47960   0.73645   0.36196   0.00000  Uiso   1.00
C775   C     0.50174   0.92591   0.38759   0.00000  Uiso   1.00
C776   C     0.45977   0.94434   0.37222   0.00000  Uiso   1.00
H777   H     0.46383   0.97956   0.35699   0.00000  Uiso   1.00
H778   H     0.44530   0.92085   0.34783   0.00000  Uiso   1.00
H779   H     0.43857   0.94756   0.40048   0.00000  Uiso   1.00
H780   H     0.51373   0.95119   0.41222   0.00000  Uiso   1.00
H781   H     0.52540   0.92802   0.36163   0.00000  Uiso   1.00
C782   C     0.45792   0.75432   0.11428   0.00000  Uiso   1.00
C783   C     0.48704   0.71230   0.11715   0.00000  Uiso   1.00
H784   H     0.49730   0.70201   0.08401   0.00000  Uiso   1.00
H785   H     0.51467   0.72077   0.13735   0.00000  Uiso   1.00
H786   H     0.47060   0.68200   0.13224   0.00000  Uiso   1.00
H787   H     0.44492   0.76196   0.14671   0.00000  Uiso   1.00
H788   H     0.43049   0.74404   0.09439   0.00000  Uiso   1.00
C789   C     0.38020   0.83296   0.33388   0.00000  Uiso   1.00
C790   C     0.38839   0.78251   0.34873   0.00000  Uiso   1.00
H791   H     0.35888   0.76315   0.35366   0.00000  Uiso   1.00
H792   H     0.40707   0.76370   0.32414   0.00000  Uiso   1.00
H793   H     0.40581   0.78279   0.38008   0.00000  Uiso   1.00
H794   H     0.41020   0.85143   0.33033   0.00000  Uiso   1.00
H795   H     0.36471   0.85215   0.36044   0.00000  Uiso   1.00
C796   C     0.62109   0.81142   0.16975   0.00000  Uiso   1.00
C797   C     0.62286   0.75820   0.16395   0.00000  Uiso   1.00
H798   H     0.65531   0.74604   0.16138   0.00000  Uiso   1.00
H799   H     0.60801   0.74016   0.19213   0.00000  Uiso   1.00
H800   H     0.60596   0.74823   0.13371   0.00000  Uiso   1.00
H801   H     0.58807   0.82110   0.17085   0.00000  Uiso   1.00
H802   H     0.63297   0.82929   0.14011   0.00000  Uiso   1.00
C803   C     0.62120   0.83796   0.33408   0.00000  Uiso   1.00
C804   C     0.61603   0.88858   0.34912   0.00000  Uiso   1.00
H805   H     0.64640   0.90633   0.35330   0.00000  Uiso   1.00
H806   H     0.59768   0.90850   0.32478   0.00000  Uiso   1.00
H807   H     0.59942   0.88899   0.38077   0.00000  Uiso   1.00
H808   H     0.59005   0.82199   0.33097   0.00000  Uiso   1.00
H809   H     0.63615   0.81682   0.36018   0.00000  Uiso   1.00
C810   C     0.37804   0.83435   0.16716   0.00000  Uiso   1.00
C811   C     0.37567   0.88421   0.14864   0.00000  Uiso   1.00
H812   H     0.34311   0.89489   0.14300   0.00000  Uiso   1.00
H813   H     0.39038   0.90930   0.17167   0.00000  Uiso   1.00
H814   H     0.39246   0.88604   0.11711   0.00000  Uiso   1.00
H815   H     0.41113   0.82587   0.17091   0.00000  Uiso   1.00
H816   H     0.36647   0.80875   0.14285   0.00000  Uiso   1.00
C817   C     0.75418   0.83325   0.25046   0.00000  Uiso   1.00
C818   C     0.91250   0.83327   0.25058   0.00000  Uiso   1.00
C819   C     0.83257   0.83364   0.16494   0.00000  Uiso   1.00
C820   C     0.83350   0.83325   0.33533   0.00000  Uiso   1.00
C821   C     0.80171   0.69144   0.23092   0.00000  Uiso   1.00
C822   C     0.86501   0.97528   0.26884   0.00000  Uiso   1.00
C823   C     0.86514   0.69154   0.26860   0.00000  Uiso   1.00
C824   C     0.80181   0.97513   0.23074   0.00000  Uiso   1.00
C825   C     0.68878   0.83417   0.29118   0.00000  Uiso   1.00
C826   C     0.97806   0.82630   0.21086   0.00000  Uiso   1.00
C827   C     0.97850   0.83551   0.29123   0.00000  Uiso   1.00
C828   C     0.68811   0.83045   0.21039   0.00000  Uiso   1.00
C829   C     0.84919   0.87129   0.04726   0.00000  Uiso   1.00
C830   C     0.83489   0.79166   0.45415   0.00000  Uiso   1.00
C831   C     0.82869   0.87572   0.45303   0.00000  Uiso   1.00
C832   C     0.81233   0.79757   0.04779   0.00000  Uiso   1.00
C833   C     0.84763   0.87375   0.09270   0.00000  Uiso   1.00
C834   C     0.83405   0.79008   0.40862   0.00000  Uiso   1.00
C835   C     0.83185   0.87684   0.40763   0.00000  Uiso   1.00
C836   C     0.81261   0.79646   0.09332   0.00000  Uiso   1.00
C837   C     0.83099   0.83462   0.11672   0.00000  Uiso   1.00
C838   C     0.83325   0.83331   0.38404   0.00000  Uiso   1.00
C839   C     0.83115   0.83408   0.02461   0.00000  Uiso   1.00
C840   C     0.83138   0.83380   0.47648   0.00000  Uiso   1.00
C841   C     0.95716   0.83251   0.25084   0.00000  Uiso   1.00
C842   C     0.70953   0.83300   0.25065   0.00000  Uiso   1.00
Cu843  Cu    0.83333   0.88022   0.25000   0.00000  Uiso   1.00
Cu844  Cu    0.83333   0.78645   0.25000   0.00000  Uiso   1.00
H845   H     0.77645   0.71007   0.21551   0.00000  Uiso   1.00
H846   H     0.89038   0.95681   0.28392   0.00000  Uiso   1.00
H847   H     0.89082   0.71018   0.28322   0.00000  Uiso   1.00
H848   H     0.77671   0.95644   0.21505   0.00000  Uiso   1.00
H849   H     0.86460   0.89915   0.02928   0.00000  Uiso   1.00
H850   H     0.83856   0.75925   0.47250   0.00000  Uiso   1.00
H851   H     0.82458   0.90842   0.47035   0.00000  Uiso   1.00
H852   H     0.79685   0.76952   0.03029   0.00000  Uiso   1.00
N853   N     0.83333   0.95069   0.25000   0.00000  Uiso   1.00
N854   N     0.83333   0.71598   0.25000   0.00000  Uiso   1.00
O855   O     0.77321   0.87291   0.25000   0.00000  Uiso   1.00
O856   O     0.89345   0.79375   0.25001   0.00000  Uiso   1.00
O857   O     0.89345   0.87291   0.25001   0.00000  Uiso   1.00
O858   O     0.77321   0.79375   0.25000   0.00000  Uiso   1.00
O859   O     0.83333   0.87293   0.18573   0.00000  Uiso   1.00
O860   O     0.83334   0.79374   0.31427   0.00000  Uiso   1.00
O861   O     0.83334   0.87293   0.31427   0.00000  Uiso   1.00
O862   O     0.83333   0.79374   0.18573   0.00000  Uiso   1.00
C863   C     0.86256   0.91999   0.11246   0.00000  Uiso   1.00
C864   C     0.90569   0.91674   0.13266   0.00000  Uiso   1.00
H865   H     0.90486   0.89780   0.16423   0.00000  Uiso   1.00
H866   H     0.92720   0.89899   0.11001   0.00000  Uiso   1.00
H867   H     0.91770   0.95267   0.13911   0.00000  Uiso   1.00
H868   H     0.86422   0.94769   0.08671   0.00000  Uiso   1.00
H869   H     0.83989   0.93431   0.13583   0.00000  Uiso   1.00
C870   C     0.83490   0.74087   0.38946   0.00000  Uiso   1.00
C871   C     0.87884   0.72646   0.37766   0.00000  Uiso   1.00
H872   H     0.87851   0.69027   0.36439   0.00000  Uiso   1.00
H873   H     0.89223   0.75060   0.35296   0.00000  Uiso   1.00
H874   H     0.89887   0.72690   0.40724   0.00000  Uiso   1.00
H875   H     0.82342   0.71474   0.41379   0.00000  Uiso   1.00
H876   H     0.81294   0.73645   0.36196   0.00000  Uiso   1.00
C877   C     0.83507   0.92591   0.38759   0.00000  Uiso   1.00
C878   C     0.79310   0.94434   0.37222   0.00000  Uiso   1.00
H879   H     0.79716   0.97956   0.35699   0.00000  Uiso   1.00
H880   H     0.77864   0.92085   0.34783   0.00000  Uiso   1.00
H881   H     0.77191   0.94756   0.40048   0.00000  Uiso   1.00
H882   H     0.84707   0.95119   0.41222   0.00000  Uiso   1.00
H883   H     0.85874   0.92802   0.36163   0.00000  Uiso   1.00
C884   C     0.79126   0.75432   0.11428   0.00000  Uiso   1.00
C885   C     0.82038   0.71230   0.11715   0.00000  Uiso   1.00
H886   H     0.83063   0.70201   0.08401   0.00000  Uiso   1.00
H887   H     0.84800   0.72077   0.13735   0.00000  Uiso   1.00
H888   H     0.80393   0.68200   0.13224   0.00000  Uiso   1.00
H889   H     0.77826   0.76196   0.14671   0.00000  Uiso   1.00
H890   H     0.76383   0.74404   0.09439   0.00000  Uiso   1.00
C891   C     0.71353   0.83296   0.33388   0.00000  Uiso   1.00
C892   C     0.72173   0.78251   0.34873   0.00000  Uiso   1.00
H893   H     0.69221   0.76315   0.35366   0.00000  Uiso   1.00
H894   H     0.74040   0.76370   0.32414   0.00000  Uiso   1.00
H895   H     0.73914   0.78279   0.38008   0.00000  Uiso   1.00
H896   H     0.74354   0.85143   0.33033   0.00000  Uiso   1.00
H897   H     0.69804   0.85215   0.36044   0.00000  Uiso   1.00
C898   C     0.95443   0.81142   0.16975   0.00000  Uiso   1.00
C899   C     0.95619   0.75820   0.16395   0.00000  Uiso   1.00
H900   H     0.98864   0.74604   0.16138   0.00000  Uiso   1.00
H901   H     0.94134   0.74016   0.19213   0.00000  Uiso   1.00
H902   H     0.93929   0.74823   0.13371   0.00000  Uiso   1.00
H903   H     0.92140   0.82110   0.17085   0.00000  Uiso   1.00
H904   H     0.96630   0.82929   0.14011   0.00000  Uiso   1.00
C905   C     0.95453   0.83796   0.33408   0.00000  Uiso   1.00
C906   C     0.94937   0.88858   0.34912   0.00000  Uiso   1.00
H907   H     0.97973   0.90633   0.35330   0.00000  Uiso   1.00
H908   H     0.93102   0.90850   0.32478   0.00000  Uiso   1.00
H909   H     0.93275   0.88899   0.38077   0.00000  Uiso   1.00
H910   H     0.92338   0.82199   0.33097   0.00000  Uiso   1.00
H911   H     0.96949   0.81682   0.36018   0.00000  Uiso   1.00
C912   C     0.71138   0.83435   0.16716   0.00000  Uiso   1.00
C913   C     0.70901   0.88421   0.14864   0.00000  Uiso   1.00
H914   H     0.67645   0.89489   0.14300   0.00000  Uiso   1.00
H915   H     0.72371   0.90930   0.17167   0.00000  Uiso   1.00
H916   H     0.72579   0.88604   0.11711   0.00000  Uiso   1.00
H917   H     0.74446   0.82587   0.17091   0.00000  Uiso   1.00
H918   H     0.69981   0.80875   0.14285   0.00000  Uiso   1.00
C919   C     0.08751   0.16658   0.75046   0.00000  Uiso   1.00
C920   C     0.24584   0.16661   0.75058   0.00000  Uiso   1.00
C921   C     0.16590   0.16698   0.66494   0.00000  Uiso   1.00
C922   C     0.16684   0.16658   0.83533   0.00000  Uiso   1.00
C923   C     0.13505   0.02478   0.73092   0.00000  Uiso   1.00
C924   C     0.19834   0.30862   0.76884   0.00000  Uiso   1.00
C925   C     0.19848   0.02487   0.76860   0.00000  Uiso   1.00
C926   C     0.13515   0.30846   0.73074   0.00000  Uiso   1.00
C927   C     0.02211   0.16750   0.79118   0.00000  Uiso   1.00
C928   C     0.31139   0.15964   0.71086   0.00000  Uiso   1.00
C929   C     0.31183   0.16884   0.79123   0.00000  Uiso   1.00
C930   C     0.02144   0.16378   0.71039   0.00000  Uiso   1.00
C931   C     0.18252   0.20462   0.54726   0.00000  Uiso   1.00
C932   C     0.16822   0.12499   0.95415   0.00000  Uiso   1.00
C933   C     0.16202   0.20905   0.95303   0.00000  Uiso   1.00
C934   C     0.14567   0.13090   0.54779   0.00000  Uiso   1.00
C935   C     0.18097   0.20708   0.59270   0.00000  Uiso   1.00
C936   C     0.16738   0.12342   0.90862   0.00000  Uiso   1.00
C937   C     0.16518   0.21017   0.90763   0.00000  Uiso   1.00
C938   C     0.14594   0.12979   0.59332   0.00000  Uiso   1.00
C939   C     0.16432   0.16796   0.61672   0.00000  Uiso   1.00
C940   C     0.16659   0.16665   0.88404   0.00000  Uiso   1.00
C941   C     0.16448   0.16742   0.52461   0.00000  Uiso   1.00
C942   C     0.16471   0.16713   0.97648   0.00000  Uiso   1.00
C943   C     0.29049   0.16585   0.75084   0.00000  Uiso   1.00
C944   C     0.04287   0.16633   0.75065   0.00000  Uiso   1.00
Cu945  Cu    0.16667   0.21355   0.75000   0.00000  Uiso   1.00
Cu946  Cu    0.16667   0.11978   0.75000   0.00000  Uiso   1.00
H947   H     0.10978   0.04341   0.71551   0.00000  Uiso   1.00
H948   H     0.22371   0.29014   0.78392   0.00000  Uiso   1.00
H949   H     0.22415   0.04351   0.78322   0.00000  Uiso   1.00
H950   H     0.11004   0.28977   0.71505   0.00000  Uiso   1.00
H951   H     0.19794   0.23248   0.52928   0.00000  Uiso   1.00
H952   H     0.17189   0.09258   0.97250   0.00000  Uiso   1.00
H953   H     0.15792   0.24175   0.97035   0.00000  Uiso   1.00
H954   H     0.13018   0.10285   0.53029   0.00000  Uiso   1.00
N955   N     0.16667   0.28402   0.75000   0.00000  Uiso   1.00
N956   N     0.16667   0.04931   0.75000   0.00000  Uiso   1.00
O957   O     0.10655   0.20625   0.75000   0.00000  Uiso   1.00
O958   O     0.22679   0.12709   0.75001   0.00000  Uiso   1.00
O959   O     0.22679   0.20625   0.75001   0.00000  Uiso   1.00
O960   O     0.10655   0.12709   0.75000   0.00000  Uiso   1.00
O961   O     0.16666   0.20626   0.68573   0.00000  Uiso   1.00
O962   O     0.16667   0.12707   0.81427   0.00000  Uiso   1.00
O963   O     0.16667   0.20626   0.81427   0.00000  Uiso   1.00
O964   O     0.16666   0.12707   0.68573   0.00000  Uiso   1.00
C965   C     0.19589   0.25332   0.61246   0.00000  Uiso   1.00
C966   C     0.23902   0.25007   0.63266   0.00000  Uiso   1.00
H967   H     0.23819   0.23113   0.66423   0.00000  Uiso   1.00
H968   H     0.26054   0.23232   0.61001   0.00000  Uiso   1.00
H969   H     0.25103   0.28601   0.63911   0.00000  Uiso   1.00
H970   H     0.19756   0.28103   0.58671   0.00000  Uiso   1.00
H971   H     0.17322   0.26764   0.63583   0.00000  Uiso   1.00
C972   C     0.16824   0.07421   0.88946   0.00000  Uiso   1.00
C973   C     0.21217   0.05980   0.87766   0.00000  Uiso   1.00
H974   H     0.21185   0.02360   0.86439   0.00000  Uiso   1.00
H975   H     0.22556   0.08394   0.85296   0.00000  Uiso   1.00
H976   H     0.23220   0.06024   0.90724   0.00000  Uiso   1.00
H977   H     0.15675   0.04808   0.91379   0.00000  Uiso   1.00
H978   H     0.14627   0.06978   0.86196   0.00000  Uiso   1.00
C979   C     0.16841   0.25925   0.88759   0.00000  Uiso   1.00
C980   C     0.12643   0.27768   0.87222   0.00000  Uiso   1.00
H981   H     0.13050   0.31289   0.85699   0.00000  Uiso   1.00
H982   H     0.11197   0.25418   0.84783   0.00000  Uiso   1.00
H983   H     0.10524   0.28089   0.90048   0.00000  Uiso   1.00
H984   H     0.18040   0.28453   0.91222   0.00000  Uiso   1.00
H985   H     0.19207   0.26135   0.86163   0.00000  Uiso   1.00
C986   C     0.12459   0.08765   0.61428   0.00000  Uiso   1.00
C987   C     0.15371   0.04564   0.61715   0.00000  Uiso   1.00
H988   H     0.16396   0.03534   0.58401   0.00000  Uiso   1.00
H989   H     0.18133   0.05411   0.63735   0.00000  Uiso   1.00
H990   H     0.13727   0.01533   0.63224   0.00000  Uiso   1.00
H991   H     0.11159   0.09529   0.64671   0.00000  Uiso   1.00
H992   H     0.09716   0.07737   0.59439   0.00000  Uiso   1.00
C993   C     0.04687   0.16629   0.83388   0.00000  Uiso   1.00
C994   C     0.05506   0.11584   0.84873   0.00000  Uiso   1.00
H995   H     0.02555   0.09649   0.85366   0.00000  Uiso   1.00
H996   H     0.07374   0.09703   0.82414   0.00000  Uiso   1.00
H997   H     0.07248   0.11613   0.88008   0.00000  Uiso   1.00
H998   H     0.07687   0.18477   0.83033   0.00000  Uiso   1.00
H999   H     0.03138   0.18548   0.86044   0.00000  Uiso   1.00
C1000  C     0.28776   0.14475   0.66975   0.00000  Uiso   1.00
C1001  C     0.28953   0.09154   0.66395   0.00000  Uiso   1.00
H1002  H     0.32197   0.07937   0.66138   0.00000  Uiso   1.00
H1003  H     0.27467   0.07350   0.69213   0.00000  Uiso   1.00
H1004  H     0.27262   0.08156   0.63371   0.00000  Uiso   1.00
H1005  H     0.25474   0.15443   0.67085   0.00000  Uiso   1.00
H1006  H     0.29963   0.16263   0.64011   0.00000  Uiso   1.00
C1007  C     0.28786   0.17129   0.83408   0.00000  Uiso   1.00
C1008  C     0.28270   0.22191   0.84912   0.00000  Uiso   1.00
H1009  H     0.31306   0.23966   0.85330   0.00000  Uiso   1.00
H1010  H     0.26435   0.24184   0.82478   0.00000  Uiso   1.00
H1011  H     0.26608   0.22232   0.88077   0.00000  Uiso   1.00
H1012  H     0.25671   0.15532   0.83097   0.00000  Uiso   1.00
H1013  H     0.30282   0.15016   0.86018   0.00000  Uiso   1.00
C1014  C     0.04471   0.16769   0.66716   0.00000  Uiso   1.00
C1015  C     0.04234   0.21755   0.64864   0.00000  Uiso   1.00
H1016  H     0.00978   0.22823   0.64300   0.00000  Uiso   1.00
H1017  H     0.05704   0.24264   0.67167   0.00000  Uiso   1.00
H1018  H     0.05913   0.21937   0.61711   0.00000  Uiso   1.00
H1019  H     0.07780   0.15920   0.67091   0.00000  Uiso   1.00
H1020  H     0.03314   0.14208   0.64285   0.00000  Uiso   1.00
C1021  C     0.42085   0.16658   0.75046   0.00000  Uiso   1.00
C1022  C     0.57917   0.16661   0.75058   0.00000  Uiso   1.00
C1023  C     0.49923   0.16698   0.66494   0.00000  Uiso   1.00
C1024  C     0.50017   0.16658   0.83533   0.00000  Uiso   1.00
C1025  C     0.46838   0.02478   0.73092   0.00000  Uiso   1.00
C1026  C     0.53167   0.30862   0.76884   0.00000  Uiso   1.00
C1027  C     0.53181   0.02487   0.76860   0.00000  Uiso   1.00
C1028  C     0.46848   0.30846   0.73074   0.00000  Uiso   1.00
C1029  C     0.35544   0.16750   0.79118   0.00000  Uiso   1.00
C1030  C     0.64473   0.15964   0.71086   0.00000  Uiso   1.00
C1031  C     0.64517   0.16884   0.79123   0.00000  Uiso   1.00
C1032  C     0.35477   0.16378   0.71039   0.00000  Uiso   1.00
C1033  C     0.51586   0.20462   0.54726   0.00000  Uiso   1.00
C1034  C     0.50155   0.12499   0.95415   0.00000  Uiso   1.00
C1035  C     0.49535   0.20905   0.95303   0.00000  Uiso   1.00
C1036  C     0.47900   0.13090   0.54779   0.00000  Uiso   1.00
C1037  C     0.51430   0.20708   0.59270   0.00000  Uiso   1.00
C1038  C     0.50071   0.12342   0.90862   0.00000  Uiso   1.00
C1039  C     0.49851   0.21017   0.90763   0.00000  Uiso   1.00
C1040  C     0.47928   0.12979   0.59332   0.00000  Uiso   1.00
C1041  C     0.49765   0.16796   0.61672   0.00000  Uiso   1.00
C1042  C     0.49992   0.16665   0.88404   0.00000  Uiso   1.00
C1043  C     0.49782   0.16742   0.52461   0.00000  Uiso   1.00
C1044  C     0.49805   0.16713   0.97648   0.00000  Uiso   1.00
C1045  C     0.62383   0.16585   0.75084   0.00000  Uiso   1.00
C1046  C     0.37620   0.16633   0.75065   0.00000  Uiso   1.00
Cu1047 Cu    0.50000   0.21355   0.75000   0.00000  Uiso   1.00
Cu1048 Cu    0.50000   0.11978   0.75000   0.00000  Uiso   1.00
H1049  H     0.44311   0.04341   0.71551   0.00000  Uiso   1.00
H1050  H     0.55704   0.29014   0.78392   0.00000  Uiso   1.00
H1051  H     0.55749   0.04351   0.78322   0.00000  Uiso   1.00
H1052  H     0.44337   0.28977   0.71505   0.00000  Uiso   1.00
H1053  H     0.53127   0.23248   0.52928   0.00000  Uiso   1.00
H1054  H     0.50523   0.09258   0.97250   0.00000  Uiso   1.00
H1055  H     0.49125   0.24175   0.97035   0.00000  Uiso   1.00
H1056  H     0.46352   0.10285   0.53029   0.00000  Uiso   1.00
N1057  N     0.50000   0.28402   0.75000   0.00000  Uiso   1.00
N1058  N     0.50000   0.04931   0.75000   0.00000  Uiso   1.00
O1059  O     0.43988   0.20625   0.75000   0.00000  Uiso   1.00
O1060  O     0.56012   0.12709   0.75001   0.00000  Uiso   1.00
O1061  O     0.56012   0.20625   0.75001   0.00000  Uiso   1.00
O1062  O     0.43988   0.12709   0.75000   0.00000  Uiso   1.00
O1063  O     0.50000   0.20626   0.68573   0.00000  Uiso   1.00
O1064  O     0.50000   0.12707   0.81427   0.00000  Uiso   1.00
O1065  O     0.50000   0.20626   0.81427   0.00000  Uiso   1.00
O1066  O     0.50000   0.12707   0.68573   0.00000  Uiso   1.00
C1067  C     0.52922   0.25332   0.61246   0.00000  Uiso   1.00
C1068  C     0.57235   0.25007   0.63266   0.00000  Uiso   1.00
H1069  H     0.57153   0.23113   0.66423   0.00000  Uiso   1.00
H1070  H     0.59387   0.23232   0.61001   0.00000  Uiso   1.00
H1071  H     0.58436   0.28601   0.63911   0.00000  Uiso   1.00
H1072  H     0.53089   0.28103   0.58671   0.00000  Uiso   1.00
H1073  H     0.50656   0.26764   0.63583   0.00000  Uiso   1.00
C1074  C     0.50157   0.07421   0.88946   0.00000  Uiso   1.00
C1075  C     0.54551   0.05980   0.87766   0.00000  Uiso   1.00
H1076  H     0.54518   0.02360   0.86439   0.00000  Uiso   1.00
H1077  H     0.55890   0.08394   0.85296   0.00000  Uiso   1.00
H1078  H     0.56553   0.06024   0.90724   0.00000  Uiso   1.00
H1079  H     0.49008   0.04808   0.91379   0.00000  Uiso   1.00
H1080  H     0.47960   0.06978   0.86196   0.00000  Uiso   1.00
C1081  C     0.50174   0.25925   0.88759   0.00000  Uiso   1.00
C1082  C     0.45977   0.27768   0.87222   0.00000  Uiso   1.00
H1083  H     0.46383   0.31289   0.85699   0.00000  Uiso   1.00
H1084  H     0.44530   0.25418   0.84783   0.00000  Uiso   1.00
H1085  H     0.43857   0.28089   0.90048   0.00000  Uiso   1.00
H1086  H     0.51373   0.28453   0.91222   0.00000  Uiso   1.00
H1087  H     0.52540   0.26135   0.86163   0.00000  Uiso   1.00
C1088  C     0.45792   0.08765   0.61428   0.00000  Uiso   1.00
C1089  C     0.48704   0.04564   0.61715   0.00000  Uiso   1.00
H1090  H     0.49730   0.03534   0.58401   0.00000  Uiso   1.00
H1091  H     0.51467   0.05411   0.63735   0.00000  Uiso   1.00
H1092  H     0.47060   0.01533   0.63224   0.00000  Uiso   1.00
H1093  H     0.44492   0.09529   0.64671   0.00000  Uiso   1.00
H1094  H     0.43049   0.07737   0.59439   0.00000  Uiso   1.00
C1095  C     0.38020   0.16629   0.83388   0.00000  Uiso   1.00
C1096  C     0.38839   0.11584   0.84873   0.00000  Uiso   1.00
H1097  H     0.35888   0.09649   0.85366   0.00000  Uiso   1.00
H1098  H     0.40707   0.09703   0.82414   0.00000  Uiso   1.00
H1099  H     0.40581   0.11613   0.88008   0.00000  Uiso   1.00
H1100  H     0.41020   0.18477   0.83033   0.00000  Uiso   1.00
H1101  H     0.36471   0.18548   0.86044   0.00000  Uiso   1.00
C1102  C     0.62109   0.14475   0.66975   0.00000  Uiso   1.00
C1103  C     0.62286   0.09154   0.66395   0.00000  Uiso   1.00
H1104  H     0.65531   0.07937   0.66138   0.00000  Uiso   1.00
H1105  H     0.60801   0.07350   0.69213   0.00000  Uiso   1.00
H1106  H     0.60596   0.08156   0.63371   0.00000  Uiso   1.00
H1107  H     0.58807   0.15443   0.67085   0.00000  Uiso   1.00
H1108  H     0.63297   0.16263   0.64011   0.00000  Uiso   1.00
C1109  C     0.62120   0.17129   0.83408   0.00000  Uiso   1.00
C1110  C     0.61603   0.22191   0.84912   0.00000  Uiso   1.00
H1111  H     0.64640   0.23966   0.85330   0.00000  Uiso   1.00
H1112  H     0.59768   0.24184   0.82478   0.00000  Uiso   1.00
H1113  H     0.59942   0.22232   0.88077   0.00000  Uiso   1.00
H1114  H     0.59005   0.15532   0.83097   0.00000  Uiso   1.00
H1115  H     0.63615   0.15016   0.86018   0.00000  Uiso   1.00
C1116  C     0.37804   0.16769   0.66716   0.00000  Uiso   1.00
C1117  C     0.37567   0.21755   0.64864   0.00000  Uiso   1.00
H1118  H     0.34311   0.22823   0.64300   0.00000  Uiso   1.00
H1119  H     0.39038   0.24264   0.67167   0.00000  Uiso   1.00
H1120  H     0.39246   0.21937   0.61711   0.00000  Uiso   1.00
H1121  H     0.41113   0.15920   0.67091   0.00000  Uiso   1.00
H1122  H     0.36647   0.14208   0.64285   0.00000  Uiso   1.00
C1123  C     0.75418   0.16658   0.75046   0.00000  Uiso   1.00
C1124  C     0.91250   0.16661   0.75058   0.00000  Uiso   1.00
C1125  C     0.83257   0.16698   0.66494   0.00000  Uiso   1.00
C1126  C     0.83350   0.16658   0.83533   0.00000  Uiso   1.00
C1127  C     0.80171   0.02478   0.73092   0.00000  Uiso   1.00
C1128  C     0.86501   0.30862   0.76884   0.00000  Uiso   1.00
C1129  C     0.86514   0.02487   0.76860   0.00000  Uiso   1.00
C1130  C     0.80181   0.30846   0.73074   0.00000  Uiso   1.00
C1131  C     0.68878   0.16750   0.79118   0.00000  Uiso   1.00
C1132  C     0.97806   0.15964   0.71086   0.00000  Uiso   1.00
C1133  C     0.97850   0.16884   0.79123   0.00000  Uiso   1.00
C1134  C     0.68811   0.16378   0.71039   0.00000  Uiso   1.00
C1135  C     0.84919   0.20462   0.54726   0.00000  Uiso   1.00
C1136  C     0.83489   0.12499   0.95415   0.00000  Uiso   1.00
C1137  C     0.82869   0.20905   0.95303   0.00000  Uiso   1.00
C1138  C     0.81233   0.13090   0.54779   0.00000  Uiso   1.00
C1139  C     0.84763   0.20708   0.59270   0.00000  Uiso   1.00
C1140  C     0.83405   0.12342   0.90862   0.00000  Uiso   1.00
C1141  C     0.83185   0.21017   0.90763   0.00000  Uiso   1.00
C1142  C     0.81261   0.12979   0.59332   0.00000  Uiso   1.00
C1143  C     0.83099   0.16796   0.61672   0.00000  Uiso   1.00
C1144  C     0.83325   0.16665   0.88404   0.00000  Uiso   1.00
C1145  C     0.83115   0.16742   0.52461   0.00000  Uiso   1.00
C1146  C     0.83138   0.16713   0.97648   0.00000  Uiso   1.00
C1147  C     0.95716   0.16585   0.75084   0.00000  Uiso   1.00
C1148  C     0.70953   0.16633   0.75065   0.00000  Uiso   1.00
Cu1149 Cu    0.83333   0.21355   0.75000   0.00000  Uiso   1.00
Cu1150 Cu    0.83333   0.11978   0.75000   0.00000  Uiso   1.00
H1151  H     0.77645   0.04341   0.71551   0.00000  Uiso   1.00
H1152  H     0.89038   0.29014   0.78392   0.00000  Uiso   1.00
H1153  H     0.89082   0.04351   0.78322   0.00000  Uiso   1.00
H1154  H     0.77671   0.28977   0.71505   0.00000  Uiso   1.00
H1155  H     0.86460   0.23248   0.52928   0.00000  Uiso   1.00
H1156  H     0.83856   0.09258   0.97250   0.00000  Uiso   1.00
H1157  H     0.82458   0.24175   0.97035   0.00000  Uiso   1.00
H1158  H     0.79685   0.10285   0.53029   0.00000  Uiso   1.00
N1159  N     0.83333   0.28402   0.75000   0.00000  Uiso   1.00
N1160  N     0.83333   0.04931   0.75000   0.00000  Uiso   1.00
O1161  O     0.77321   0.20625   0.75000   0.00000  Uiso   1.00
O1162  O     0.89345   0.12709   0.75001   0.00000  Uiso   1.00
O1163  O     0.89345   0.20625   0.75001   0.00000  Uiso   1.00
O1164  O     0.77321   0.12709   0.75000   0.00000  Uiso   1.00
O1165  O     0.83333   0.20626   0.68573   0.00000  Uiso   1.00
O1166  O     0.83334   0.12707   0.81427   0.00000  Uiso   1.00
O1167  O     0.83334   0.20626   0.81427   0.00000  Uiso   1.00
O1168  O     0.83333   0.12707   0.68573   0.00000  Uiso   1.00
C1169  C     0.86256   0.25332   0.61246   0.00000  Uiso   1.00
C1170  C     0.90569   0.25007   0.63266   0.00000  Uiso   1.00
H1171  H     0.90486   0.23113   0.66423   0.00000  Uiso   1.00
H1172  H     0.92720   0.23232   0.61001   0.00000  Uiso   1.00
H1173  H     0.91770   0.28601   0.63911   0.00000  Uiso   1.00
H1174  H     0.86422   0.28103   0.58671   0.00000  Uiso   1.00
H1175  H     0.83989   0.26764   0.63583   0.00000  Uiso   1.00
C1176  C     0.83490   0.07421   0.88946   0.00000  Uiso   1.00
C1177  C     0.87884   0.05980   0.87766   0.00000  Uiso   1.00
H1178  H     0.87851   0.02360   0.86439   0.00000  Uiso   1.00
H1179  H     0.89223   0.08394   0.85296   0.00000  Uiso   1.00
H1180  H     0.89887   0.06024   0.90724   0.00000  Uiso   1.00
H1181  H     0.82342   0.04808   0.91379   0.00000  Uiso   1.00
H1182  H     0.81294   0.06978   0.86196   0.00000  Uiso   1.00
C1183  C     0.83507   0.25925   0.88759   0.00000  Uiso   1.00
C1184  C     0.79310   0.27768   0.87222   0.00000  Uiso   1.00
H1185  H     0.79716   0.31289   0.85699   0.00000  Uiso   1.00
H1186  H     0.77864   0.25418   0.84783   0.00000  Uiso   1.00
H1187  H     0.77191   0.28089   0.90048   0.00000  Uiso   1.00
H1188  H     0.84707   0.28453   0.91222   0.00000  Uiso   1.00
H1189  H     0.85874   0.26135   0.86163   0.00000  Uiso   1.00
C1190  C     0.79126   0.08765   0.61428   0.00000  Uiso   1.00
C1191  C     0.82038   0.04564   0.61715   0.00000  Uiso   1.00
H1192  H     0.83063   0.03534   0.58401   0.00000  Uiso   1.00
H1193  H     0.84800   0.05411   0.63735   0.00000  Uiso   1.00
H1194  H     0.80393   0.01533   0.63224   0.00000  Uiso   1.00
H1195  H     0.77826   0.09529   0.64671   0.00000  Uiso   1.00
H1196  H     0.76383   0.07737   0.59439   0.00000  Uiso   1.00
C1197  C     0.71353   0.16629   0.83388   0.00000  Uiso   1.00
C1198  C     0.72173   0.11584   0.84873   0.00000  Uiso   1.00
H1199  H     0.69221   0.09649   0.85366   0.00000  Uiso   1.00
H1200  H     0.74040   0.09703   0.82414   0.00000  Uiso   1.00
H1201  H     0.73914   0.11613   0.88008   0.00000  Uiso   1.00
H1202  H     0.74354   0.18477   0.83033   0.00000  Uiso   1.00
H1203  H     0.69804   0.18548   0.86044   0.00000  Uiso   1.00
C1204  C     0.95443   0.14475   0.66975   0.00000  Uiso   1.00
C1205  C     0.95619   0.09154   0.66395   0.00000  Uiso   1.00
H1206  H     0.98864   0.07937   0.66138   0.00000  Uiso   1.00
H1207  H     0.94134   0.07350   0.69213   0.00000  Uiso   1.00
H1208  H     0.93929   0.08156   0.63371   0.00000  Uiso   1.00
H1209  H     0.92140   0.15443   0.67085   0.00000  Uiso   1.00
H1210  H     0.96630   0.16263   0.64011   0.00000  Uiso   1.00
C1211  C     0.95453   0.17129   0.83408   0.00000  Uiso   1.00
C1212  C     0.94937   0.22191   0.84912   0.00000  Uiso   1.00
H1213  H     0.97973   0.23966   0.85330   0.00000  Uiso   1.00
H1214  H     0.93102   0.24184   0.82478   0.00000  Uiso   1.00
H1215  H     0.93275   0.22232   0.88077   0.00000  Uiso   1.00
H1216  H     0.92338   0.15532   0.83097   0.00000  Uiso   1.00
H1217  H     0.96949   0.15016   0.86018   0.00000  Uiso   1.00
C1218  C     0.71138   0.16769   0.66716   0.00000  Uiso   1.00
C1219  C     0.70901   0.21755   0.64864   0.00000  Uiso   1.00
H1220  H     0.67645   0.22823   0.64300   0.00000  Uiso   1.00
H1221  H     0.72371   0.24264   0.67167   0.00000  Uiso   1.00
H1222  H     0.72579   0.21937   0.61711   0.00000  Uiso   1.00
H1223  H     0.74446   0.15920   0.67091   0.00000  Uiso   1.00
H1224  H     0.69981   0.14208   0.64285   0.00000  Uiso   1.00
C1225  C     0.08751   0.49991   0.75046   0.00000  Uiso   1.00
C1226  C     0.24584   0.49994   0.75058   0.00000  Uiso   1.00
C1227  C     0.16590   0.50031   0.66494   0.00000  Uiso   1.00
C1228  C     0.16684   0.49991   0.83533   0.00000  Uiso   1.00
C1229  C     0.13505   0.35811   0.73092   0.00000  Uiso   1.00
C1230  C     0.19834   0.64195   0.76884   0.00000  Uiso   1.00
C1231  C     0.19848   0.35820   0.76860   0.00000  Uiso   1.00
C1232  C     0.13515   0.64180   0.73074   0.00000  Uiso   1.00
C1233  C     0.02211   0.50083   0.79118   0.00000  Uiso   1.00
C1234  C     0.31139   0.49297   0.71086   0.00000  Uiso   1.00
C1235  C     0.31183   0.50218   0.79123   0.00000  Uiso   1.00
C1236  C     0.02144   0.49712   0.71039   0.00000  Uiso   1.00
C1237  C     0.18252   0.53795   0.54726   0.00000  Uiso   1.00
C1238  C     0.16822   0.45832   0.95415   0.00000  Uiso   1.00
C1239  C     0.16202   0.54238   0.95303   0.00000  Uiso   1.00
C1240  C     0.14567   0.46424   0.54779   0.00000  Uiso   1.00
C1241  C     0.18097   0.54041   0.59270   0.00000  Uiso   1.00
C1242  C     0.16738   0.45675   0.90862   0.00000  Uiso   1.00
C1243  C     0.16518   0.54350   0.90763   0.00000  Uiso   1.00
C1244  C     0.14594   0.46313   0.59332   0.00000  Uiso   1.00
C1245  C     0.16432   0.50129   0.61672   0.00000  Uiso   1.00
C1246  C     0.16659   0.49998   0.88404   0.00000  Uiso   1.00
C1247  C     0.16448   0.50075   0.52461   0.00000  Uiso   1.00
C1248  C     0.16471   0.50047   0.97648   0.00000  Uiso   1.00
C1249  C     0.29049   0.49918   0.75084   0.00000  Uiso   1.00
C1250  C     0.04287   0.49967   0.75065   0.00000  Uiso   1.00
Cu1251 Cu    0.16667   0.54689   0.75000   0.00000  Uiso   1.00
Cu1252 Cu    0.16667   0.45311   0.75000   0.00000  Uiso   1.00
H1253  H     0.10978   0.37674   0.71551   0.00000  Uiso   1.00
H1254  H     0.22371   0.62348   0.78392   0.00000  Uiso   1.00
H1255  H     0.22415   0.37685   0.78322   0.00000  Uiso   1.00
H1256  H     0.11004   0.62311   0.71505   0.00000  Uiso   1.00
H1257  H     0.19794   0.56581   0.52928   0.00000  Uiso   1.00
H1258  H     0.17189   0.42592   0.97250   0.00000  Uiso   1.00
H1259  H     0.15792   0.57508   0.97035   0.00000  Uiso   1.00
H1260  H     0.13018   0.43619   0.53029   0.00000  Uiso   1.00
N1261  N     0.16667   0.61736   0.75000   0.00000  Uiso   1.00
N1262  N     0.16667   0.38264   0.75000   0.00000  Uiso   1.00
O1263  O     0.10655   0.53958   0.75000   0.00000  Uiso   1.00
O1264  O     0.22679   0.46042   0.75001   0.00000  Uiso   1.00
O1265  O     0.22679   0.53958   0.75001   0.00000  Uiso   1.00
O1266  O     0.10655   0.46042   0.75000   0.00000  Uiso   1.00
O1267  O     0.16666   0.53959   0.68573   0.00000  Uiso   1.00
O1268  O     0.16667   0.46041   0.81427   0.00000  Uiso   1.00
O1269  O     0.16667   0.53959   0.81427   0.00000  Uiso   1.00
O1270  O     0.16666   0.46041   0.68573   0.00000  Uiso   1.00
C1271  C     0.19589   0.58666   0.61246   0.00000  Uiso   1.00
C1272  C     0.23902   0.58341   0.63266   0.00000  Uiso   1.00
H1273  H     0.23819   0.56446   0.66423   0.00000  Uiso   1.00
H1274  H     0.26054   0.56566   0.61001   0.00000  Uiso   1.00
H1275  H     0.25103   0.61934   0.63911   0.00000  Uiso   1.00
H1276  H     0.19756   0.61436   0.58671   0.00000  Uiso   1.00
H1277  H     0.17322   0.60097   0.63583   0.00000  Uiso   1.00
C1278  C     0.16824   0.40754   0.88946   0.00000  Uiso   1.00
C1279  C     0.21217   0.39313   0.87766   0.00000  Uiso   1.00
H1280  H     0.21185   0.35694   0.86439   0.00000  Uiso   1.00
H1281  H     0.22556   0.41727   0.85296   0.00000  Uiso   1.00
H1282  H     0.23220   0.39357   0.90724   0.00000  Uiso   1.00
H1283  H     0.15675   0.38141   0.91379   0.00000  Uiso   1.00
H1284  H     0.14627   0.40312   0.86196   0.00000  Uiso   1.00
C1285  C     0.16841   0.59258   0.88759   0.00000  Uiso   1.00
C1286  C     0.12643   0.61101   0.87222   0.00000  Uiso   1.00
H1287  H     0.13050   0.64622   0.85699   0.00000  Uiso   1.00
H1288  H     0.11197   0.58752   0.84783   0.00000  Uiso   1.00
H1289  H     0.10524   0.61423   0.90048   0.00000  Uiso   1.00
H1290  H     0.18040   0.61786   0.91222   0.00000  Uiso   1.00
H1291  H     0.19207   0.59469   0.86163   0.00000  Uiso   1.00
C1292  C     0.12459   0.42098   0.61428   0.00000  Uiso   1.00
C1293  C     0.15371   0.37897   0.61715   0.00000  Uiso   1.00
H1294  H     0.16396   0.36868   0.58401   0.00000  Uiso   1.00
H1295  H     0.18133   0.38744   0.63735   0.00000  Uiso   1.00
H1296  H     0.13727   0.34867   0.63224   0.00000  Uiso   1.00
H1297  H     0.11159   0.42863   0.64671   0.00000  Uiso   1.00
H1298  H     0.09716   0.41071   0.59439   0.00000  Uiso   1.00
C1299  C     0.04687   0.49962   0.83388   0.00000  Uiso   1.00
C1300  C     0.05506   0.44918   0.84873   0.00000  Uiso   1.00
H1301  H     0.02555   0.42982   0.85366   0.00000  Uiso   1.00
H1302  H     0.07374   0.43037   0.82414   0.00000  Uiso   1.00
H1303  H     0.07248   0.44946   0.88008   0.00000  Uiso   1.00
H1304  H     0.07687   0.51810   0.83033   0.00000  Uiso   1.00
H1305  H     0.03138   0.51881   0.86044   0.00000  Uiso   1.00
C1306  C     0.28776   0.47808   0.66975   0.00000  Uiso   1.00
C1307  C     0.28953   0.42487   0.66395   0.00000  Uiso   1.00
H1308  H     0.32197   0.41270   0.66138   0.00000  Uiso   1.00
H1309  H     0.27467   0.40683   0.69213   0.00000  Uiso   1.00
H1310  H     0.27262   0.41490   0.63371   0.00000  Uiso   1.00
H1311  H     0.25474   0.48776   0.67085   0.00000  Uiso   1.00
H1312  H     0.29963   0.49596   0.64011   0.00000  Uiso   1.00
C1313  C     0.28786   0.50463   0.83408   0.00000  Uiso   1.00
C1314  C     0.28270   0.55525   0.84912   0.00000  Uiso   1.00
H1315  H     0.31306   0.57300   0.85330   0.00000  Uiso   1.00
H1316  H     0.26435   0.57517   0.82478   0.00000  Uiso   1.00
H1317  H     0.26608   0.55565   0.88077   0.00000  Uiso   1.00
H1318  H     0.25671   0.48866   0.83097   0.00000  Uiso   1.00
H1319  H     0.30282   0.48349   0.86018   0.00000  Uiso   1.00
C1320  C     0.04471   0.50102   0.66716   0.00000  Uiso   1.00
C1321  C     0.04234   0.55088   0.64864   0.00000  Uiso   1.00
H1322  H     0.00978   0.56156   0.64300   0.00000  Uiso   1.00
H1323  H     0.05704   0.57597   0.67167   0.00000  Uiso   1.00
H1324  H     0.05913   0.55270   0.61711   0.00000  Uiso   1.00
H1325  H     0.07780   0.49253   0.67091   0.00000  Uiso   1.00
H1326  H     0.03314   0.47541   0.64285   0.00000  Uiso   1.00
C1327  C     0.42085   0.49991   0.75046   0.00000  Uiso   1.00
C1328  C     0.57917   0.49994   0.75058   0.00000  Uiso   1.00
C1329  C     0.49923   0.50031   0.66494   0.00000  Uiso   1.00
C1330  C     0.50017   0.49991   0.83533   0.00000  Uiso   1.00
C1331  C     0.46838   0.35811   0.73092   0.00000  Uiso   1.00
C1332  C     0.53167   0.64195   0.76884   0.00000  Uiso   1.00
C1333  C     0.53181   0.35820   0.76860   0.00000  Uiso   1.00
C1334  C     0.46848   0.64180   0.73074   0.00000  Uiso   1.00
C1335  C     0.35544   0.50083   0.79118   0.00000  Uiso   1.00
C1336  C     0.64473   0.49297   0.71086   0.00000  Uiso   1.00
C1337  C     0.64517   0.50218   0.79123   0.00000  Uiso   1.00
C1338  C     0.35477   0.49712   0.71039   0.00000  Uiso   1.00
C1339  C     0.51586   0.53795   0.54726   0.00000  Uiso   1.00
C1340  C     0.50155   0.45832   0.95415   0.00000  Uiso   1.00
C1341  C     0.49535   0.54238   0.95303   0.00000  Uiso   1.00
C1342  C     0.47900   0.46424   0.54779   0.00000  Uiso   1.00
C1343  C     0.51430   0.54041   0.59270   0.00000  Uiso   1.00
C1344  C     0.50071   0.45675   0.90862   0.00000  Uiso   1.00
C1345  C     0.49851   0.54350   0.90763   0.00000  Uiso   1.00
C1346  C     0.47928   0.46313   0.59332   0.00000  Uiso   1.00
C1347  C     0.49765   0.50129   0.61672   0.00000  Uiso   1.00
C1348  C     0.49992   0.49998   0.88404   0.00000  Uiso   1.00
C1349  C     0.49782   0.50075   0.52461   0.00000  Uiso   1.00
C1350  C     0.49805   0.50047   0.97648   0.00000  Uiso   1.00
C1351  C     0.62383   0.49918   0.75084   0.00000  Uiso   1.00
C1352  C     0.37620   0.49967   0.75065   0.00000  Uiso   1.00
Cu1353 Cu    0.50000   0.54689   0.75000   0.00000  Uiso   1.00
Cu1354 Cu    0.50000   0.45311   0.75000   0.00000  Uiso   1.00
H1355  H     0.44311   0.37674   0.71551   0.00000  Uiso   1.00
H1356  H     0.55704   0.62348   0.78392   0.00000  Uiso   1.00
H1357  H     0.55749   0.37685   0.78322   0.00000  Uiso   1.00
H1358  H     0.44337   0.62311   0.71505   0.00000  Uiso   1.00
H1359  H     0.53127   0.56581   0.52928   0.00000  Uiso   1.00
H1360  H     0.50523   0.42592   0.97250   0.00000  Uiso   1.00
H1361  H     0.49125   0.57508   0.97035   0.00000  Uiso   1.00
H1362  H     0.46352   0.43619   0.53029   0.00000  Uiso   1.00
N1363  N     0.50000   0.61736   0.75000   0.00000  Uiso   1.00
N1364  N     0.50000   0.38264   0.75000   0.00000  Uiso   1.00
O1365  O     0.43988   0.53958   0.75000   0.00000  Uiso   1.00
O1366  O     0.56012   0.46042   0.75001   0.00000  Uiso   1.00
O1367  O     0.56012   0.53958   0.75001   0.00000  Uiso   1.00
O1368  O     0.43988   0.46042   0.75000   0.00000  Uiso   1.00
O1369  O     0.50000   0.53959   0.68573   0.00000  Uiso   1.00
O1370  O     0.50000   0.46041   0.81427   0.00000  Uiso   1.00
O1371  O     0.50000   0.53959   0.81427   0.00000  Uiso   1.00
O1372  O     0.50000   0.46041   0.68573   0.00000  Uiso   1.00
C1373  C     0.52922   0.58666   0.61246   0.00000  Uiso   1.00
C1374  C     0.57235   0.58341   0.63266   0.00000  Uiso   1.00
H1375  H     0.57153   0.56446   0.66423   0.00000  Uiso   1.00
H1376  H     0.59387   0.56566   0.61001   0.00000  Uiso   1.00
H1377  H     0.58436   0.61934   0.63911   0.00000  Uiso   1.00
H1378  H     0.53089   0.61436   0.58671   0.00000  Uiso   1.00
H1379  H     0.50656   0.60097   0.63583   0.00000  Uiso   1.00
C1380  C     0.50157   0.40754   0.88946   0.00000  Uiso   1.00
C1381  C     0.54551   0.39313   0.87766   0.00000  Uiso   1.00
H1382  H     0.54518   0.35694   0.86439   0.00000  Uiso   1.00
H1383  H     0.55890   0.41727   0.85296   0.00000  Uiso   1.00
H1384  H     0.56553   0.39357   0.90724   0.00000  Uiso   1.00
H1385  H     0.49008   0.38141   0.91379   0.00000  Uiso   1.00
H1386  H     0.47960   0.40312   0.86196   0.00000  Uiso   1.00
C1387  C     0.50174   0.59258   0.88759   0.00000  Uiso   1.00
C1388  C     0.45977   0.61101   0.87222   0.00000  Uiso   1.00
H1389  H     0.46383   0.64622   0.85699   0.00000  Uiso   1.00
H1390  H     0.44530   0.58752   0.84783   0.00000  Uiso   1.00
H1391  H     0.43857   0.61423   0.90048   0.00000  Uiso   1.00
H1392  H     0.51373   0.61786   0.91222   0.00000  Uiso   1.00
H1393  H     0.52540   0.59469   0.86163   0.00000  Uiso   1.00
C1394  C     0.45792   0.42098   0.61428   0.00000  Uiso   1.00
C1395  C     0.48704   0.37897   0.61715   0.00000  Uiso   1.00
H1396  H     0.49730   0.36868   0.58401   0.00000  Uiso   1.00
H1397  H     0.51467   0.38744   0.63735   0.00000  Uiso   1.00
H1398  H     0.47060   0.34867   0.63224   0.00000  Uiso   1.00
H1399  H     0.44492   0.42863   0.64671   0.00000  Uiso   1.00
H1400  H     0.43049   0.41071   0.59439   0.00000  Uiso   1.00
C1401  C     0.38020   0.49962   0.83388   0.00000  Uiso   1.00
C1402  C     0.38839   0.44918   0.84873   0.00000  Uiso   1.00
H1403  H     0.35888   0.42982   0.85366   0.00000  Uiso   1.00
H1404  H     0.40707   0.43037   0.82414   0.00000  Uiso   1.00
H1405  H     0.40581   0.44946   0.88008   0.00000  Uiso   1.00
H1406  H     0.41020   0.51810   0.83033   0.00000  Uiso   1.00
H1407  H     0.36471   0.51881   0.86044   0.00000  Uiso   1.00
C1408  C     0.62109   0.47808   0.66975   0.00000  Uiso   1.00
C1409  C     0.62286   0.42487   0.66395   0.00000  Uiso   1.00
H1410  H     0.65531   0.41270   0.66138   0.00000  Uiso   1.00
H1411  H     0.60801   0.40683   0.69213   0.00000  Uiso   1.00
H1412  H     0.60596   0.41490   0.63371   0.00000  Uiso   1.00
H1413  H     0.58807   0.48776   0.67085   0.00000  Uiso   1.00
H1414  H     0.63297   0.49596   0.64011   0.00000  Uiso   1.00
C1415  C     0.62120   0.50463   0.83408   0.00000  Uiso   1.00
C1416  C     0.61603   0.55525   0.84912   0.00000  Uiso   1.00
H1417  H     0.64640   0.57300   0.85330   0.00000  Uiso   1.00
H1418  H     0.59768   0.57517   0.82478   0.00000  Uiso   1.00
H1419  H     0.59942   0.55565   0.88077   0.00000  Uiso   1.00
H1420  H     0.59005   0.48866   0.83097   0.00000  Uiso   1.00
H1421  H     0.63615   0.48349   0.86018   0.00000  Uiso   1.00
C1422  C     0.37804   0.50102   0.66716   0.00000  Uiso   1.00
C1423  C     0.37567   0.55088   0.64864   0.00000  Uiso   1.00
H1424  H     0.34311   0.56156   0.64300   0.00000  Uiso   1.00
H1425  H     0.39038   0.57597   0.67167   0.00000  Uiso   1.00
H1426  H     0.39246   0.55270   0.61711   0.00000  Uiso   1.00
H1427  H     0.41113   0.49253   0.67091   0.00000  Uiso   1.00
H1428  H     0.36647   0.47541   0.64285   0.00000  Uiso   1.00
C1429  C     0.75418   0.49991   0.75046   0.00000  Uiso   1.00
C1430  C     0.91250   0.49994   0.75058   0.00000  Uiso   1.00
C1431  C     0.83257   0.50031   0.66494   0.00000  Uiso   1.00
C1432  C     0.83350   0.49991   0.83533   0.00000  Uiso   1.00
C1433  C     0.80171   0.35811   0.73092   0.00000  Uiso   1.00
C1434  C     0.86501   0.64195   0.76884   0.00000  Uiso   1.00
C1435  C     0.86514   0.35820   0.76860   0.00000  Uiso   1.00
C1436  C     0.80181   0.64180   0.73074   0.00000  Uiso   1.00
C1437  C     0.68878   0.50083   0.79118   0.00000  Uiso   1.00
C1438  C     0.97806   0.49297   0.71086   0.00000  Uiso   1.00
C1439  C     0.97850   0.50218   0.79123   0.00000  Uiso   1.00
C1440  C     0.68811   0.49712   0.71039   0.00000  Uiso   1.00
C1441  C     0.84919   0.53795   0.54726   0.00000  Uiso   1.00
C1442  C     0.83489   0.45832   0.95415   0.00000  Uiso   1.00
C1443  C     0.82869   0.54238   0.95303   0.00000  Uiso   1.00
C1444  C     0.81233   0.46424   0.54779   0.00000  Uiso   1.00
C1445  C     0.84763   0.54041   0.59270   0.00000  Uiso   1.00
C1446  C     0.83405   0.45675   0.90862   0.00000  Uiso   1.00
C1447  C     0.83185   0.54350   0.90763   0.00000  Uiso   1.00
C1448  C     0.81261   0.46313   0.59332   0.00000  Uiso   1.00
C1449  C     0.83099   0.50129   0.61672   0.00000  Uiso   1.00
C1450  C     0.83325   0.49998   0.88404   0.00000  Uiso   1.00
C1451  C     0.83115   0.50075   0.52461   0.00000  Uiso   1.00
C1452  C     0.83138   0.50047   0.97648   0.00000  Uiso   1.00
C1453  C     0.95716   0.49918   0.75084   0.00000  Uiso   1.00
C1454  C     0.70953   0.49967   0.75065   0.00000  Uiso   1.00
Cu1455 Cu    0.83333   0.54689   0.75000   0.00000  Uiso   1.00
Cu1456 Cu    0.83333   0.45311   0.75000   0.00000  Uiso   1.00
H1457  H     0.77645   0.37674   0.71551   0.00000  Uiso   1.00
H1458  H     0.89038   0.62348   0.78392   0.00000  Uiso   1.00
H1459  H     0.89082   0.37685   0.78322   0.00000  Uiso   1.00
H1460  H     0.77671   0.62311   0.71505   0.00000  Uiso   1.00
H1461  H     0.86460   0.56581   0.52928   0.00000  Uiso   1.00
H1462  H     0.83856   0.42592   0.97250   0.00000  Uiso   1.00
H1463  H     0.82458   0.57508   0.97035   0.00000  Uiso   1.00
H1464  H     0.79685   0.43619   0.53029   0.00000  Uiso   1.00
N1465  N     0.83333   0.61736   0.75000   0.00000  Uiso   1.00
N1466  N     0.83333   0.38264   0.75000   0.00000  Uiso   1.00
O1467  O     0.77321   0.53958   0.75000   0.00000  Uiso   1.00
O1468  O     0.89345   0.46042   0.75001   0.00000  Uiso   1.00
O1469  O     0.89345   0.53958   0.75001   0.00000  Uiso   1.00
O1470  O     0.77321   0.46042   0.75000   0.00000  Uiso   1.00
O1471  O     0.83333   0.53959   0.68573   0.00000  Uiso   1.00
O1472  O     0.83334   0.46041   0.81427   0.00000  Uiso   1.00
O1473  O     0.83334   0.53959   0.81427   0.00000  Uiso   1.00
O1474  O     0.83333   0.46041   0.68573   0.00000  Uiso   1.00
C1475  C     0.86256   0.58666   0.61246   0.00000  Uiso   1.00
C1476  C     0.90569   0.58341   0.63266   0.00000  Uiso   1.00
H1477  H     0.90486   0.56446   0.66423   0.00000  Uiso   1.00
H1478  H     0.92720   0.56566   0.61001   0.00000  Uiso   1.00
H1479  H     0.91770   0.61934   0.63911   0.00000  Uiso   1.00
H1480  H     0.86422   0.61436   0.58671   0.00000  Uiso   1.00
H1481  H     0.83989   0.60097   0.63583   0.00000  Uiso   1.00
C1482  C     0.83490   0.40754   0.88946   0.00000  Uiso   1.00
C1483  C     0.87884   0.39313   0.87766   0.00000  Uiso   1.00
H1484  H     0.87851   0.35694   0.86439   0.00000  Uiso   1.00
H1485  H     0.89223   0.41727   0.85296   0.00000  Uiso   1.00
H1486  H     0.89887   0.39357   0.90724   0.00000  Uiso   1.00
H1487  H     0.82342   0.38141   0.91379   0.00000  Uiso   1.00
H1488  H     0.81294   0.40312   0.86196   0.00000  Uiso   1.00
C1489  C     0.83507   0.59258   0.88759   0.00000  Uiso   1.00
C1490  C     0.79310   0.61101   0.87222   0.00000  Uiso   1.00
H1491  H     0.79716   0.64622   0.85699   0.00000  Uiso   1.00
H1492  H     0.77864   0.58752   0.84783   0.00000  Uiso   1.00
H1493  H     0.77191   0.61423   0.90048   0.00000  Uiso   1.00
H1494  H     0.84707   0.61786   0.91222   0.00000  Uiso   1.00
H1495  H     0.85874   0.59469   0.86163   0.00000  Uiso   1.00
C1496  C     0.79126   0.42098   0.61428   0.00000  Uiso   1.00
C1497  C     0.82038   0.37897   0.61715   0.00000  Uiso   1.00
H1498  H     0.83063   0.36868   0.58401   0.00000  Uiso   1.00
H1499  H     0.84800   0.38744   0.63735   0.00000  Uiso   1.00
H1500  H     0.80393   0.34867   0.63224   0.00000  Uiso   1.00
H1501  H     0.77826   0.42863   0.64671   0.00000  Uiso   1.00
H1502  H     0.76383   0.41071   0.59439   0.00000  Uiso   1.00
C1503  C     0.71353   0.49962   0.83388   0.00000  Uiso   1.00
C1504  C     0.72173   0.44918   0.84873   0.00000  Uiso   1.00
H1505  H     0.69221   0.42982   0.85366   0.00000  Uiso   1.00
H1506  H     0.74040   0.43037   0.82414   0.00000  Uiso   1.00
H1507  H     0.73914   0.44946   0.88008   0.00000  Uiso   1.00
H1508  H     0.74354   0.51810   0.83033   0.00000  Uiso   1.00
H1509  H     0.69804   0.51881   0.86044   0.00000  Uiso   1.00
C1510  C     0.95443   0.47808   0.66975   0.00000  Uiso   1.00
C1511  C     0.95619   0.42487   0.66395   0.00000  Uiso   1.00
H1512  H     0.98864   0.41270   0.66138   0.00000  Uiso   1.00
H1513  H     0.94134   0.40683   0.69213   0.00000  Uiso   1.00
H1514  H     0.93929   0.41490   0.63371   0.00000  Uiso   1.00
H1515  H     0.92140   0.48776   0.67085   0.00000  Uiso   1.00
H1516  H     0.96630   0.49596   0.64011   0.00000  Uiso   1.00
C1517  C     0.95453   0.50463   0.83408   0.00000  Uiso   1.00
C1518  C     0.94937   0.55525   0.84912   0.00000  Uiso   1.00
H1519  H     0.97973   0.57300   0.85330   0.00000  Uiso   1.00
H1520  H     0.93102   0.57517   0.82478   0.00000  Uiso   1.00
H1521  H     0.93275   0.55565   0.88077   0.00000  Uiso   1.00
H1522  H     0.92338   0.48866   0.83097   0.00000  Uiso   1.00
H1523  H     0.96949   0.48349   0.86018   0.00000  Uiso   1.00
C1524  C     0.71138   0.50102   0.66716   0.00000  Uiso   1.00
C1525  C     0.70901   0.55088   0.64864   0.00000  Uiso   1.00
H1526  H     0.67645   0.56156   0.64300   0.00000  Uiso   1.00
H1527  H     0.72371   0.57597   0.67167   0.00000  Uiso   1.00
H1528  H     0.72579   0.55270   0.61711   0.00000  Uiso   1.00
H1529  H     0.74446   0.49253   0.67091   0.00000  Uiso   1.00
H1530  H     0.69981   0.47541   0.64285   0.00000  Uiso   1.00
C1531  C     0.08751   0.83325   0.75046   0.00000  Uiso   1.00
C1532  C     0.24584   0.83327   0.75058   0.00000  Uiso   1.00
C1533  C     0.16590   0.83364   0.66494   0.00000  Uiso   1.00
C1534  C     0.16684   0.83325   0.83533   0.00000  Uiso   1.00
C1535  C     0.13505   0.69144   0.73092   0.00000  Uiso   1.00
C1536  C     0.19834   0.97528   0.76884   0.00000  Uiso   1.00
C1537  C     0.19848   0.69154   0.76860   0.00000  Uiso   1.00
C1538  C     0.13515   0.97513   0.73074   0.00000  Uiso   1.00
C1539  C     0.02211   0.83417   0.79118   0.00000  Uiso   1.00
C1540  C     0.31139   0.82630   0.71086   0.00000  Uiso   1.00
C1541  C     0.31183   0.83551   0.79123   0.00000  Uiso   1.00
C1542  C     0.02144   0.83045   0.71039   0.00000  Uiso   1.00
C1543  C     0.18252   0.87129   0.54726   0.00000  Uiso   1.00
C1544  C     0.16822   0.79166   0.95415   0.00000  Uiso   1.00
C1545  C     0.16202   0.87572   0.95303   0.00000  Uiso   1.00
C1546  C     0.14567   0.79757   0.54779   0.00000  Uiso   1.00
C1547  C     0.18097   0.87375   0.59270   0.00000  Uiso   1.00
C1548  C     0.16738   0.79008   0.90862   0.00000  Uiso   1.00
C1549  C     0.16518   0.87684   0.90763   0.00000  Uiso   1.00
C1550  C     0.14594   0.79646   0.59332   0.00000  Uiso   1.00
C1551  C     0.16432   0.83462   0.61672   0.00000  Uiso   1.00
C1552  C     0.16659   0.83331   0.88404   0.00000  Uiso   1.00
C1553  C     0.16448   0.83408   0.52461   0.00000  Uiso   1.00
C1554  C     0.16471   0.83380   0.97648   0.00000  Uiso   1.00
C1555  C     0.29049   0.83251   0.75084   0.00000  Uiso   1.00
C1556  C     0.04287   0.83300   0.75065   0.00000  Uiso   1.00
Cu1557 Cu    0.16667   0.88022   0.75000   0.00000  Uiso   1.00
Cu1558 Cu    0.16667   0.78645   0.75000   0.00000  Uiso   1.00
H1559  H     0.10978   0.71007   0.71551   0.00000  Uiso   1.00
H1560  H     0.22371   0.95681   0.78392   0.00000  Uiso   1.00
H1561  H     0.22415   0.71018   0.78322   0.00000  Uiso   1.00
H1562  H     0.11004   0.95644   0.71505   0.00000  Uiso   1.00
H1563  H     0.19794   0.89915   0.52928   0.00000  Uiso   1.00
H1564  H     0.17189   0.75925   0.97250   0.00000  Uiso   1.00
H1565  H     0.15792   0.90842   0.97035   0.00000  Uiso   1.00
H1566  H     0.13018   0.76952   0.53029   0.00000  Uiso   1.00
N1567  N     0.16667   0.95069   0.75000   0.00000  Uiso   1.00
N1568  N     0.16667   0.71598   0.75000   0.00000  Uiso   1.00
O1569  O     0.10655   0.87291   0.75000   0.00000  Uiso   1.00
O1570  O     0.22679   0.79375   0.75001   0.00000  Uiso   1.00
O1571  O     0.22679   0.87291   0.75001   0.00000  Uiso   1.00
O1572  O     0.10655   0.79375   0.75000   0.00000  Uiso   1.00
O1573  O     0.16666   0.87293   0.68573   0.00000  Uiso   1.00
O1574  O     0.16667   0.79374   0.81427   0.00000  Uiso   1.00
O1575  O     0.16667   0.87293   0.81427   0.00000  Uiso   1.00
O1576  O     0.16666   0.79374   0.68573   0.00000  Uiso   1.00
C1577  C     0.19589   0.91999   0.61246   0.00000  Uiso   1.00
C1578  C     0.23902   0.91674   0.63266   0.00000  Uiso   1.00
H1579  H     0.23819   0.89780   0.66423   0.00000  Uiso   1.00
H1580  H     0.26054   0.89899   0.61001   0.00000  Uiso   1.00
H1581  H     0.25103   0.95267   0.63911   0.00000  Uiso   1.00
H1582  H     0.19756   0.94769   0.58671   0.00000  Uiso   1.00
H1583  H     0.17322   0.93431   0.63583   0.00000  Uiso   1.00
C1584  C     0.16824   0.74087   0.88946   0.00000  Uiso   1.00
C1585  C     0.21217   0.72646   0.87766   0.00000  Uiso   1.00
H1586  H     0.21185   0.69027   0.86439   0.00000  Uiso   1.00
H1587  H     0.22556   0.75060   0.85296   0.00000  Uiso   1.00
H1588  H     0.23220   0.72690   0.90724   0.00000  Uiso   1.00
H1589  H     0.15675   0.71474   0.91379   0.00000  Uiso   1.00
H1590  H     0.14627   0.73645   0.86196   0.00000  Uiso   1.00
C1591  C     0.16841   0.92591   0.88759   0.00000  Uiso   1.00
C1592  C     0.12643   0.94434   0.87222   0.00000  Uiso   1.00
H1593  H     0.13050   0.97956   0.85699   0.00000  Uiso   1.00
H1594  H     0.11197   0.92085   0.84783   0.00000  Uiso   1.00
H1595  H     0.10524   0.94756   0.90048   0.00000  Uiso   1.00
H1596  H     0.18040   0.95119   0.91222   0.00000  Uiso   1.00
H1597  H     0.19207   0.92802   0.86163   0.00000  Uiso   1.00
C1598  C     0.12459   0.75432   0.61428   0.00000  Uiso   1.00
C1599  C     0.15371   0.71230   0.61715   0.00000  Uiso   1.00
H1600  H     0.16396   0.70201   0.58401   0.00000  Uiso   1.00
H1601  H     0.18133   0.72077   0.63735   0.00000  Uiso   1.00
H1602  H     0.13727   0.68200   0.63224   0.00000  Uiso   1.00
H1603  H     0.11159   0.76196   0.64671   0.00000  Uiso   1.00
H1604  H     0.09716   0.74404   0.59439   0.00000  Uiso   1.00
C1605  C     0.04687   0.83296   0.83388   0.00000  Uiso   1.00
C1606  C     0.05506   0.78251   0.84873   0.00000  Uiso   1.00
H1607  H     0.02555   0.76315   0.85366   0.00000  Uiso   1.00
H1608  H     0.07374   0.76370   0.82414   0.00000  Uiso   1.00
H1609  H     0.07248   0.78279   0.88008   0.00000  Uiso   1.00
H1610  H     0.07687   0.85143   0.83033   0.00000  Uiso   1.00
H1611  H     0.03138   0.85215   0.86044   0.00000  Uiso   1.00
C1612  C     0.28776   0.81142   0.66975   0.00000  Uiso   1.00
C1613  C     0.28953   0.75820   0.66395   0.00000  Uiso   1.00
H1614  H     0.32197   0.74604   0.66138   0.00000  Uiso   1.00
H1615  H     0.27467   0.74016   0.69213   0.00000  Uiso   1.00
H1616  H     0.27262   0.74823   0.63371   0.00000  Uiso   1.00
H1617  H     0.25474   0.82110   0.67085   0.00000  Uiso   1.00
H1618  H     0.29963   0.82929   0.64011   0.00000  Uiso   1.00
C1619  C     0.28786   0.83796   0.83408   0.00000  Uiso   1.00
C1620  C     0.28270   0.88858   0.84912   0.00000  Uiso   1.00
H1621  H     0.31306   0.90633   0.85330   0.00000  Uiso   1.00
H1622  H     0.26435   0.90850   0.82478   0.00000  Uiso   1.00
H1623  H     0.26608   0.88899   0.88077   0.00000  Uiso   1.00
H1624  H     0.25671   0.82199   0.83097   0.00000  Uiso   1.00
H1625  H     0.30282   0.81682   0.86018   0.00000  Uiso   1.00
C1626  C     0.04471   0.83435   0.66716   0.00000  Uiso   1.00
C1627  C     0.04234   0.88421   0.64864   0.00000  Uiso   1.00
H1628  H     0.00978   0.89489   0.64300   0.00000  Uiso   1.00
H1629  H     0.05704   0.90930   0.67167   0.00000  Uiso   1.00
H1630  H     0.05913   0.88604   0.61711   0.00000  Uiso   1.00
H1631  H     0.07780   0.82587   0.67091   0.00000  Uiso   1.00
H1632  H     0.03314   0.80875   0.64285   0.00000  Uiso   1.00
C1633  C     0.42085   0.83325   0.75046   0.00000  Uiso   1.00
C1634  C     0.57917   0.83327   0.75058   0.00000  Uiso   1.00
C1635  C     0.49923   0.83364   0.66494   0.00000  Uiso   1.00
C1636  C     0.50017   0.83325   0.83533   0.00000  Uiso   1.00
C1637  C     0.46838   0.69144   0.73092   0.00000  Uiso   1.00
C1638  C     0.53167   0.97528   0.76884   0.00000  Uiso   1.00
C1639  C     0.53181   0.69154   0.76860   0.00000  Uiso   1.00
C1640  C     0.46848   0.97513   0.73074   0.00000  Uiso   1.00
C1641  C     0.35544   0.83417   0.79118   0.00000  Uiso   1.00
C1642  C     0.64473   0.82630   0.71086   0.00000  Uiso   1.00
C1643  C     0.64517   0.83551   0.79123   0.00000  Uiso   1.00
C1644  C     0.35477   0.83045   0.71039   0.00000  Uiso   1.00
C1645  C     0.51586   0.87129   0.54726   0.00000  Uiso   1.00
C1646  C     0.50155   0.79166   0.95415   0.00000  Uiso   1.00
C1647  C     0.49535   0.87572   0.95303   0.00000  Uiso   1.00
C1648  C     0.47900   0.79757   0.54779   0.00000  Uiso   1.00
C1649  C     0.51430   0.87375   0.59270   0.00000  Uiso   1.00
C1650  C     0.50071   0.79008   0.90862   0.00000  Uiso   1.00
C1651  C     0.49851   0.87684   0.90763   0.00000  Uiso   1.00
C1652  C     0.47928   0.79646   0.59332   0.00000  Uiso   1.00
C1653  C     0.49765   0.83462   0.61672   0.00000  Uiso   1.00
C1654  C     0.49992   0.83331   0.88404   0.00000  Uiso   1.00
C1655  C     0.49782   0.83408   0.52461   0.00000  Uiso   1.00
C1656  C     0.49805   0.83380   0.97648   0.00000  Uiso   1.00
C1657  C     0.62383   0.83251   0.75084   0.00000  Uiso   1.00
C1658  C     0.37620   0.83300   0.75065   0.00000  Uiso   1.00
Cu1659 Cu    0.50000   0.88022   0.75000   0.00000  Uiso   1.00
Cu1660 Cu    0.50000   0.78645   0.75000   0.00000  Uiso   1.00
H1661  H     0.44311   0.71007   0.71551   0.00000  Uiso   1.00
H1662  H     0.55704   0.95681   0.78392   0.00000  Uiso   1.00
H1663  H     0.55749   0.71018   0.78322   0.00000  Uiso   1.00
H1664  H     0.44337   0.95644   0.71505   0.00000  Uiso   1.00
H1665  H     0.53127   0.89915   0.52928   0.00000  Uiso   1.00
H1666  H     0.50523   0.75925   0.97250   0.00000  Uiso   1.00
H1667  H     0.49125   0.90842   0.97035   0.00000  Uiso   1.00
H1668  H     0.46352   0.76952   0.53029   0.00000  Uiso   1.00
N1669  N     0.50000   0.95069   0.75000   0.00000  Uiso   1.00
N1670  N     0.50000   0.71598   0.75000   0.00000  Uiso   1.00
O1671  O     0.43988   0.87291   0.75000   0.00000  Uiso   1.00
O1672  O     0.56012   0.79375   0.75001   0.00000  Uiso   1.00
O1673  O     0.56012   0.87291   0.75001   0.00000  Uiso   1.00
O1674  O     0.43988   0.79375   0.75000   0.00000  Uiso   1.00
O1675  O     0.50000   0.87293   0.68573   0.00000  Uiso   1.00
O1676  O     0.50000   0.79374   0.81427   0.00000  Uiso   1.00
O1677  O     0.50000   0.87293   0.81427   0.00000  Uiso   1.00
O1678  O     0.50000   0.79374   0.68573   0.00000  Uiso   1.00
C1679  C     0.52922   0.91999   0.61246   0.00000  Uiso   1.00
C1680  C     0.57235   0.91674   0.63266   0.00000  Uiso   1.00
H1681  H     0.57153   0.89780   0.66423   0.00000  Uiso   1.00
H1682  H     0.59387   0.89899   0.61001   0.00000  Uiso   1.00
H1683  H     0.58436   0.95267   0.63911   0.00000  Uiso   1.00
H1684  H     0.53089   0.94769   0.58671   0.00000  Uiso   1.00
H1685  H     0.50656   0.93431   0.63583   0.00000  Uiso   1.00
C1686  C     0.50157   0.74087   0.88946   0.00000  Uiso   1.00
C1687  C     0.54551   0.72646   0.87766   0.00000  Uiso   1.00
H1688  H     0.54518   0.69027   0.86439   0.00000  Uiso   1.00
H1689  H     0.55890   0.75060   0.85296   0.00000  Uiso   1.00
H1690  H     0.56553   0.72690   0.90724   0.00000  Uiso   1.00
H1691  H     0.49008   0.71474   0.91379   0.00000  Uiso   1.00
H1692  H     0.47960   0.73645   0.86196   0.00000  Uiso   1.00
C1693  C     0.50174   0.92591   0.88759   0.00000  Uiso   1.00
C1694  C     0.45977   0.94434   0.87222   0.00000  Uiso   1.00
H1695  H     0.46383   0.97956   0.85699   0.00000  Uiso   1.00
H1696  H     0.44530   0.92085   0.84783   0.00000  Uiso   1.00
H1697  H     0.43857   0.94756   0.90048   0.00000  Uiso   1.00
H1698  H     0.51373   0.95119   0.91222   0.00000  Uiso   1.00
H1699  H     0.52540   0.92802   0.86163   0.00000  Uiso   1.00
C1700  C     0.45792   0.75432   0.61428   0.00000  Uiso   1.00
C1701  C     0.48704   0.71230   0.61715   0.00000  Uiso   1.00
H1702  H     0.49730   0.70201   0.58401   0.00000  Uiso   1.00
H1703  H     0.51467   0.72077   0.63735   0.00000  Uiso   1.00
H1704  H     0.47060   0.68200   0.63224   0.00000  Uiso   1.00
H1705  H     0.44492   0.76196   0.64671   0.00000  Uiso   1.00
H1706  H     0.43049   0.74404   0.59439   0.00000  Uiso   1.00
C1707  C     0.38020   0.83296   0.83388   0.00000  Uiso   1.00
C1708  C     0.38839   0.78251   0.84873   0.00000  Uiso   1.00
H1709  H     0.35888   0.76315   0.85366   0.00000  Uiso   1.00
H1710  H     0.40707   0.76370   0.82414   0.00000  Uiso   1.00
H1711  H     0.40581   0.78279   0.88008   0.00000  Uiso   1.00
H1712  H     0.41020   0.85143   0.83033   0.00000  Uiso   1.00
H1713  H     0.36471   0.85215   0.86044   0.00000  Uiso   1.00
C1714  C     0.62109   0.81142   0.66975   0.00000  Uiso   1.00
C1715  C     0.62286   0.75820   0.66395   0.00000  Uiso   1.00
H1716  H     0.65531   0.74604   0.66138   0.00000  Uiso   1.00
H1717  H     0.60801   0.74016   0.69213   0.00000  Uiso   1.00
H1718  H     0.60596   0.74823   0.63371   0.00000  Uiso   1.00
H1719  H     0.58807   0.82110   0.67085   0.00000  Uiso   1.00
H1720  H     0.63297   0.82929   0.64011   0.00000  Uiso   1.00
C1721  C     0.62120   0.83796   0.83408   0.00000  Uiso   1.00
C1722  C     0.61603   0.88858   0.84912   0.00000  Uiso   1.00
H1723  H     0.64640   0.90633   0.85330   0.00000  Uiso   1.00
H1724  H     0.59768   0.90850   0.82478   0.00000  Uiso   1.00
H1725  H     0.59942   0.88899   0.88077   0.00000  Uiso   1.00
H1726  H     0.59005   0.82199   0.83097   0.00000  Uiso   1.00
H1727  H     0.63615   0.81682   0.86018   0.00000  Uiso   1.00
C1728  C     0.37804   0.83435   0.66716   0.00000  Uiso   1.00
C1729  C     0.37567   0.88421   0.64864   0.00000  Uiso   1.00
H1730  H     0.34311   0.89489   0.64300   0.00000  Uiso   1.00
H1731  H     0.39038   0.90930   0.67167   0.00000  Uiso   1.00
H1732  H     0.39246   0.88604   0.61711   0.00000  Uiso   1.00
H1733  H     0.41113   0.82587   0.67091   0.00000  Uiso   1.00
H1734  H     0.36647   0.80875   0.64285   0.00000  Uiso   1.00
C1735  C     0.75418   0.83325   0.75046   0.00000  Uiso   1.00
C1736  C     0.91250   0.83327   0.75058   0.00000  Uiso   1.00
C1737  C     0.83257   0.83364   0.66494   0.00000  Uiso   1.00
C1738  C     0.83350   0.83325   0.83533   0.00000  Uiso   1.00
C1739  C     0.80171   0.69144   0.73092   0.00000  Uiso   1.00
C1740  C     0.86501   0.97528   0.76884   0.00000  Uiso   1.00
C1741  C     0.86514   0.69154   0.76860   0.00000  Uiso   1.00
C1742  C     0.80181   0.97513   0.73074   0.00000  Uiso   1.00
C1743  C     0.68878   0.83417   0.79118   0.00000  Uiso   1.00
C1744  C     0.97806   0.82630   0.71086   0.00000  Uiso   1.00
C1745  C     0.97850   0.83551   0.79123   0.00000  Uiso   1.00
C1746  C     0.68811   0.83045   0.71039   0.00000  Uiso   1.00
C1747  C     0.84919   0.87129   0.54726   0.00000  Uiso   1.00
C1748  C     0.83489   0.79166   0.95415   0.00000  Uiso   1.00
C1749  C     0.82869   0.87572   0.95303   0.00000  Uiso   1.00
C1750  C     0.81233   0.79757   0.54779   0.00000  Uiso   1.00
C1751  C     0.84763   0.87375   0.59270   0.00000  Uiso   1.00
C1752  C     0.83405   0.79008   0.90862   0.00000  Uiso   1.00
C1753  C     0.83185   0.87684   0.90763   0.00000  Uiso   1.00
C1754  C     0.81261   0.79646   0.59332   0.00000  Uiso   1.00
C1755  C     0.83099   0.83462   0.61672   0.00000  Uiso   1.00
C1756  C     0.83325   0.83331   0.88404   0.00000  Uiso   1.00
C1757  C     0.83115   0.83408   0.52461   0.00000  Uiso   1.00
C1758  C     0.83138   0.83380   0.97648   0.00000  Uiso   1.00
C1759  C     0.95716   0.83251   0.75084   0.00000  Uiso   1.00
C1760  C     0.70953   0.83300   0.75065   0.00000  Uiso   1.00
Cu1761 Cu    0.83333   0.88022   0.75000   0.00000  Uiso   1.00
Cu1762 Cu    0.83333   0.78645   0.75000   0.00000  Uiso   1.00
H1763  H     0.77645   0.71007   0.71551   0.00000  Uiso   1.00
H1764  H     0.89038   0.95681   0.78392   0.00000  Uiso   1.00
H1765  H     0.89082   0.71018   0.78322   0.00000  Uiso   1.00
H1766  H     0.77671   0.95644   0.71505   0.00000  Uiso   1.00
H1767  H     0.86460   0.89915   0.52928   0.00000  Uiso   1.00
H1768  H     0.83856   0.75925   0.97250   0.00000  Uiso   1.00
H1769  H     0.82458   0.90842   0.97035   0.00000  Uiso   1.00
H1770  H     0.79685   0.76952   0.53029   0.00000  Uiso   1.00
N1771  N     0.83333   0.95069   0.75000   0.00000  Uiso   1.00
N1772  N     0.83333   0.71598   0.75000   0.00000  Uiso   1.00
O1773  O     0.77321   0.87291   0.75000   0.00000  Uiso   1.00
O1774  O     0.89345   0.79375   0.75001   0.00000  Uiso   1.00
O1775  O     0.89345   0.87291   0.75001   0.00000  Uiso   1.00
O1776  O     0.77321   0.79375   0.75000   0.00000  Uiso   1.00
O1777  O     0.83333   0.87293   0.68573   0.00000  Uiso   1.00
O1778  O     0.83334   0.79374   0.81427   0.00000  Uiso   1.00
O1779  O     0.83334   0.87293   0.81427   0.00000  Uiso   1.00
O1780  O     0.83333   0.79374   0.68573   0.00000  Uiso   1.00
C1781  C     0.86256   0.91999   0.61246   0.00000  Uiso   1.00
C1782  C     0.90569   0.91674   0.63266   0.00000  Uiso   1.00
H1783  H     0.90486   0.89780   0.66423   0.00000  Uiso   1.00
H1784  H     0.92720   0.89899   0.61001   0.00000  Uiso   1.00
H1785  H     0.91770   0.95267   0.63911   0.00000  Uiso   1.00
H1786  H     0.86422   0.94769   0.58671   0.00000  Uiso   1.00
H1787  H     0.83989   0.93431   0.63583   0.00000  Uiso   1.00
C1788  C     0.83490   0.74087   0.88946   0.00000  Uiso   1.00
C1789  C     0.87884   0.72646   0.87766   0.00000  Uiso   1.00
H1790  H     0.87851   0.69027   0.86439   0.00000  Uiso   1.00
H1791  H     0.89223   0.75060   0.85296   0.00000  Uiso   1.00
H1792  H     0.89887   0.72690   0.90724   0.00000  Uiso   1.00
H1793  H     0.82342   0.71474   0.91379   0.00000  Uiso   1.00
H1794  H     0.81294   0.73645   0.86196   0.00000  Uiso   1.00
C1795  C     0.83507   0.92591   0.88759   0.00000  Uiso   1.00
C1796  C     0.79310   0.94434   0.87222   0.00000  Uiso   1.00
H1797  H     0.79716   0.97956   0.85699   0.00000  Uiso   1.00
H1798  H     0.77864   0.92085   0.84783   0.00000  Uiso   1.00
H1799  H     0.77191   0.94756   0.90048   0.00000  Uiso   1.00
H1800  H     0.84707   0.95119   0.91222   0.00000  Uiso   1.00
H1801  H     0.85874   0.92802   0.86163   0.00000  Uiso   1.00
C1802  C     0.79126   0.75432   0.61428   0.00000  Uiso   1.00
C1803  C     0.82038   0.71230   0.61715   0.00000  Uiso   1.00
H1804  H     0.83063   0.70201   0.58401   0.00000  Uiso   1.00
H1805  H     0.84800   0.72077   0.63735   0.00000  Uiso   1.00
H1806  H     0.80393   0.68200   0.63224   0.00000  Uiso   1.00
H1807  H     0.77826   0.76196   0.64671   0.00000  Uiso   1.00
H1808  H     0.76383   0.74404   0.59439   0.00000  Uiso   1.00
C1809  C     0.71353   0.83296   0.83388   0.00000  Uiso   1.00
C1810  C     0.72173   0.78251   0.84873   0.00000  Uiso   1.00
H1811  H     0.69221   0.76315   0.85366   0.00000  Uiso   1.00
H1812  H     0.74040   0.76370   0.82414   0.00000  Uiso   1.00
H1813  H     0.73914   0.78279   0.88008   0.00000  Uiso   1.00
H1814  H     0.74354   0.85143   0.83033   0.00000  Uiso   1.00
H1815  H     0.69804   0.85215   0.86044   0.00000  Uiso   1.00
C1816  C     0.95443   0.81142   0.66975   0.00000  Uiso   1.00
C1817  C     0.95619   0.75820   0.66395   0.00000  Uiso   1.00
H1818  H     0.98864   0.74604   0.66138   0.00000  Uiso   1.00
H1819  H     0.94134   0.74016   0.69213   0.00000  Uiso   1.00
H1820  H     0.93929   0.74823   0.63371   0.00000  Uiso   1.00
H1821  H     0.92140   0.82110   0.67085   0.00000  Uiso   1.00
H1822  H     0.96630   0.82929   0.64011   0.00000  Uiso   1.00
C1823  C     0.95453   0.83796   0.83408   0.00000  Uiso   1.00
C1824  C     0.94937   0.88858   0.84912   0.00000  Uiso   1.00
H1825  H     0.97973   0.90633   0.85330   0.00000  Uiso   1.00
H1826  H     0.93102   0.90850   0.82478   0.00000  Uiso   1.00
H1827  H     0.93275   0.88899   0.88077   0.00000  Uiso   1.00
H1828  H     0.92338   0.82199   0.83097   0.00000  Uiso   1.00
H1829  H     0.96949   0.81682   0.86018   0.00000  Uiso   1.00
C1830  C     0.71138   0.83435   0.66716   0.00000  Uiso   1.00
C1831  C     0.70901   0.88421   0.64864   0.00000  Uiso   1.00
H1832  H     0.67645   0.89489   0.64300   0.00000  Uiso   1.00
H1833  H     0.72371   0.90930   0.67167   0.00000  Uiso   1.00
H1834  H     0.72579   0.88604   0.61711   0.00000  Uiso   1.00
H1835  H     0.74446   0.82587   0.67091   0.00000  Uiso   1.00
H1836  H     0.69981   0.80875   0.64285   0.00000  Uiso   1.00
loop_
_geom_bond_atom_site_label_1
_geom_bond_atom_site_label_2
_geom_bond_distance
_geom_bond_site_symmetry_2
_ccdc_geom_bond_type
C1     O39     1.283   .     A
C1     C26     1.443   .     S
C1     O42     1.284   .     A
C2     O41     1.288   .     A
C2     O40     1.280   .     A
C2     C25     1.444   .     S
C3     O43     1.290   .     A
C3     C21     1.477   .     S
C3     O46     1.299   .     A
C4     O45     1.297   .     A
C4     O44     1.300   .     A
C4     C22     1.492   .     S
C5     H29     1.081   .     S
C5     N38     1.366   .     A
C5     C620    1.413   1_545 S
C6     N37     1.365   .     A
C6     H30     1.077   .     S
C6     C313    1.411   .     S
C7     H31     1.080   .     S
C7     N38     1.365   .     A
C7     C618    1.411   1_545 S
C8     H32     1.081   .     S
C8     N37     1.366   .     A
C8     C311    1.413   .     S
C9     C26     1.414   .     A
C9     C75     1.530   .     S
C9     C215    1.411   1_455 S
C10    C82     1.530   .     S
C10    C25     1.414   .     A
C10    C114    1.407   .     S
C11    C89     1.529   .     S
C11    C25     1.416   .     A
C11    C111    1.411   .     S
C12    C26     1.413   .     A
C12    C96     1.529   .     S
C12    C214    1.407   1_455 S
C13    C23     1.393   .     A
C13    H33     1.083   .     S
C13    C17     1.395   .     A
C14    C18     1.395   .     A
C14    C24     1.390   .     A
C14    H34     1.084   .     S
C15    C19     1.394   .     A
C15    H35     1.083   .     S
C15    C24     1.391   .     A
C16    C20     1.394   .     A
C16    C23     1.393   .     A
C16    H36     1.084   .     S
C17    C21     1.434   .     A
C17    C47     1.527   .     S
C18    C22     1.438   .     A
C18    C54     1.523   .     S
C19    C22     1.439   .     A
C19    C61     1.525   .     S
C20    C68     1.521   .     S
C20    C21     1.430   .     A
C23    C942    1.474   1_554 S
C24    C941    1.474   .     S
Cu27   O39     1.954   .     S
Cu27   O41     1.956   .     S
Cu27   O45     1.977   .     S
Cu27   O43     1.980   .     S
Cu27   Cu28    2.669   .     S
Cu27   N37     2.006   .     S
Cu28   O40     1.954   .     S
Cu28   N38     2.006   .     S
Cu28   O46     1.977   .     S
Cu28   O42     1.956   .     S
Cu28   O44     1.980   .     S
C47    H53     1.108   .     S
C47    C48     1.526   .     S
C47    H52     1.113   .     S
C48    H51     1.111   .     S
C48    H50     1.111   .     S
C48    H49     1.104   .     S
C54    H60     1.106   .     S
C54    H59     1.113   .     S
C54    C55     1.526   .     S
C55    H56     1.110   .     S
C55    H57     1.107   .     S
C55    H58     1.111   .     S
C61    H66     1.113   .     S
C61    C62     1.528   .     S
C61    H67     1.107   .     S
C62    H64     1.106   .     S
C62    H63     1.110   .     S
C62    H65     1.111   .     S
C68    H74     1.112   .     S
C68    C69     1.528   .     S
C68    H73     1.103   .     S
C69    H71     1.110   .     S
C69    H72     1.110   .     S
C69    H70     1.111   .     S
C75    H80     1.106   .     S
C75    H81     1.106   .     S
C75    C76     1.527   .     S
C76    H79     1.110   .     S
C76    H78     1.109   .     S
C76    H77     1.110   .     S
C82    H87     1.105   .     S
C82    H88     1.107   .     S
C82    C83     1.528   .     S
C83    H84     1.110   .     S
C83    H85     1.111   .     S
C83    H86     1.111   .     S
C89    H94     1.107   .     S
C89    H95     1.108   .     S
C89    C90     1.526   .     S
C90    H92     1.106   .     S
C90    H93     1.111   .     S
C90    H91     1.109   .     S
C96    H102    1.108   .     S
C96    H101    1.103   .     S
C96    C97     1.527   .     S
C97    H98     1.110   .     S
C97    H99     1.110   .     S
C97    H100    1.111   .     S
C103   O141    1.283   .     A
C103   C128    1.443   .     S
C103   O144    1.284   .     A
C104   O143    1.288   .     A
C104   O142    1.280   .     A
C104   C127    1.444   .     S
C105   O145    1.290   .     A
C105   C123    1.477   .     S
C105   O148    1.299   .     A
C106   O147    1.297   .     A
C106   O146    1.300   .     A
C106   C124    1.492   .     S
C107   H131    1.081   .     S
C107   N140    1.366   .     A
C107   C722    1.413   1_545 S
C108   N139    1.365   .     A
C108   H132    1.077   .     S
C108   C415    1.411   .     S
C109   H133    1.080   .     S
C109   N140    1.365   .     A
C109   C720    1.411   1_545 S
C110   H134    1.081   .     S
C110   N139    1.366   .     A
C110   C413    1.413   .     S
C111   C128    1.414   .     A
C111   C177    1.530   .     S
C112   C184    1.530   .     S
C112   C127    1.414   .     A
C112   C216    1.407   .     S
C113   C191    1.529   .     S
C113   C127    1.416   .     A
C113   C213    1.411   .     S
C114   C128    1.413   .     A
C114   C198    1.529   .     S
C115   C125    1.393   .     A
C115   H135    1.083   .     S
C115   C119    1.395   .     A
C116   C120    1.395   .     A
C116   C126    1.390   .     A
C116   H136    1.084   .     S
C117   C121    1.394   .     A
C117   H137    1.083   .     S
C117   C126    1.391   .     A
C118   C122    1.394   .     A
C118   C125    1.393   .     A
C118   H138    1.084   .     S
C119   C123    1.434   .     A
C119   C149    1.527   .     S
C120   C124    1.438   .     A
C120   C156    1.523   .     S
C121   C124    1.439   .     A
C121   C163    1.525   .     S
C122   C170    1.521   .     S
C122   C123    1.430   .     A
C125   C1044   1.474   1_554 S
C126   C1043   1.474   .     S
Cu129  O141    1.954   .     S
Cu129  O143    1.956   .     S
Cu129  O147    1.977   .     S
Cu129  O145    1.980   .     S
Cu129  Cu130   2.669   .     S
Cu129  N139    2.006   .     S
Cu130  O142    1.954   .     S
Cu130  N140    2.006   .     S
Cu130  O148    1.977   .     S
Cu130  O144    1.956   .     S
Cu130  O146    1.980   .     S
C149   H155    1.108   .     S
C149   C150    1.526   .     S
C149   H154    1.113   .     S
C150   H153    1.111   .     S
C150   H152    1.111   .     S
C150   H151    1.104   .     S
C156   H162    1.106   .     S
C156   H161    1.113   .     S
C156   C157    1.526   .     S
C157   H158    1.110   .     S
C157   H159    1.107   .     S
C157   H160    1.111   .     S
C163   H168    1.113   .     S
C163   C164    1.528   .     S
C163   H169    1.107   .     S
C164   H166    1.106   .     S
C164   H165    1.110   .     S
C164   H167    1.111   .     S
C170   H176    1.112   .     S
C170   C171    1.528   .     S
C170   H175    1.103   .     S
C171   H173    1.110   .     S
C171   H174    1.110   .     S
C171   H172    1.111   .     S
C177   H182    1.106   .     S
C177   H183    1.106   .     S
C177   C178    1.527   .     S
C178   H181    1.110   .     S
C178   H180    1.109   .     S
C178   H179    1.110   .     S
C184   H189    1.105   .     S
C184   H190    1.107   .     S
C184   C185    1.528   .     S
C185   H186    1.110   .     S
C185   H187    1.111   .     S
C185   H188    1.111   .     S
C191   H196    1.107   .     S
C191   H197    1.108   .     S
C191   C192    1.526   .     S
C192   H194    1.106   .     S
C192   H195    1.111   .     S
C192   H193    1.109   .     S
C198   H204    1.108   .     S
C198   H203    1.103   .     S
C198   C199    1.527   .     S
C199   H200    1.110   .     S
C199   H201    1.110   .     S
C199   H202    1.111   .     S
C205   O243    1.283   .     A
C205   C230    1.443   .     S
C205   O246    1.284   .     A
C206   O245    1.288   .     A
C206   O244    1.280   .     A
C206   C229    1.444   .     S
C207   O247    1.290   .     A
C207   C225    1.477   .     S
C207   O250    1.299   .     A
C208   O249    1.297   .     A
C208   O248    1.300   .     A
C208   C226    1.492   .     S
C209   H233    1.081   .     S
C209   N242    1.366   .     A
C209   C824    1.413   1_545 S
C210   N241    1.365   .     A
C210   H234    1.077   .     S
C210   C517    1.411   .     S
C211   H235    1.080   .     S
C211   N242    1.365   .     A
C211   C822    1.411   1_545 S
C212   H236    1.081   .     S
C212   N241    1.366   .     A
C212   C515    1.413   .     S
C213   C230    1.414   .     A
C213   C279    1.530   .     S
C214   C286    1.530   .     S
C214   C229    1.414   .     A
C214   C12     1.407   1_655 S
C215   C293    1.529   .     S
C215   C229    1.416   .     A
C215   C9      1.411   1_655 S
C216   C230    1.413   .     A
C216   C300    1.529   .     S
C217   C227    1.393   .     A
C217   H237    1.083   .     S
C217   C221    1.395   .     A
C218   C222    1.395   .     A
C218   C228    1.390   .     A
C218   H238    1.084   .     S
C219   C223    1.394   .     A
C219   H239    1.083   .     S
C219   C228    1.391   .     A
C220   C224    1.394   .     A
C220   C227    1.393   .     A
C220   H240    1.084   .     S
C221   C225    1.434   .     A
C221   C251    1.527   .     S
C222   C226    1.438   .     A
C222   C258    1.523   .     S
C223   C226    1.439   .     A
C223   C265    1.525   .     S
C224   C272    1.521   .     S
C224   C225    1.430   .     A
C227   C1146   1.474   1_554 S
C228   C1145   1.474   .     S
Cu231  O243    1.954   .     S
Cu231  O245    1.956   .     S
Cu231  O249    1.977   .     S
Cu231  O247    1.980   .     S
Cu231  Cu232   2.669   .     S
Cu231  N241    2.006   .     S
Cu232  O244    1.954   .     S
Cu232  N242    2.006   .     S
Cu232  O250    1.977   .     S
Cu232  O246    1.956   .     S
Cu232  O248    1.980   .     S
C251   H257    1.108   .     S
C251   C252    1.526   .     S
C251   H256    1.113   .     S
C252   H255    1.111   .     S
C252   H254    1.111   .     S
C252   H253    1.104   .     S
C258   H264    1.106   .     S
C258   H263    1.113   .     S
C258   C259    1.526   .     S
C259   H260    1.110   .     S
C259   H261    1.107   .     S
C259   H262    1.111   .     S
C265   H270    1.113   .     S
C265   C266    1.528   .     S
C265   H271    1.107   .     S
C266   H268    1.106   .     S
C266   H267    1.110   .     S
C266   H269    1.111   .     S
C272   H278    1.112   .     S
C272   C273    1.528   .     S
C272   H277    1.103   .     S
C273   H275    1.110   .     S
C273   H276    1.110   .     S
C273   H274    1.111   .     S
C279   H284    1.106   .     S
C279   H285    1.106   .     S
C279   C280    1.527   .     S
C280   H283    1.110   .     S
C280   H282    1.109   .     S
C280   H281    1.110   .     S
C286   H291    1.105   .     S
C286   H292    1.107   .     S
C286   C287    1.528   .     S
C287   H288    1.110   .     S
C287   H289    1.111   .     S
C287   H290    1.111   .     S
C293   H298    1.107   .     S
C293   H299    1.108   .     S
C293   C294    1.526   .     S
C294   H296    1.106   .     S
C294   H297    1.111   .     S
C294   H295    1.109   .     S
C300   H306    1.108   .     S
C300   H305    1.103   .     S
C300   C301    1.527   .     S
C301   H302    1.110   .     S
C301   H303    1.110   .     S
C301   H304    1.111   .     S
C307   O345    1.283   .     A
C307   C332    1.443   .     S
C307   O348    1.284   .     A
C308   O347    1.288   .     A
C308   O346    1.280   .     A
C308   C331    1.444   .     S
C309   O349    1.290   .     A
C309   C327    1.477   .     S
C309   O352    1.299   .     A
C310   O351    1.297   .     A
C310   O350    1.300   .     A
C310   C328    1.492   .     S
C311   H335    1.081   .     S
C311   N344    1.366   .     A
C312   N343    1.365   .     A
C312   H336    1.077   .     S
C312   C619    1.411   .     S
C313   H337    1.080   .     S
C313   N344    1.365   .     A
C314   H338    1.081   .     S
C314   N343    1.366   .     A
C314   C617    1.413   .     S
C315   C332    1.414   .     A
C315   C381    1.530   .     S
C315   C521    1.411   1_455 S
C316   C388    1.530   .     S
C316   C331    1.414   .     A
C316   C420    1.407   .     S
C317   C395    1.529   .     S
C317   C331    1.416   .     A
C317   C417    1.411   .     S
C318   C332    1.413   .     A
C318   C402    1.529   .     S
C318   C520    1.407   1_455 S
C319   C329    1.393   .     A
C319   H339    1.083   .     S
C319   C323    1.395   .     A
C320   C324    1.395   .     A
C320   C330    1.390   .     A
C320   H340    1.084   .     S
C321   C325    1.394   .     A
C321   H341    1.083   .     S
C321   C330    1.391   .     A
C322   C326    1.394   .     A
C322   C329    1.393   .     A
C322   H342    1.084   .     S
C323   C327    1.434   .     A
C323   C353    1.527   .     S
C324   C328    1.438   .     A
C324   C360    1.523   .     S
C325   C328    1.439   .     A
C325   C367    1.525   .     S
C326   C374    1.521   .     S
C326   C327    1.430   .     A
C329   C1248   1.474   1_554 S
C330   C1247   1.474   .     S
Cu333  O345    1.954   .     S
Cu333  O347    1.956   .     S
Cu333  O351    1.977   .     S
Cu333  O349    1.980   .     S
Cu333  Cu334   2.669   .     S
Cu333  N343    2.006   .     S
Cu334  O346    1.954   .     S
Cu334  N344    2.006   .     S
Cu334  O352    1.977   .     S
Cu334  O348    1.956   .     S
Cu334  O350    1.980   .     S
C353   H359    1.108   .     S
C353   C354    1.526   .     S
C353   H358    1.113   .     S
C354   H357    1.111   .     S
C354   H356    1.111   .     S
C354   H355    1.104   .     S
C360   H366    1.106   .     S
C360   H365    1.113   .     S
C360   C361    1.526   .     S
C361   H362    1.110   .     S
C361   H363    1.107   .     S
C361   H364    1.111   .     S
C367   H372    1.113   .     S
C367   C368    1.528   .     S
C367   H373    1.107   .     S
C368   H370    1.106   .     S
C368   H369    1.110   .     S
C368   H371    1.111   .     S
C374   H380    1.112   .     S
C374   C375    1.528   .     S
C374   H379    1.103   .     S
C375   H377    1.110   .     S
C375   H378    1.110   .     S
C375   H376    1.111   .     S
C381   H386    1.106   .     S
C381   H387    1.106   .     S
C381   C382    1.527   .     S
C382   H385    1.110   .     S
C382   H384    1.109   .     S
C382   H383    1.110   .     S
C388   H393    1.105   .     S
C388   H394    1.107   .     S
C388   C389    1.528   .     S
C389   H390    1.110   .     S
C389   H391    1.111   .     S
C389   H392    1.111   .     S
C395   H400    1.107   .     S
C395   H401    1.108   .     S
C395   C396    1.526   .     S
C396   H398    1.106   .     S
C396   H399    1.111   .     S
C396   H397    1.109   .     S
C402   H408    1.108   .     S
C402   H407    1.103   .     S
C402   C403    1.527   .     S
C403   H404    1.110   .     S
C403   H405    1.110   .     S
C403   H406    1.111   .     S
C409   O447    1.283   .     A
C409   C434    1.443   .     S
C409   O450    1.284   .     A
C410   O449    1.288   .     A
C410   O448    1.280   .     A
C410   C433    1.444   .     S
C411   O451    1.290   .     A
C411   C429    1.477   .     S
C411   O454    1.299   .     A
C412   O453    1.297   .     A
C412   O452    1.300   .     A
C412   C430    1.492   .     S
C413   H437    1.081   .     S
C413   N446    1.366   .     A
C414   N445    1.365   .     A
C414   H438    1.077   .     S
C414   C721    1.411   .     S
C415   H439    1.080   .     S
C415   N446    1.365   .     A
C416   H440    1.081   .     S
C416   N445    1.366   .     A
C416   C719    1.413   .     S
C417   C434    1.414   .     A
C417   C483    1.530   .     S
C418   C490    1.530   .     S
C418   C433    1.414   .     A
C418   C522    1.407   .     S
C419   C497    1.529   .     S
C419   C433    1.416   .     A
C419   C519    1.411   .     S
C420   C434    1.413   .     A
C420   C504    1.529   .     S
C421   C431    1.393   .     A
C421   H441    1.083   .     S
C421   C425    1.395   .     A
C422   C426    1.395   .     A
C422   C432    1.390   .     A
C422   H442    1.084   .     S
C423   C427    1.394   .     A
C423   H443    1.083   .     S
C423   C432    1.391   .     A
C424   C428    1.394   .     A
C424   C431    1.393   .     A
C424   H444    1.084   .     S
C425   C429    1.434   .     A
C425   C455    1.527   .     S
C426   C430    1.438   .     A
C426   C462    1.523   .     S
C427   C430    1.439   .     A
C427   C469    1.525   .     S
C428   C476    1.521   .     S
C428   C429    1.430   .     A
C431   C1350   1.474   1_554 S
C432   C1349   1.474   .     S
Cu435  O447    1.954   .     S
Cu435  O449    1.956   .     S
Cu435  O453    1.977   .     S
Cu435  O451    1.980   .     S
Cu435  Cu436   2.669   .     S
Cu435  N445    2.006   .     S
Cu436  O448    1.954   .     S
Cu436  N446    2.006   .     S
Cu436  O454    1.977   .     S
Cu436  O450    1.956   .     S
Cu436  O452    1.980   .     S
C455   H461    1.108   .     S
C455   C456    1.526   .     S
C455   H460    1.113   .     S
C456   H459    1.111   .     S
C456   H458    1.111   .     S
C456   H457    1.104   .     S
C462   H468    1.106   .     S
C462   H467    1.113   .     S
C462   C463    1.526   .     S
C463   H464    1.110   .     S
C463   H465    1.107   .     S
C463   H466    1.111   .     S
C469   H474    1.113   .     S
C469   C470    1.528   .     S
C469   H475    1.107   .     S
C470   H472    1.106   .     S
C470   H471    1.110   .     S
C470   H473    1.111   .     S
C476   H482    1.112   .     S
C476   C477    1.528   .     S
C476   H481    1.103   .     S
C477   H479    1.110   .     S
C477   H480    1.110   .     S
C477   H478    1.111   .     S
C483   H488    1.106   .     S
C483   H489    1.106   .     S
C483   C484    1.527   .     S
C484   H487    1.110   .     S
C484   H486    1.109   .     S
C484   H485    1.110   .     S
C490   H495    1.105   .     S
C490   H496    1.107   .     S
C490   C491    1.528   .     S
C491   H492    1.110   .     S
C491   H493    1.111   .     S
C491   H494    1.111   .     S
C497   H502    1.107   .     S
C497   H503    1.108   .     S
C497   C498    1.526   .     S
C498   H500    1.106   .     S
C498   H501    1.111   .     S
C498   H499    1.109   .     S
C504   H510    1.108   .     S
C504   H509    1.103   .     S
C504   C505    1.527   .     S
C505   H506    1.110   .     S
C505   H507    1.110   .     S
C505   H508    1.111   .     S
C511   O549    1.283   .     A
C511   C536    1.443   .     S
C511   O552    1.284   .     A
C512   O551    1.288   .     A
C512   O550    1.280   .     A
C512   C535    1.444   .     S
C513   O553    1.290   .     A
C513   C531    1.477   .     S
C513   O556    1.299   .     A
C514   O555    1.297   .     A
C514   O554    1.300   .     A
C514   C532    1.492   .     S
C515   H539    1.081   .     S
C515   N548    1.366   .     A
C516   N547    1.365   .     A
C516   H540    1.077   .     S
C516   C823    1.411   .     S
C517   H541    1.080   .     S
C517   N548    1.365   .     A
C518   H542    1.081   .     S
C518   N547    1.366   .     A
C518   C821    1.413   .     S
C519   C536    1.414   .     A
C519   C585    1.530   .     S
C520   C592    1.530   .     S
C520   C535    1.414   .     A
C520   C318    1.407   1_655 S
C521   C599    1.529   .     S
C521   C535    1.416   .     A
C521   C315    1.411   1_655 S
C522   C536    1.413   .     A
C522   C606    1.529   .     S
C523   C533    1.393   .     A
C523   H543    1.083   .     S
C523   C527    1.395   .     A
C524   C528    1.395   .     A
C524   C534    1.390   .     A
C524   H544    1.084   .     S
C525   C529    1.394   .     A
C525   H545    1.083   .     S
C525   C534    1.391   .     A
C526   C530    1.394   .     A
C526   C533    1.393   .     A
C526   H546    1.084   .     S
C527   C531    1.434   .     A
C527   C557    1.527   .     S
C528   C532    1.438   .     A
C528   C564    1.523   .     S
C529   C532    1.439   .     A
C529   C571    1.525   .     S
C530   C578    1.521   .     S
C530   C531    1.430   .     A
C533   C1452   1.474   1_554 S
C534   C1451   1.474   .     S
Cu537  O549    1.954   .     S
Cu537  O551    1.956   .     S
Cu537  O555    1.977   .     S
Cu537  O553    1.980   .     S
Cu537  Cu538   2.669   .     S
Cu537  N547    2.006   .     S
Cu538  O550    1.954   .     S
Cu538  N548    2.006   .     S
Cu538  O556    1.977   .     S
Cu538  O552    1.956   .     S
Cu538  O554    1.980   .     S
C557   H563    1.108   .     S
C557   C558    1.526   .     S
C557   H562    1.113   .     S
C558   H561    1.111   .     S
C558   H560    1.111   .     S
C558   H559    1.104   .     S
C564   H570    1.106   .     S
C564   H569    1.113   .     S
C564   C565    1.526   .     S
C565   H566    1.110   .     S
C565   H567    1.107   .     S
C565   H568    1.111   .     S
C571   H576    1.113   .     S
C571   C572    1.528   .     S
C571   H577    1.107   .     S
C572   H574    1.106   .     S
C572   H573    1.110   .     S
C572   H575    1.111   .     S
C578   H584    1.112   .     S
C578   C579    1.528   .     S
C578   H583    1.103   .     S
C579   H581    1.110   .     S
C579   H582    1.110   .     S
C579   H580    1.111   .     S
C585   H590    1.106   .     S
C585   H591    1.106   .     S
C585   C586    1.527   .     S
C586   H589    1.110   .     S
C586   H588    1.109   .     S
C586   H587    1.110   .     S
C592   H597    1.105   .     S
C592   H598    1.107   .     S
C592   C593    1.528   .     S
C593   H594    1.110   .     S
C593   H595    1.111   .     S
C593   H596    1.111   .     S
C599   H604    1.107   .     S
C599   H605    1.108   .     S
C599   C600    1.526   .     S
C600   H602    1.106   .     S
C600   H603    1.111   .     S
C600   H601    1.109   .     S
C606   H612    1.108   .     S
C606   H611    1.103   .     S
C606   C607    1.527   .     S
C607   H608    1.110   .     S
C607   H609    1.110   .     S
C607   H610    1.111   .     S
C613   O651    1.283   .     A
C613   C638    1.443   .     S
C613   O654    1.284   .     A
C614   O653    1.288   .     A
C614   O652    1.280   .     A
C614   C637    1.444   .     S
C615   O655    1.290   .     A
C615   C633    1.477   .     S
C615   O658    1.299   .     A
C616   O657    1.297   .     A
C616   O656    1.300   .     A
C616   C634    1.492   .     S
C617   H641    1.081   .     S
C617   N650    1.366   .     A
C618   N649    1.365   .     A
C618   H642    1.077   .     S
C618   C7      1.411   1_565 S
C619   H643    1.080   .     S
C619   N650    1.365   .     A
C620   H644    1.081   .     S
C620   N649    1.366   .     A
C620   C5      1.413   1_565 S
C621   C638    1.414   .     A
C621   C687    1.530   .     S
C621   C827    1.411   1_455 S
C622   C694    1.530   .     S
C622   C637    1.414   .     A
C622   C726    1.407   .     S
C623   C701    1.529   .     S
C623   C637    1.416   .     A
C623   C723    1.411   .     S
C624   C638    1.413   .     A
C624   C708    1.529   .     S
C624   C826    1.407   1_455 S
C625   C635    1.393   .     A
C625   H645    1.083   .     S
C625   C629    1.395   .     A
C626   C630    1.395   .     A
C626   C636    1.390   .     A
C626   H646    1.084   .     S
C627   C631    1.394   .     A
C627   H647    1.083   .     S
C627   C636    1.391   .     A
C628   C632    1.394   .     A
C628   C635    1.393   .     A
C628   H648    1.084   .     S
C629   C633    1.434   .     A
C629   C659    1.527   .     S
C630   C634    1.438   .     A
C630   C666    1.523   .     S
C631   C634    1.439   .     A
C631   C673    1.525   .     S
C632   C680    1.521   .     S
C632   C633    1.430   .     A
C635   C1554   1.474   1_554 S
C636   C1553   1.474   .     S
Cu639  O651    1.954   .     S
Cu639  O653    1.956   .     S
Cu639  O657    1.977   .     S
Cu639  O655    1.980   .     S
Cu639  Cu640   2.669   .     S
Cu639  N649    2.006   .     S
Cu640  O652    1.954   .     S
Cu640  N650    2.006   .     S
Cu640  O658    1.977   .     S
Cu640  O654    1.956   .     S
Cu640  O656    1.980   .     S
C659   H665    1.108   .     S
C659   C660    1.526   .     S
C659   H664    1.113   .     S
C660   H663    1.111   .     S
C660   H662    1.111   .     S
C660   H661    1.104   .     S
C666   H672    1.106   .     S
C666   H671    1.113   .     S
C666   C667    1.526   .     S
C667   H668    1.110   .     S
C667   H669    1.107   .     S
C667   H670    1.111   .     S
C673   H678    1.113   .     S
C673   C674    1.528   .     S
C673   H679    1.107   .     S
C674   H676    1.106   .     S
C674   H675    1.110   .     S
C674   H677    1.111   .     S
C680   H686    1.112   .     S
C680   C681    1.528   .     S
C680   H685    1.103   .     S
C681   H683    1.110   .     S
C681   H684    1.110   .     S
C681   H682    1.111   .     S
C687   H692    1.106   .     S
C687   H693    1.106   .     S
C687   C688    1.527   .     S
C688   H691    1.110   .     S
C688   H690    1.109   .     S
C688   H689    1.110   .     S
C694   H699    1.105   .     S
C694   H700    1.107   .     S
C694   C695    1.528   .     S
C695   H696    1.110   .     S
C695   H697    1.111   .     S
C695   H698    1.111   .     S
C701   H706    1.107   .     S
C701   H707    1.108   .     S
C701   C702    1.526   .     S
C702   H704    1.106   .     S
C702   H705    1.111   .     S
C702   H703    1.109   .     S
C708   H714    1.108   .     S
C708   H713    1.103   .     S
C708   C709    1.527   .     S
C709   H710    1.110   .     S
C709   H711    1.110   .     S
C709   H712    1.111   .     S
C715   O753    1.283   .     A
C715   C740    1.443   .     S
C715   O756    1.284   .     A
C716   O755    1.288   .     A
C716   O754    1.280   .     A
C716   C739    1.444   .     S
C717   O757    1.290   .     A
C717   C735    1.477   .     S
C717   O760    1.299   .     A
C718   O759    1.297   .     A
C718   O758    1.300   .     A
C718   C736    1.492   .     S
C719   H743    1.081   .     S
C719   N752    1.366   .     A
C720   N751    1.365   .     A
C720   H744    1.077   .     S
C720   C109    1.411   1_565 S
C721   H745    1.080   .     S
C721   N752    1.365   .     A
C722   H746    1.081   .     S
C722   N751    1.366   .     A
C722   C107    1.413   1_565 S
C723   C740    1.414   .     A
C723   C789    1.530   .     S
C724   C796    1.530   .     S
C724   C739    1.414   .     A
C724   C828    1.407   .     S
C725   C803    1.529   .     S
C725   C739    1.416   .     A
C725   C825    1.411   .     S
C726   C740    1.413   .     A
C726   C810    1.529   .     S
C727   C737    1.393   .     A
C727   H747    1.083   .     S
C727   C731    1.395   .     A
C728   C732    1.395   .     A
C728   C738    1.390   .     A
C728   H748    1.084   .     S
C729   C733    1.394   .     A
C729   H749    1.083   .     S
C729   C738    1.391   .     A
C730   C734    1.394   .     A
C730   C737    1.393   .     A
C730   H750    1.084   .     S
C731   C735    1.434   .     A
C731   C761    1.527   .     S
C732   C736    1.438   .     A
C732   C768    1.523   .     S
C733   C736    1.439   .     A
C733   C775    1.525   .     S
C734   C782    1.521   .     S
C734   C735    1.430   .     A
C737   C1656   1.474   1_554 S
C738   C1655   1.474   .     S
Cu741  O753    1.954   .     S
Cu741  O755    1.956   .     S
Cu741  O759    1.977   .     S
Cu741  O757    1.980   .     S
Cu741  Cu742   2.669   .     S
Cu741  N751    2.006   .     S
Cu742  O754    1.954   .     S
Cu742  N752    2.006   .     S
Cu742  O760    1.977   .     S
Cu742  O756    1.956   .     S
Cu742  O758    1.980   .     S
C761   H767    1.108   .     S
C761   C762    1.526   .     S
C761   H766    1.113   .     S
C762   H765    1.111   .     S
C762   H764    1.111   .     S
C762   H763    1.104   .     S
C768   H774    1.106   .     S
C768   H773    1.113   .     S
C768   C769    1.526   .     S
C769   H770    1.110   .     S
C769   H771    1.107   .     S
C769   H772    1.111   .     S
C775   H780    1.113   .     S
C775   C776    1.528   .     S
C775   H781    1.107   .     S
C776   H778    1.106   .     S
C776   H777    1.110   .     S
C776   H779    1.111   .     S
C782   H788    1.112   .     S
C782   C783    1.528   .     S
C782   H787    1.103   .     S
C783   H785    1.110   .     S
C783   H786    1.110   .     S
C783   H784    1.111   .     S
C789   H794    1.106   .     S
C789   H795    1.106   .     S
C789   C790    1.527   .     S
C790   H793    1.110   .     S
C790   H792    1.109   .     S
C790   H791    1.110   .     S
C796   H801    1.105   .     S
C796   H802    1.107   .     S
C796   C797    1.528   .     S
C797   H798    1.110   .     S
C797   H799    1.111   .     S
C797   H800    1.111   .     S
C803   H808    1.107   .     S
C803   H809    1.108   .     S
C803   C804    1.526   .     S
C804   H806    1.106   .     S
C804   H807    1.111   .     S
C804   H805    1.109   .     S
C810   H816    1.108   .     S
C810   H815    1.103   .     S
C810   C811    1.527   .     S
C811   H812    1.110   .     S
C811   H813    1.110   .     S
C811   H814    1.111   .     S
C817   O855    1.283   .     A
C817   C842    1.443   .     S
C817   O858    1.284   .     A
C818   O857    1.288   .     A
C818   O856    1.280   .     A
C818   C841    1.444   .     S
C819   O859    1.290   .     A
C819   C837    1.477   .     S
C819   O862    1.299   .     A
C820   O861    1.297   .     A
C820   O860    1.300   .     A
C820   C838    1.492   .     S
C821   H845    1.081   .     S
C821   N854    1.366   .     A
C822   N853    1.365   .     A
C822   H846    1.077   .     S
C822   C211    1.411   1_565 S
C823   H847    1.080   .     S
C823   N854    1.365   .     A
C824   H848    1.081   .     S
C824   N853    1.366   .     A
C824   C209    1.413   1_565 S
C825   C842    1.414   .     A
C825   C891    1.530   .     S
C826   C898    1.530   .     S
C826   C841    1.414   .     A
C826   C624    1.407   1_655 S
C827   C905    1.529   .     S
C827   C841    1.416   .     A
C827   C621    1.411   1_655 S
C828   C842    1.413   .     A
C828   C912    1.529   .     S
C829   C839    1.393   .     A
C829   H849    1.083   .     S
C829   C833    1.395   .     A
C830   C834    1.395   .     A
C830   C840    1.390   .     A
C830   H850    1.084   .     S
C831   C835    1.394   .     A
C831   H851    1.083   .     S
C831   C840    1.391   .     A
C832   C836    1.394   .     A
C832   C839    1.393   .     A
C832   H852    1.084   .     S
C833   C837    1.434   .     A
C833   C863    1.527   .     S
C834   C838    1.438   .     A
C834   C870    1.523   .     S
C835   C838    1.439   .     A
C835   C877    1.525   .     S
C836   C884    1.521   .     S
C836   C837    1.430   .     A
C839   C1758   1.474   1_554 S
C840   C1757   1.474   .     S
Cu843  O855    1.954   .     S
Cu843  O857    1.956   .     S
Cu843  O861    1.977   .     S
Cu843  O859    1.980   .     S
Cu843  Cu844   2.669   .     S
Cu843  N853    2.006   .     S
Cu844  O856    1.954   .     S
Cu844  N854    2.006   .     S
Cu844  O862    1.977   .     S
Cu844  O858    1.956   .     S
Cu844  O860    1.980   .     S
C863   H869    1.108   .     S
C863   C864    1.526   .     S
C863   H868    1.113   .     S
C864   H867    1.111   .     S
C864   H866    1.111   .     S
C864   H865    1.104   .     S
C870   H876    1.106   .     S
C870   H875    1.113   .     S
C870   C871    1.526   .     S
C871   H872    1.110   .     S
C871   H873    1.107   .     S
C871   H874    1.111   .     S
C877   H882    1.113   .     S
C877   C878    1.528   .     S
C877   H883    1.107   .     S
C878   H880    1.106   .     S
C878   H879    1.110   .     S
C878   H881    1.111   .     S
C884   H890    1.112   .     S
C884   C885    1.528   .     S
C884   H889    1.103   .     S
C885   H887    1.110   .     S
C885   H888    1.110   .     S
C885   H886    1.111   .     S
C891   H896    1.106   .     S
C891   H897    1.106   .     S
C891   C892    1.527   .     S
C892   H895    1.110   .     S
C892   H894    1.109   .     S
C892   H893    1.110   .     S
C898   H903    1.105   .     S
C898   H904    1.107   .     S
C898   C899    1.528   .     S
C899   H900    1.110   .     S
C899   H901    1.111   .     S
C899   H902    1.111   .     S
C905   H910    1.107   .     S
C905   H911    1.108   .     S
C905   C906    1.526   .     S
C906   H908    1.106   .     S
C906   H909    1.111   .     S
C906   H907    1.109   .     S
C912   H918    1.108   .     S
C912   H917    1.103   .     S
C912   C913    1.527   .     S
C913   H914    1.110   .     S
C913   H915    1.110   .     S
C913   H916    1.111   .     S
C919   O957    1.283   .     A
C919   C944    1.443   .     S
C919   O960    1.284   .     A
C920   O959    1.288   .     A
C920   O958    1.280   .     A
C920   C943    1.444   .     S
C921   O961    1.290   .     A
C921   C939    1.477   .     S
C921   O964    1.299   .     A
C922   O963    1.297   .     A
C922   O962    1.300   .     A
C922   C940    1.492   .     S
C923   H947    1.081   .     S
C923   N956    1.366   .     A
C923   C1538   1.413   1_545 S
C924   N955    1.365   .     A
C924   H948    1.077   .     S
C924   C1231   1.411   .     S
C925   H949    1.080   .     S
C925   N956    1.365   .     A
C925   C1536   1.411   1_545 S
C926   H950    1.081   .     S
C926   N955    1.366   .     A
C926   C1229   1.413   .     S
C927   C944    1.414   .     A
C927   C993    1.530   .     S
C927   C1133   1.411   1_455 S
C928   C1000   1.530   .     S
C928   C943    1.414   .     A
C928   C1032   1.407   .     S
C929   C1007   1.529   .     S
C929   C943    1.416   .     A
C929   C1029   1.411   .     S
C930   C944    1.413   .     A
C930   C1014   1.529   .     S
C930   C1132   1.407   1_455 S
C931   C941    1.393   .     A
C931   H951    1.083   .     S
C931   C935    1.395   .     A
C932   C936    1.395   .     A
C932   C942    1.390   .     A
C932   H952    1.084   .     S
C933   C937    1.394   .     A
C933   H953    1.083   .     S
C933   C942    1.391   .     A
C934   C938    1.394   .     A
C934   C941    1.393   .     A
C934   H954    1.084   .     S
C935   C939    1.434   .     A
C935   C965    1.527   .     S
C936   C940    1.438   .     A
C936   C972    1.523   .     S
C937   C940    1.439   .     A
C937   C979    1.525   .     S
C938   C986    1.521   .     S
C938   C939    1.430   .     A
C942   C23     1.474   1_556 S
Cu945  O957    1.954   .     S
Cu945  O959    1.956   .     S
Cu945  O963    1.977   .     S
Cu945  O961    1.980   .     S
Cu945  Cu946   2.669   .     S
Cu945  N955    2.006   .     S
Cu946  O958    1.954   .     S
Cu946  N956    2.006   .     S
Cu946  O964    1.977   .     S
Cu946  O960    1.956   .     S
Cu946  O962    1.980   .     S
C965   H971    1.108   .     S
C965   C966    1.526   .     S
C965   H970    1.113   .     S
C966   H969    1.111   .     S
C966   H968    1.111   .     S
C966   H967    1.104   .     S
C972   H978    1.106   .     S
C972   H977    1.113   .     S
C972   C973    1.526   .     S
C973   H974    1.110   .     S
C973   H975    1.107   .     S
C973   H976    1.111   .     S
C979   H984    1.113   .     S
C979   C980    1.528   .     S
C979   H985    1.107   .     S
C980   H982    1.106   .     S
C980   H981    1.110   .     S
C980   H983    1.111   .     S
C986   H992    1.112   .     S
C986   C987    1.528   .     S
C986   H991    1.103   .     S
C987   H989    1.110   .     S
C987   H990    1.110   .     S
C987   H988    1.111   .     S
C993   H998    1.106   .     S
C993   H999    1.106   .     S
C993   C994    1.527   .     S
C994   H997    1.110   .     S
C994   H996    1.109   .     S
C994   H995    1.110   .     S
C1000  H1005   1.105   .     S
C1000  H1006   1.107   .     S
C1000  C1001   1.528   .     S
C1001  H1002   1.110   .     S
C1001  H1003   1.111   .     S
C1001  H1004   1.111   .     S
C1007  H1012   1.107   .     S
C1007  H1013   1.108   .     S
C1007  C1008   1.526   .     S
C1008  H1010   1.106   .     S
C1008  H1011   1.111   .     S
C1008  H1009   1.109   .     S
C1014  H1020   1.108   .     S
C1014  H1019   1.103   .     S
C1014  C1015   1.527   .     S
C1015  H1016   1.110   .     S
C1015  H1017   1.110   .     S
C1015  H1018   1.111   .     S
C1021  O1059   1.283   .     A
C1021  C1046   1.443   .     S
C1021  O1062   1.284   .     A
C1022  O1061   1.288   .     A
C1022  O1060   1.280   .     A
C1022  C1045   1.444   .     S
C1023  O1063   1.290   .     A
C1023  C1041   1.477   .     S
C1023  O1066   1.299   .     A
C1024  O1065   1.297   .     A
C1024  O1064   1.300   .     A
C1024  C1042   1.492   .     S
C1025  H1049   1.081   .     S
C1025  N1058   1.366   .     A
C1025  C1640   1.413   1_545 S
C1026  N1057   1.365   .     A
C1026  H1050   1.077   .     S
C1026  C1333   1.411   .     S
C1027  H1051   1.080   .     S
C1027  N1058   1.365   .     A
C1027  C1638   1.411   1_545 S
C1028  H1052   1.081   .     S
C1028  N1057   1.366   .     A
C1028  C1331   1.413   .     S
C1029  C1046   1.414   .     A
C1029  C1095   1.530   .     S
C1030  C1102   1.530   .     S
C1030  C1045   1.414   .     A
C1030  C1134   1.407   .     S
C1031  C1109   1.529   .     S
C1031  C1045   1.416   .     A
C1031  C1131   1.411   .     S
C1032  C1046   1.413   .     A
C1032  C1116   1.529   .     S
C1033  C1043   1.393   .     A
C1033  H1053   1.083   .     S
C1033  C1037   1.395   .     A
C1034  C1038   1.395   .     A
C1034  C1044   1.390   .     A
C1034  H1054   1.084   .     S
C1035  C1039   1.394   .     A
C1035  H1055   1.083   .     S
C1035  C1044   1.391   .     A
C1036  C1040   1.394   .     A
C1036  C1043   1.393   .     A
C1036  H1056   1.084   .     S
C1037  C1041   1.434   .     A
C1037  C1067   1.527   .     S
C1038  C1042   1.438   .     A
C1038  C1074   1.523   .     S
C1039  C1042   1.439   .     A
C1039  C1081   1.525   .     S
C1040  C1088   1.521   .     S
C1040  C1041   1.430   .     A
C1044  C125    1.474   1_556 S
Cu1047 O1059   1.954   .     S
Cu1047 O1061   1.956   .     S
Cu1047 O1065   1.977   .     S
Cu1047 O1063   1.980   .     S
Cu1047 Cu1048  2.669   .     S
Cu1047 N1057   2.006   .     S
Cu1048 O1060   1.954   .     S
Cu1048 N1058   2.006   .     S
Cu1048 O1066   1.977   .     S
Cu1048 O1062   1.956   .     S
Cu1048 O1064   1.980   .     S
C1067  H1073   1.108   .     S
C1067  C1068   1.526   .     S
C1067  H1072   1.113   .     S
C1068  H1071   1.111   .     S
C1068  H1070   1.111   .     S
C1068  H1069   1.104   .     S
C1074  H1080   1.106   .     S
C1074  H1079   1.113   .     S
C1074  C1075   1.526   .     S
C1075  H1076   1.110   .     S
C1075  H1077   1.107   .     S
C1075  H1078   1.111   .     S
C1081  H1086   1.113   .     S
C1081  C1082   1.528   .     S
C1081  H1087   1.107   .     S
C1082  H1084   1.106   .     S
C1082  H1083   1.110   .     S
C1082  H1085   1.111   .     S
C1088  H1094   1.112   .     S
C1088  C1089   1.528   .     S
C1088  H1093   1.103   .     S
C1089  H1091   1.110   .     S
C1089  H1092   1.110   .     S
C1089  H1090   1.111   .     S
C1095  H1100   1.106   .     S
C1095  H1101   1.106   .     S
C1095  C1096   1.527   .     S
C1096  H1099   1.110   .     S
C1096  H1098   1.109   .     S
C1096  H1097   1.110   .     S
C1102  H1107   1.105   .     S
C1102  H1108   1.107   .     S
C1102  C1103   1.528   .     S
C1103  H1104   1.110   .     S
C1103  H1105   1.111   .     S
C1103  H1106   1.111   .     S
C1109  H1114   1.107   .     S
C1109  H1115   1.108   .     S
C1109  C1110   1.526   .     S
C1110  H1112   1.106   .     S
C1110  H1113   1.111   .     S
C1110  H1111   1.109   .     S
C1116  H1122   1.108   .     S
C1116  H1121   1.103   .     S
C1116  C1117   1.527   .     S
C1117  H1118   1.110   .     S
C1117  H1119   1.110   .     S
C1117  H1120   1.111   .     S
C1123  O1161   1.283   .     A
C1123  C1148   1.443   .     S
C1123  O1164   1.284   .     A
C1124  O1163   1.288   .     A
C1124  O1162   1.280   .     A
C1124  C1147   1.444   .     S
C1125  O1165   1.290   .     A
C1125  C1143   1.477   .     S
C1125  O1168   1.299   .     A
C1126  O1167   1.297   .     A
C1126  O1166   1.300   .     A
C1126  C1144   1.492   .     S
C1127  H1151   1.081   .     S
C1127  N1160   1.366   .     A
C1127  C1742   1.413   1_545 S
C1128  N1159   1.365   .     A
C1128  H1152   1.077   .     S
C1128  C1435   1.411   .     S
C1129  H1153   1.080   .     S
C1129  N1160   1.365   .     A
C1129  C1740   1.411   1_545 S
C1130  H1154   1.081   .     S
C1130  N1159   1.366   .     A
C1130  C1433   1.413   .     S
C1131  C1148   1.414   .     A
C1131  C1197   1.530   .     S
C1132  C1204   1.530   .     S
C1132  C1147   1.414   .     A
C1132  C930    1.407   1_655 S
C1133  C1211   1.529   .     S
C1133  C1147   1.416   .     A
C1133  C927    1.411   1_655 S
C1134  C1148   1.413   .     A
C1134  C1218   1.529   .     S
C1135  C1145   1.393   .     A
C1135  H1155   1.083   .     S
C1135  C1139   1.395   .     A
C1136  C1140   1.395   .     A
C1136  C1146   1.390   .     A
C1136  H1156   1.084   .     S
C1137  C1141   1.394   .     A
C1137  H1157   1.083   .     S
C1137  C1146   1.391   .     A
C1138  C1142   1.394   .     A
C1138  C1145   1.393   .     A
C1138  H1158   1.084   .     S
C1139  C1143   1.434   .     A
C1139  C1169   1.527   .     S
C1140  C1144   1.438   .     A
C1140  C1176   1.523   .     S
C1141  C1144   1.439   .     A
C1141  C1183   1.525   .     S
C1142  C1190   1.521   .     S
C1142  C1143   1.430   .     A
C1146  C227    1.474   1_556 S
Cu1149 O1161   1.954   .     S
Cu1149 O1163   1.956   .     S
Cu1149 O1167   1.977   .     S
Cu1149 O1165   1.980   .     S
Cu1149 Cu1150  2.669   .     S
Cu1149 N1159   2.006   .     S
Cu1150 O1162   1.954   .     S
Cu1150 N1160   2.006   .     S
Cu1150 O1168   1.977   .     S
Cu1150 O1164   1.956   .     S
Cu1150 O1166   1.980   .     S
C1169  H1175   1.108   .     S
C1169  C1170   1.526   .     S
C1169  H1174   1.113   .     S
C1170  H1173   1.111   .     S
C1170  H1172   1.111   .     S
C1170  H1171   1.104   .     S
C1176  H1182   1.106   .     S
C1176  H1181   1.113   .     S
C1176  C1177   1.526   .     S
C1177  H1178   1.110   .     S
C1177  H1179   1.107   .     S
C1177  H1180   1.111   .     S
C1183  H1188   1.113   .     S
C1183  C1184   1.528   .     S
C1183  H1189   1.107   .     S
C1184  H1186   1.106   .     S
C1184  H1185   1.110   .     S
C1184  H1187   1.111   .     S
C1190  H1196   1.112   .     S
C1190  C1191   1.528   .     S
C1190  H1195   1.103   .     S
C1191  H1193   1.110   .     S
C1191  H1194   1.110   .     S
C1191  H1192   1.111   .     S
C1197  H1202   1.106   .     S
C1197  H1203   1.106   .     S
C1197  C1198   1.527   .     S
C1198  H1201   1.110   .     S
C1198  H1200   1.109   .     S
C1198  H1199   1.110   .     S
C1204  H1209   1.105   .     S
C1204  H1210   1.107   .     S
C1204  C1205   1.528   .     S
C1205  H1206   1.110   .     S
C1205  H1207   1.111   .     S
C1205  H1208   1.111   .     S
C1211  H1216   1.107   .     S
C1211  H1217   1.108   .     S
C1211  C1212   1.526   .     S
C1212  H1214   1.106   .     S
C1212  H1215   1.111   .     S
C1212  H1213   1.109   .     S
C1218  H1224   1.108   .     S
C1218  H1223   1.103   .     S
C1218  C1219   1.527   .     S
C1219  H1220   1.110   .     S
C1219  H1221   1.110   .     S
C1219  H1222   1.111   .     S
C1225  O1263   1.283   .     A
C1225  C1250   1.443   .     S
C1225  O1266   1.284   .     A
C1226  O1265   1.288   .     A
C1226  O1264   1.280   .     A
C1226  C1249   1.444   .     S
C1227  O1267   1.290   .     A
C1227  C1245   1.477   .     S
C1227  O1270   1.299   .     A
C1228  O1269   1.297   .     A
C1228  O1268   1.300   .     A
C1228  C1246   1.492   .     S
C1229  H1253   1.081   .     S
C1229  N1262   1.366   .     A
C1230  N1261   1.365   .     A
C1230  H1254   1.077   .     S
C1230  C1537   1.411   .     S
C1231  H1255   1.080   .     S
C1231  N1262   1.365   .     A
C1232  H1256   1.081   .     S
C1232  N1261   1.366   .     A
C1232  C1535   1.413   .     S
C1233  C1250   1.414   .     A
C1233  C1299   1.530   .     S
C1233  C1439   1.411   1_455 S
C1234  C1306   1.530   .     S
C1234  C1249   1.414   .     A
C1234  C1338   1.407   .     S
C1235  C1313   1.529   .     S
C1235  C1249   1.416   .     A
C1235  C1335   1.411   .     S
C1236  C1250   1.413   .     A
C1236  C1320   1.529   .     S
C1236  C1438   1.407   1_455 S
C1237  C1247   1.393   .     A
C1237  H1257   1.083   .     S
C1237  C1241   1.395   .     A
C1238  C1242   1.395   .     A
C1238  C1248   1.390   .     A
C1238  H1258   1.084   .     S
C1239  C1243   1.394   .     A
C1239  H1259   1.083   .     S
C1239  C1248   1.391   .     A
C1240  C1244   1.394   .     A
C1240  C1247   1.393   .     A
C1240  H1260   1.084   .     S
C1241  C1245   1.434   .     A
C1241  C1271   1.527   .     S
C1242  C1246   1.438   .     A
C1242  C1278   1.523   .     S
C1243  C1246   1.439   .     A
C1243  C1285   1.525   .     S
C1244  C1292   1.521   .     S
C1244  C1245   1.430   .     A
C1248  C329    1.474   1_556 S
Cu1251 O1263   1.954   .     S
Cu1251 O1265   1.956   .     S
Cu1251 O1269   1.977   .     S
Cu1251 O1267   1.980   .     S
Cu1251 Cu1252  2.669   .     S
Cu1251 N1261   2.006   .     S
Cu1252 O1264   1.954   .     S
Cu1252 N1262   2.006   .     S
Cu1252 O1270   1.977   .     S
Cu1252 O1266   1.956   .     S
Cu1252 O1268   1.980   .     S
C1271  H1277   1.108   .     S
C1271  C1272   1.526   .     S
C1271  H1276   1.113   .     S
C1272  H1275   1.111   .     S
C1272  H1274   1.111   .     S
C1272  H1273   1.104   .     S
C1278  H1284   1.106   .     S
C1278  H1283   1.113   .     S
C1278  C1279   1.526   .     S
C1279  H1280   1.110   .     S
C1279  H1281   1.107   .     S
C1279  H1282   1.111   .     S
C1285  H1290   1.113   .     S
C1285  C1286   1.528   .     S
C1285  H1291   1.107   .     S
C1286  H1288   1.106   .     S
C1286  H1287   1.110   .     S
C1286  H1289   1.111   .     S
C1292  H1298   1.112   .     S
C1292  C1293   1.528   .     S
C1292  H1297   1.103   .     S
C1293  H1295   1.110   .     S
C1293  H1296   1.110   .     S
C1293  H1294   1.111   .     S
C1299  H1304   1.106   .     S
C1299  H1305   1.106   .     S
C1299  C1300   1.527   .     S
C1300  H1303   1.110   .     S
C1300  H1302   1.109   .     S
C1300  H1301   1.110   .     S
C1306  H1311   1.105   .     S
C1306  H1312   1.107   .     S
C1306  C1307   1.528   .     S
C1307  H1308   1.110   .     S
C1307  H1309   1.111   .     S
C1307  H1310   1.111   .     S
C1313  H1318   1.107   .     S
C1313  H1319   1.108   .     S
C1313  C1314   1.526   .     S
C1314  H1316   1.106   .     S
C1314  H1317   1.111   .     S
C1314  H1315   1.109   .     S
C1320  H1326   1.108   .     S
C1320  H1325   1.103   .     S
C1320  C1321   1.527   .     S
C1321  H1322   1.110   .     S
C1321  H1323   1.110   .     S
C1321  H1324   1.111   .     S
C1327  O1365   1.283   .     A
C1327  C1352   1.443   .     S
C1327  O1368   1.284   .     A
C1328  O1367   1.288   .     A
C1328  O1366   1.280   .     A
C1328  C1351   1.444   .     S
C1329  O1369   1.290   .     A
C1329  C1347   1.477   .     S
C1329  O1372   1.299   .     A
C1330  O1371   1.297   .     A
C1330  O1370   1.300   .     A
C1330  C1348   1.492   .     S
C1331  H1355   1.081   .     S
C1331  N1364   1.366   .     A
C1332  N1363   1.365   .     A
C1332  H1356   1.077   .     S
C1332  C1639   1.411   .     S
C1333  H1357   1.080   .     S
C1333  N1364   1.365   .     A
C1334  H1358   1.081   .     S
C1334  N1363   1.366   .     A
C1334  C1637   1.413   .     S
C1335  C1352   1.414   .     A
C1335  C1401   1.530   .     S
C1336  C1408   1.530   .     S
C1336  C1351   1.414   .     A
C1336  C1440   1.407   .     S
C1337  C1415   1.529   .     S
C1337  C1351   1.416   .     A
C1337  C1437   1.411   .     S
C1338  C1352   1.413   .     A
C1338  C1422   1.529   .     S
C1339  C1349   1.393   .     A
C1339  H1359   1.083   .     S
C1339  C1343   1.395   .     A
C1340  C1344   1.395   .     A
C1340  C1350   1.390   .     A
C1340  H1360   1.084   .     S
C1341  C1345   1.394   .     A
C1341  H1361   1.083   .     S
C1341  C1350   1.391   .     A
C1342  C1346   1.394   .     A
C1342  C1349   1.393   .     A
C1342  H1362   1.084   .     S
C1343  C1347   1.434   .     A
C1343  C1373   1.527   .     S
C1344  C1348   1.438   .     A
C1344  C1380   1.523   .     S
C1345  C1348   1.439   .     A
C1345  C1387   1.525   .     S
C1346  C1394   1.521   .     S
C1346  C1347   1.430   .     A
C1350  C431    1.474   1_556 S
Cu1353 O1365   1.954   .     S
Cu1353 O1367   1.956   .     S
Cu1353 O1371   1.977   .     S
Cu1353 O1369   1.980   .     S
Cu1353 Cu1354  2.669   .     S
Cu1353 N1363   2.006   .     S
Cu1354 O1366   1.954   .     S
Cu1354 N1364   2.006   .     S
Cu1354 O1372   1.977   .     S
Cu1354 O1368   1.956   .     S
Cu1354 O1370   1.980   .     S
C1373  H1379   1.108   .     S
C1373  C1374   1.526   .     S
C1373  H1378   1.113   .     S
C1374  H1377   1.111   .     S
C1374  H1376   1.111   .     S
C1374  H1375   1.104   .     S
C1380  H1386   1.106   .     S
C1380  H1385   1.113   .     S
C1380  C1381   1.526   .     S
C1381  H1382   1.110   .     S
C1381  H1383   1.107   .     S
C1381  H1384   1.111   .     S
C1387  H1392   1.113   .     S
C1387  C1388   1.528   .     S
C1387  H1393   1.107   .     S
C1388  H1390   1.106   .     S
C1388  H1389   1.110   .     S
C1388  H1391   1.111   .     S
C1394  H1400   1.112   .     S
C1394  C1395   1.528   .     S
C1394  H1399   1.103   .     S
C1395  H1397   1.110   .     S
C1395  H1398   1.110   .     S
C1395  H1396   1.111   .     S
C1401  H1406   1.106   .     S
C1401  H1407   1.106   .     S
C1401  C1402   1.527   .     S
C1402  H1405   1.110   .     S
C1402  H1404   1.109   .     S
C1402  H1403   1.110   .     S
C1408  H1413   1.105   .     S
C1408  H1414   1.107   .     S
C1408  C1409   1.528   .     S
C1409  H1410   1.110   .     S
C1409  H1411   1.111   .     S
C1409  H1412   1.111   .     S
C1415  H1420   1.107   .     S
C1415  H1421   1.108   .     S
C1415  C1416   1.526   .     S
C1416  H1418   1.106   .     S
C1416  H1419   1.111   .     S
C1416  H1417   1.109   .     S
C1422  H1428   1.108   .     S
C1422  H1427   1.103   .     S
C1422  C1423   1.527   .     S
C1423  H1424   1.110   .     S
C1423  H1425   1.110   .     S
C1423  H1426   1.111   .     S
C1429  O1467   1.283   .     A
C1429  C1454   1.443   .     S
C1429  O1470   1.284   .     A
C1430  O1469   1.288   .     A
C1430  O1468   1.280   .     A
C1430  C1453   1.444   .     S
C1431  O1471   1.290   .     A
C1431  C1449   1.477   .     S
C1431  O1474   1.299   .     A
C1432  O1473   1.297   .     A
C1432  O1472   1.300   .     A
C1432  C1450   1.492   .     S
C1433  H1457   1.081   .     S
C1433  N1466   1.366   .     A
C1434  N1465   1.365   .     A
C1434  H1458   1.077   .     S
C1434  C1741   1.411   .     S
C1435  H1459   1.080   .     S
C1435  N1466   1.365   .     A
C1436  H1460   1.081   .     S
C1436  N1465   1.366   .     A
C1436  C1739   1.413   .     S
C1437  C1454   1.414   .     A
C1437  C1503   1.530   .     S
C1438  C1510   1.530   .     S
C1438  C1453   1.414   .     A
C1438  C1236   1.407   1_655 S
C1439  C1517   1.529   .     S
C1439  C1453   1.416   .     A
C1439  C1233   1.411   1_655 S
C1440  C1454   1.413   .     A
C1440  C1524   1.529   .     S
C1441  C1451   1.393   .     A
C1441  H1461   1.083   .     S
C1441  C1445   1.395   .     A
C1442  C1446   1.395   .     A
C1442  C1452   1.390   .     A
C1442  H1462   1.084   .     S
C1443  C1447   1.394   .     A
C1443  H1463   1.083   .     S
C1443  C1452   1.391   .     A
C1444  C1448   1.394   .     A
C1444  C1451   1.393   .     A
C1444  H1464   1.084   .     S
C1445  C1449   1.434   .     A
C1445  C1475   1.527   .     S
C1446  C1450   1.438   .     A
C1446  C1482   1.523   .     S
C1447  C1450   1.439   .     A
C1447  C1489   1.525   .     S
C1448  C1496   1.521   .     S
C1448  C1449   1.430   .     A
C1452  C533    1.474   1_556 S
Cu1455 O1467   1.954   .     S
Cu1455 O1469   1.956   .     S
Cu1455 O1473   1.977   .     S
Cu1455 O1471   1.980   .     S
Cu1455 Cu1456  2.669   .     S
Cu1455 N1465   2.006   .     S
Cu1456 O1468   1.954   .     S
Cu1456 N1466   2.006   .     S
Cu1456 O1474   1.977   .     S
Cu1456 O1470   1.956   .     S
Cu1456 O1472   1.980   .     S
C1475  H1481   1.108   .     S
C1475  C1476   1.526   .     S
C1475  H1480   1.113   .     S
C1476  H1479   1.111   .     S
C1476  H1478   1.111   .     S
C1476  H1477   1.104   .     S
C1482  H1488   1.106   .     S
C1482  H1487   1.113   .     S
C1482  C1483   1.526   .     S
C1483  H1484   1.110   .     S
C1483  H1485   1.107   .     S
C1483  H1486   1.111   .     S
C1489  H1494   1.113   .     S
C1489  C1490   1.528   .     S
C1489  H1495   1.107   .     S
C1490  H1492   1.106   .     S
C1490  H1491   1.110   .     S
C1490  H1493   1.111   .     S
C1496  H1502   1.112   .     S
C1496  C1497   1.528   .     S
C1496  H1501   1.103   .     S
C1497  H1499   1.110   .     S
C1497  H1500   1.110   .     S
C1497  H1498   1.111   .     S
C1503  H1508   1.106   .     S
C1503  H1509   1.106   .     S
C1503  C1504   1.527   .     S
C1504  H1507   1.110   .     S
C1504  H1506   1.109   .     S
C1504  H1505   1.110   .     S
C1510  H1515   1.105   .     S
C1510  H1516   1.107   .     S
C1510  C1511   1.528   .     S
C1511  H1512   1.110   .     S
C1511  H1513   1.111   .     S
C1511  H1514   1.111   .     S
C1517  H1522   1.107   .     S
C1517  H1523   1.108   .     S
C1517  C1518   1.526   .     S
C1518  H1520   1.106   .     S
C1518  H1521   1.111   .     S
C1518  H1519   1.109   .     S
C1524  H1530   1.108   .     S
C1524  H1529   1.103   .     S
C1524  C1525   1.527   .     S
C1525  H1526   1.110   .     S
C1525  H1527   1.110   .     S
C1525  H1528   1.111   .     S
C1531  O1569   1.283   .     A
C1531  C1556   1.443   .     S
C1531  O1572   1.284   .     A
C1532  O1571   1.288   .     A
C1532  O1570   1.280   .     A
C1532  C1555   1.444   .     S
C1533  O1573   1.290   .     A
C1533  C1551   1.477   .     S
C1533  O1576   1.299   .     A
C1534  O1575   1.297   .     A
C1534  O1574   1.300   .     A
C1534  C1552   1.492   .     S
C1535  H1559   1.081   .     S
C1535  N1568   1.366   .     A
C1536  N1567   1.365   .     A
C1536  H1560   1.077   .     S
C1536  C925    1.411   1_565 S
C1537  H1561   1.080   .     S
C1537  N1568   1.365   .     A
C1538  H1562   1.081   .     S
C1538  N1567   1.366   .     A
C1538  C923    1.413   1_565 S
C1539  C1556   1.414   .     A
C1539  C1605   1.530   .     S
C1539  C1745   1.411   1_455 S
C1540  C1612   1.530   .     S
C1540  C1555   1.414   .     A
C1540  C1644   1.407   .     S
C1541  C1619   1.529   .     S
C1541  C1555   1.416   .     A
C1541  C1641   1.411   .     S
C1542  C1556   1.413   .     A
C1542  C1626   1.529   .     S
C1542  C1744   1.407   1_455 S
C1543  C1553   1.393   .     A
C1543  H1563   1.083   .     S
C1543  C1547   1.395   .     A
C1544  C1548   1.395   .     A
C1544  C1554   1.390   .     A
C1544  H1564   1.084   .     S
C1545  C1549   1.394   .     A
C1545  H1565   1.083   .     S
C1545  C1554   1.391   .     A
C1546  C1550   1.394   .     A
C1546  C1553   1.393   .     A
C1546  H1566   1.084   .     S
C1547  C1551   1.434   .     A
C1547  C1577   1.527   .     S
C1548  C1552   1.438   .     A
C1548  C1584   1.523   .     S
C1549  C1552   1.439   .     A
C1549  C1591   1.525   .     S
C1550  C1598   1.521   .     S
C1550  C1551   1.430   .     A
C1554  C635    1.474   1_556 S
Cu1557 O1569   1.954   .     S
Cu1557 O1571   1.956   .     S
Cu1557 O1575   1.977   .     S
Cu1557 O1573   1.980   .     S
Cu1557 Cu1558  2.669   .     S
Cu1557 N1567   2.006   .     S
Cu1558 O1570   1.954   .     S
Cu1558 N1568   2.006   .     S
Cu1558 O1576   1.977   .     S
Cu1558 O1572   1.956   .     S
Cu1558 O1574   1.980   .     S
C1577  H1583   1.108   .     S
C1577  C1578   1.526   .     S
C1577  H1582   1.113   .     S
C1578  H1581   1.111   .     S
C1578  H1580   1.111   .     S
C1578  H1579   1.104   .     S
C1584  H1590   1.106   .     S
C1584  H1589   1.113   .     S
C1584  C1585   1.526   .     S
C1585  H1586   1.110   .     S
C1585  H1587   1.107   .     S
C1585  H1588   1.111   .     S
C1591  H1596   1.113   .     S
C1591  C1592   1.528   .     S
C1591  H1597   1.107   .     S
C1592  H1594   1.106   .     S
C1592  H1593   1.110   .     S
C1592  H1595   1.111   .     S
C1598  H1604   1.112   .     S
C1598  C1599   1.528   .     S
C1598  H1603   1.103   .     S
C1599  H1601   1.110   .     S
C1599  H1602   1.110   .     S
C1599  H1600   1.111   .     S
C1605  H1610   1.106   .     S
C1605  H1611   1.106   .     S
C1605  C1606   1.527   .     S
C1606  H1609   1.110   .     S
C1606  H1608   1.109   .     S
C1606  H1607   1.110   .     S
C1612  H1617   1.105   .     S
C1612  H1618   1.107   .     S
C1612  C1613   1.528   .     S
C1613  H1614   1.110   .     S
C1613  H1615   1.111   .     S
C1613  H1616   1.111   .     S
C1619  H1624   1.107   .     S
C1619  H1625   1.108   .     S
C1619  C1620   1.526   .     S
C1620  H1622   1.106   .     S
C1620  H1623   1.111   .     S
C1620  H1621   1.109   .     S
C1626  H1632   1.108   .     S
C1626  H1631   1.103   .     S
C1626  C1627   1.527   .     S
C1627  H1628   1.110   .     S
C1627  H1629   1.110   .     S
C1627  H1630   1.111   .     S
C1633  O1671   1.283   .     A
C1633  C1658   1.443   .     S
C1633  O1674   1.284   .     A
C1634  O1673   1.288   .     A
C1634  O1672   1.280   .     A
C1634  C1657   1.444   .     S
C1635  O1675   1.290   .     A
C1635  C1653   1.477   .     S
C1635  O1678   1.299   .     A
C1636  O1677   1.297   .     A
C1636  O1676   1.300   .     A
C1636  C1654   1.492   .     S
C1637  H1661   1.081   .     S
C1637  N1670   1.366   .     A
C1638  N1669   1.365   .     A
C1638  H1662   1.077   .     S
C1638  C1027   1.411   1_565 S
C1639  H1663   1.080   .     S
C1639  N1670   1.365   .     A
C1640  H1664   1.081   .     S
C1640  N1669   1.366   .     A
C1640  C1025   1.413   1_565 S
C1641  C1658   1.414   .     A
C1641  C1707   1.530   .     S
C1642  C1714   1.530   .     S
C1642  C1657   1.414   .     A
C1642  C1746   1.407   .     S
C1643  C1721   1.529   .     S
C1643  C1657   1.416   .     A
C1643  C1743   1.411   .     S
C1644  C1658   1.413   .     A
C1644  C1728   1.529   .     S
C1645  C1655   1.393   .     A
C1645  H1665   1.083   .     S
C1645  C1649   1.395   .     A
C1646  C1650   1.395   .     A
C1646  C1656   1.390   .     A
C1646  H1666   1.084   .     S
C1647  C1651   1.394   .     A
C1647  H1667   1.083   .     S
C1647  C1656   1.391   .     A
C1648  C1652   1.394   .     A
C1648  C1655   1.393   .     A
C1648  H1668   1.084   .     S
C1649  C1653   1.434   .     A
C1649  C1679   1.527   .     S
C1650  C1654   1.438   .     A
C1650  C1686   1.523   .     S
C1651  C1654   1.439   .     A
C1651  C1693   1.525   .     S
C1652  C1700   1.521   .     S
C1652  C1653   1.430   .     A
C1656  C737    1.474   1_556 S
Cu1659 O1671   1.954   .     S
Cu1659 O1673   1.956   .     S
Cu1659 O1677   1.977   .     S
Cu1659 O1675   1.980   .     S
Cu1659 Cu1660  2.669   .     S
Cu1659 N1669   2.006   .     S
Cu1660 O1672   1.954   .     S
Cu1660 N1670   2.006   .     S
Cu1660 O1678   1.977   .     S
Cu1660 O1674   1.956   .     S
Cu1660 O1676   1.980   .     S
C1679  H1685   1.108   .     S
C1679  C1680   1.526   .     S
C1679  H1684   1.113   .     S
C1680  H1683   1.111   .     S
C1680  H1682   1.111   .     S
C1680  H1681   1.104   .     S
C1686  H1692   1.106   .     S
C1686  H1691   1.113   .     S
C1686  C1687   1.526   .     S
C1687  H1688   1.110   .     S
C1687  H1689   1.107   .     S
C1687  H1690   1.111   .     S
C1693  H1698   1.113   .     S
C1693  C1694   1.528   .     S
C1693  H1699   1.107   .     S
C1694  H1696   1.106   .     S
C1694  H1695   1.110   .     S
C1694  H1697   1.111   .     S
C1700  H1706   1.112   .     S
C1700  C1701   1.528   .     S
C1700  H1705   1.103   .     S
C1701  H1703   1.110   .     S
C1701  H1704   1.110   .     S
C1701  H1702   1.111   .     S
C1707  H1712   1.106   .     S
C1707  H1713   1.106   .     S
C1707  C1708   1.527   .     S
C1708  H1711   1.110   .     S
C1708  H1710   1.109   .     S
C1708  H1709   1.110   .     S
C1714  H1719   1.105   .     S
C1714  H1720   1.107   .     S
C1714  C1715   1.528   .     S
C1715  H1716   1.110   .     S
C1715  H1717   1.111   .     S
C1715  H1718   1.111   .     S
C1721  H1726   1.107   .     S
C1721  H1727   1.108   .     S
C1721  C1722   1.526   .     S
C1722  H1724   1.106   .     S
C1722  H1725   1.111   .     S
C1722  H1723   1.109   .     S
C1728  H1734   1.108   .     S
C1728  H1733   1.103   .     S
C1728  C1729   1.527   .     S
C1729  H1730   1.110   .     S
C1729  H1731   1.110   .     S
C1729  H1732   1.111   .     S
C1735  O1773   1.283   .     A
C1735  C1760   1.443   .     S
C1735  O1776   1.284   .     A
C1736  O1775   1.288   .     A
C1736  O1774   1.280   .     A
C1736  C1759   1.444   .     S
C1737  O1777   1.290   .     A
C1737  C1755   1.477   .     S
C1737  O1780   1.299   .     A
C1738  O1779   1.297   .     A
C1738  O1778   1.300   .     A
C1738  C1756   1.492   .     S
C1739  H1763   1.081   .     S
C1739  N1772   1.366   .     A
C1740  N1771   1.365   .     A
C1740  H1764   1.077   .     S
C1740  C1129   1.411   1_565 S
C1741  H1765   1.080   .     S
C1741  N1772   1.365   .     A
C1742  H1766   1.081   .     S
C1742  N1771   1.366   .     A
C1742  C1127   1.413   1_565 S
C1743  C1760   1.414   .     A
C1743  C1809   1.530   .     S
C1744  C1816   1.530   .     S
C1744  C1759   1.414   .     A
C1744  C1542   1.407   1_655 S
C1745  C1823   1.529   .     S
C1745  C1759   1.416   .     A
C1745  C1539   1.411   1_655 S
C1746  C1760   1.413   .     A
C1746  C1830   1.529   .     S
C1747  C1757   1.393   .     A
C1747  H1767   1.083   .     S
C1747  C1751   1.395   .     A
C1748  C1752   1.395   .     A
C1748  C1758   1.390   .     A
C1748  H1768   1.084   .     S
C1749  C1753   1.394   .     A
C1749  H1769   1.083   .     S
C1749  C1758   1.391   .     A
C1750  C1754   1.394   .     A
C1750  C1757   1.393   .     A
C1750  H1770   1.084   .     S
C1751  C1755   1.434   .     A
C1751  C1781   1.527   .     S
C1752  C1756   1.438   .     A
C1752  C1788   1.523   .     S
C1753  C1756   1.439   .     A
C1753  C1795   1.525   .     S
C1754  C1802   1.521   .     S
C1754  C1755   1.430   .     A
C1758  C839    1.474   1_556 S
Cu1761 O1773   1.954   .     S
Cu1761 O1775   1.956   .     S
Cu1761 O1779   1.977   .     S
Cu1761 O1777   1.980   .     S
Cu1761 Cu1762  2.669   .     S
Cu1761 N1771   2.006   .     S
Cu1762 O1774   1.954   .     S
Cu1762 N1772   2.006   .     S
Cu1762 O1780   1.977   .     S
Cu1762 O1776   1.956   .     S
Cu1762 O1778   1.980   .     S
C1781  H1787   1.108   .     S
C1781  C1782   1.526   .     S
C1781  H1786   1.113   .     S
C1782  H1785   1.111   .     S
C1782  H1784   1.111   .     S
C1782  H1783   1.104   .     S
C1788  H1794   1.106   .     S
C1788  H1793   1.113   .     S
C1788  C1789   1.526   .     S
C1789  H1790   1.110   .     S
C1789  H1791   1.107   .     S
C1789  H1792   1.111   .     S
C1795  H1800   1.113   .     S
C1795  C1796   1.528   .     S
C1795  H1801   1.107   .     S
C1796  H1798   1.106   .     S
C1796  H1797   1.110   .     S
C1796  H1799   1.111   .     S
C1802  H1808   1.112   .     S
C1802  C1803   1.528   .     S
C1802  H1807   1.103   .     S
C1803  H1805   1.110   .     S
C1803  H1806   1.110   .     S
C1803  H1804   1.111   .     S
C1809  H1814   1.106   .     S
C1809  H1815   1.106   .     S
C1809  C1810   1.527   .     S
C1810  H1813   1.110   .     S
C1810  H1812   1.109   .     S
C1810  H1811   1.110   .     S
C1816  H1821   1.105   .     S
C1816  H1822   1.107   .     S
C1816  C1817   1.528   .     S
C1817  H1818   1.110   .     S
C1817  H1819   1.111   .     S
C1817  H1820   1.111   .     S
C1823  H1828   1.107   .     S
C1823  H1829   1.108   .     S
C1823  C1824   1.526   .     S
C1824  H1826   1.106   .     S
C1824  H1827   1.111   .     S
C1824  H1825   1.109   .     S
C1830  H1836   1.108   .     S
C1830  H1835   1.103   .     S
C1830  C1831   1.527   .     S
C1831  H1832   1.110   .     S
C1831  H1833   1.110   .     S
C1831  H1834   1.111   .     S
